MODEL 1
REMARK VINA RESULT:      -6.9      0.000      0.000
REMARK  Name = pdb/CHEMBL3954365.pdb
REMARK                            x       y       z     vdW  Elec       q    Type
REMARK                         _______ _______ _______ _____ _____    ______ ____
ROOT
ATOM      1  C   LIG    1      -31.149  86.876  31.453  0.00  0.00    +0.149 A 
ATOM      2  N   LIG    1      -32.105  87.754  31.102  0.00  0.00    -0.160 NA
ATOM      3  N   LIG    1      -32.956  87.069  30.287  0.00  0.00    -0.218 N 
ATOM      4  C   LIG    1      -32.607  85.710  30.216  0.00  0.00    +0.129 A 
ATOM      5  C   LIG    1      -31.444  85.593  30.926  0.00  0.00    +0.078 A 
ENDROOT
BRANCH   3   6
ATOM      6  C   LIG    1      -34.046  87.746  29.653  0.00  0.00    +0.067 A 
ATOM      7  C   LIG    1      -35.372  87.516  30.049  0.00  0.00    +0.028 A 
ATOM      8  C   LIG    1      -36.425  88.208  29.441  0.00  0.00    +0.002 A 
ATOM      9  C   LIG    1      -36.171  89.114  28.415  0.00  0.00    +0.000 A 
ATOM     10  C   LIG    1      -34.861  89.322  27.986  0.00  0.00    +0.002 A 
ATOM     11  C   LIG    1      -33.800  88.636  28.595  0.00  0.00    +0.028 A 
ENDBRANCH   3   6
BRANCH   4  12
ATOM     12  N   LIG    1      -33.332  84.663  29.618  0.00  0.00    -0.266 N 
ATOM     13  H   LIG    1      -33.230  84.536  28.620  0.00  0.00    +0.157 HD
ATOM     14  C   LIG    1      -34.298  83.839  30.308  0.00  0.00    +0.251 C 
ATOM     15  O   LIG    1      -34.513  83.973  31.492  0.00  0.00    -0.270 OA
BRANCH  14  16
ATOM     16  C   LIG    1      -34.989  82.778  29.517  0.00  0.00    +0.056 A 
ATOM     17  C   LIG    1      -36.341  82.814  29.178  0.00  0.00    +0.056 A 
ATOM     18 CL   LIG    1      -37.408  84.099  29.614  0.00  0.00    -0.083 Cl
ATOM     19  C   LIG    1      -36.899  81.766  28.453  0.00  0.00    +0.059 A 
ATOM     20  C   LIG    1      -36.116  80.684  28.054  0.00  0.00    +0.134 A 
ATOM     21  F   LIG    1      -36.748  79.736  27.351  0.00  0.00    -0.205 F 
ATOM     22  C   LIG    1      -34.752  80.588  28.363  0.00  0.00    +0.036 A 
ATOM     23  C   LIG    1      -34.213  81.663  29.117  0.00  0.00    +0.027 A 
BRANCH  22  24
ATOM     24  C   LIG    1      -33.897  79.443  27.947  0.00  0.00    +0.074 A 
ATOM     25  N   LIG    1      -33.236  79.611  26.772  0.00  0.00    -0.255 NA
ATOM     26  C   LIG    1      -32.422  78.616  26.341  0.00  0.00    +0.111 A 
ATOM     27  C   LIG    1      -32.220  77.433  27.025  0.00  0.00    +0.020 A 
ATOM     28  C   LIG    1      -32.902  77.254  28.215  0.00  0.00    +0.004 A 
ATOM     29  C   LIG    1      -33.747  78.262  28.678  0.00  0.00    +0.028 A 
ENDBRANCH  22  24
ENDBRANCH  14  16
ENDBRANCH   4  12
BRANCH   1  31
ATOM     30  N   LIG    1      -30.039  87.177  33.577  0.00  0.00    -0.208 NA
ATOM     31  C   LIG    1      -29.976  87.203  32.288  0.00  0.00    +0.241 C 
BRANCH  30  34
ATOM     32  C   LIG    1      -28.241  84.980  34.934  0.00  0.00    +0.070 C 
ATOM     33  C   LIG    1      -28.082  86.455  34.932  0.00  0.00    +0.085 A 
ATOM     34  C   LIG    1      -28.919  87.458  34.372  0.00  0.00    +0.111 A 
ATOM     35  C   LIG    1      -28.280  88.654  34.635  0.00  0.00    +0.059 A 
ATOM     36  C   LIG    1      -28.560  90.082  34.356  0.00  0.00    +0.067 C 
ATOM     37  N   LIG    1      -27.112  88.298  35.260  0.00  0.00    -0.279 N 
ATOM     38  H   LIG    1      -26.345  88.902  35.538  0.00  0.00    +0.189 HD
ATOM     39  N   LIG    1      -26.994  86.989  35.501  0.00  0.00    -0.177 NA
ENDBRANCH  30  34
BRANCH  31  40
ATOM     40  O   LIG    1      -28.887  87.541  31.556  0.00  0.00    -0.491 OA
ATOM     41  H   LIG    1      -28.380  88.230  32.007  0.00  0.00    +0.294 HD
ENDBRANCH  31  40
ENDBRANCH   1  31
TORSDOF 7
ENDMDL
MODEL 2
REMARK VINA RESULT:      -6.6      6.442     10.811
REMARK  Name = pdb/CHEMBL3954365.pdb
REMARK                            x       y       z     vdW  Elec       q    Type
REMARK                         _______ _______ _______ _____ _____    ______ ____
ROOT
ATOM      1  C   LIG    1      -37.101  79.985  27.493  0.00  0.00    +0.149 A 
ATOM      2  N   LIG    1      -36.091  79.164  27.829  0.00  0.00    -0.160 NA
ATOM      3  N   LIG    1      -36.531  77.904  27.555  0.00  0.00    -0.218 N 
ATOM      4  C   LIG    1      -37.786  77.931  26.923  0.00  0.00    +0.129 A 
ATOM      5  C   LIG    1      -38.162  79.245  26.914  0.00  0.00    +0.078 A 
ENDROOT
BRANCH   3   6
ATOM      6  C   LIG    1      -35.724  76.771  27.891  0.00  0.00    +0.067 A 
ATOM      7  C   LIG    1      -36.136  75.848  28.863  0.00  0.00    +0.028 A 
ATOM      8  C   LIG    1      -35.350  74.728  29.160  0.00  0.00    +0.002 A 
ATOM      9  C   LIG    1      -34.134  74.533  28.512  0.00  0.00    +0.000 A 
ATOM     10  C   LIG    1      -33.695  75.463  27.572  0.00  0.00    +0.002 A 
ATOM     11  C   LIG    1      -34.479  76.585  27.266  0.00  0.00    +0.028 A 
ENDBRANCH   3   6
BRANCH   4  12
ATOM     12  N   LIG    1      -38.482  76.855  26.342  0.00  0.00    -0.266 N 
ATOM     13  H   LIG    1      -39.247  76.456  26.869  0.00  0.00    +0.157 HD
ATOM     14  C   LIG    1      -38.104  76.209  25.106  0.00  0.00    +0.251 C 
ATOM     15  O   LIG    1      -37.164  76.598  24.450  0.00  0.00    -0.270 OA
BRANCH  14  16
ATOM     16  C   LIG    1      -38.949  75.070  24.638  0.00  0.00    +0.056 A 
ATOM     17  C   LIG    1      -40.196  75.221  24.033  0.00  0.00    +0.056 A 
ATOM     18 CL   LIG    1      -40.937  76.749  23.726  0.00  0.00    -0.083 Cl
ATOM     19  C   LIG    1      -40.917  74.095  23.648  0.00  0.00    +0.059 A 
ATOM     20  C   LIG    1      -40.400  72.818  23.854  0.00  0.00    +0.134 A 
ATOM     21  F   LIG    1      -41.168  71.804  23.437  0.00  0.00    -0.205 F 
ATOM     22  C   LIG    1      -39.153  72.598  24.457  0.00  0.00    +0.036 A 
ATOM     23  C   LIG    1      -38.447  73.764  24.854  0.00  0.00    +0.027 A 
BRANCH  22  24
ATOM     24  C   LIG    1      -38.581  71.243  24.686  0.00  0.00    +0.074 A 
ATOM     25  N   LIG    1      -39.162  70.531  25.686  0.00  0.00    -0.255 NA
ATOM     26  C   LIG    1      -38.706  69.279  25.937  0.00  0.00    +0.111 A 
ATOM     27  C   LIG    1      -37.679  68.677  25.235  0.00  0.00    +0.020 A 
ATOM     28  C   LIG    1      -37.077  69.405  24.224  0.00  0.00    +0.004 A 
ATOM     29  C   LIG    1      -37.528  70.695  23.950  0.00  0.00    +0.028 A 
ENDBRANCH  22  24
ENDBRANCH  14  16
ENDBRANCH   4  12
BRANCH   1  31
ATOM     30  N   LIG    1      -35.994  82.129  27.603  0.00  0.00    -0.208 NA
ATOM     31  C   LIG    1      -37.089  81.450  27.680  0.00  0.00    +0.241 C 
BRANCH  30  34
ATOM     32  C   LIG    1      -35.396  83.613  30.312  0.00  0.00    +0.070 C 
ATOM     33  C   LIG    1      -35.655  84.181  28.967  0.00  0.00    +0.085 A 
ATOM     34  C   LIG    1      -35.983  83.523  27.750  0.00  0.00    +0.111 A 
ATOM     35  C   LIG    1      -36.084  84.528  26.808  0.00  0.00    +0.059 A 
ATOM     36  C   LIG    1      -36.389  84.588  25.360  0.00  0.00    +0.067 C 
ATOM     37  N   LIG    1      -35.761  85.677  27.485  0.00  0.00    -0.279 N 
ATOM     38  H   LIG    1      -35.652  86.613  27.107  0.00  0.00    +0.189 HD
ATOM     39  N   LIG    1      -35.554  85.505  28.793  0.00  0.00    -0.177 NA
ENDBRANCH  30  34
BRANCH  31  40
ATOM     40  O   LIG    1      -38.315  81.956  27.954  0.00  0.00    -0.491 OA
ATOM     41  H   LIG    1      -38.944  81.705  27.263  0.00  0.00    +0.294 HD
ENDBRANCH  31  40
ENDBRANCH   1  31
TORSDOF 7
ENDMDL
MODEL 3
REMARK VINA RESULT:      -6.6      7.844     12.355
REMARK  Name = pdb/CHEMBL3954365.pdb
REMARK                            x       y       z     vdW  Elec       q    Type
REMARK                         _______ _______ _______ _____ _____    ______ ____
ROOT
ATOM      1  C   LIG    1      -37.598  77.875  26.867  0.00  0.00    +0.149 A 
ATOM      2  N   LIG    1      -38.758  77.698  26.210  0.00  0.00    -0.160 NA
ATOM      3  N   LIG    1      -38.675  76.465  25.636  0.00  0.00    -0.218 N 
ATOM      4  C   LIG    1      -37.503  75.799  26.032  0.00  0.00    +0.129 A 
ATOM      5  C   LIG    1      -36.805  76.704  26.784  0.00  0.00    +0.078 A 
ENDROOT
BRANCH   3   6
ATOM      6  C   LIG    1      -39.718  76.001  24.773  0.00  0.00    +0.067 A 
ATOM      7  C   LIG    1      -39.972  74.631  24.612  0.00  0.00    +0.028 A 
ATOM      8  C   LIG    1      -41.015  74.194  23.788  0.00  0.00    +0.002 A 
ATOM      9  C   LIG    1      -41.797  75.114  23.097  0.00  0.00    +0.000 A 
ATOM     10  C   LIG    1      -41.531  76.476  23.219  0.00  0.00    +0.002 A 
ATOM     11  C   LIG    1      -40.490  76.922  24.046  0.00  0.00    +0.028 A 
ENDBRANCH   3   6
BRANCH   4  12
ATOM     12  N   LIG    1      -37.147  74.460  25.788  0.00  0.00    -0.266 N 
ATOM     13  H   LIG    1      -36.680  74.253  24.915  0.00  0.00    +0.157 HD
ATOM     14  C   LIG    1      -37.508  73.350  26.640  0.00  0.00    +0.251 C 
ATOM     15  O   LIG    1      -38.116  73.516  27.673  0.00  0.00    -0.270 OA
BRANCH  14  16
ATOM     16  C   LIG    1      -37.058  71.988  26.223  0.00  0.00    +0.056 A 
ATOM     17  C   LIG    1      -36.147  71.214  26.940  0.00  0.00    +0.056 A 
ATOM     18 CL   LIG    1      -35.416  71.716  28.422  0.00  0.00    -0.083 Cl
ATOM     19  C   LIG    1      -35.775  69.963  26.461  0.00  0.00    +0.059 A 
ATOM     20  C   LIG    1      -36.312  69.472  25.272  0.00  0.00    +0.134 A 
ATOM     21  F   LIG    1      -35.897  68.253  24.905  0.00  0.00    -0.205 F 
ATOM     22  C   LIG    1      -37.233  70.200  24.504  0.00  0.00    +0.036 A 
ATOM     23  C   LIG    1      -37.581  71.479  25.010  0.00  0.00    +0.027 A 
BRANCH  22  24
ATOM     24  C   LIG    1      -37.820  69.694  23.233  0.00  0.00    +0.074 A 
ATOM     25  N   LIG    1      -36.919  69.359  22.272  0.00  0.00    -0.255 NA
ATOM     26  C   LIG    1      -37.383  68.871  21.096  0.00  0.00    +0.111 A 
ATOM     27  C   LIG    1      -38.722  68.692  20.807  0.00  0.00    +0.020 A 
ATOM     28  C   LIG    1      -39.642  69.045  21.779  0.00  0.00    +0.004 A 
ATOM     29  C   LIG    1      -39.189  69.551  22.997  0.00  0.00    +0.028 A 
ENDBRANCH  22  24
ENDBRANCH  14  16
ENDBRANCH   4  12
BRANCH   1  31
ATOM     30  N   LIG    1      -36.013  79.554  27.576  0.00  0.00    -0.208 NA
ATOM     31  C   LIG    1      -37.224  79.106  27.590  0.00  0.00    +0.241 C 
BRANCH  30  34
ATOM     32  C   LIG    1      -34.725  79.658  30.445  0.00  0.00    +0.070 C 
ATOM     33  C   LIG    1      -35.026  80.769  29.509  0.00  0.00    +0.085 A 
ATOM     34  C   LIG    1      -35.661  80.738  28.237  0.00  0.00    +0.111 A 
ATOM     35  C   LIG    1      -35.653  82.046  27.795  0.00  0.00    +0.059 A 
ATOM     36  C   LIG    1      -36.131  82.752  26.583  0.00  0.00    +0.067 C 
ATOM     37  N   LIG    1      -34.985  82.743  28.770  0.00  0.00    -0.279 N 
ATOM     38  H   LIG    1      -34.715  83.721  28.763  0.00  0.00    +0.189 HD
ATOM     39  N   LIG    1      -34.647  82.011  29.835  0.00  0.00    -0.177 NA
ENDBRANCH  30  34
BRANCH  31  40
ATOM     40  O   LIG    1      -38.264  79.662  28.258  0.00  0.00    -0.491 OA
ATOM     41  H   LIG    1      -38.251  79.390  29.186  0.00  0.00    +0.294 HD
ENDBRANCH  31  40
ENDBRANCH   1  31
TORSDOF 7
ENDMDL
MODEL 4
REMARK VINA RESULT:      -6.6      6.692     11.125
REMARK  Name = pdb/CHEMBL3954365.pdb
REMARK                            x       y       z     vdW  Elec       q    Type
REMARK                         _______ _______ _______ _____ _____    ______ ____
ROOT
ATOM      1  C   LIG    1      -39.103  84.767  22.683  0.00  0.00    +0.149 A 
ATOM      2  N   LIG    1      -38.798  85.935  23.276  0.00  0.00    -0.160 NA
ATOM      3  N   LIG    1      -38.367  85.612  24.529  0.00  0.00    -0.218 N 
ATOM      4  C   LIG    1      -38.281  84.219  24.692  0.00  0.00    +0.129 A 
ATOM      5  C   LIG    1      -38.779  83.683  23.536  0.00  0.00    +0.078 A 
ENDROOT
BRANCH   3   6
ATOM      6  C   LIG    1      -38.051  86.643  25.469  0.00  0.00    +0.067 A 
ATOM      7  C   LIG    1      -37.028  87.569  25.214  0.00  0.00    +0.028 A 
ATOM      8  C   LIG    1      -36.750  88.591  26.129  0.00  0.00    +0.002 A 
ATOM      9  C   LIG    1      -37.468  88.683  27.317  0.00  0.00    +0.000 A 
ATOM     10  C   LIG    1      -38.461  87.747  27.600  0.00  0.00    +0.002 A 
ATOM     11  C   LIG    1      -38.748  86.723  26.685  0.00  0.00    +0.028 A 
ENDBRANCH   3   6
BRANCH   4  12
ATOM     12  N   LIG    1      -37.725  83.510  25.773  0.00  0.00    -0.266 N 
ATOM     13  H   LIG    1      -38.365  83.093  26.436  0.00  0.00    +0.157 HD
ATOM     14  C   LIG    1      -36.312  83.440  26.064  0.00  0.00    +0.251 C 
ATOM     15  O   LIG    1      -35.490  83.964  25.345  0.00  0.00    -0.270 OA
BRANCH  14  16
ATOM     16  C   LIG    1      -35.893  82.653  27.262  0.00  0.00    +0.056 A 
ATOM     17  C   LIG    1      -36.063  83.084  28.577  0.00  0.00    +0.056 A 
ATOM     18 CL   LIG    1      -36.797  84.585  29.010  0.00  0.00    -0.083 Cl
ATOM     19  C   LIG    1      -35.623  82.286  29.628  0.00  0.00    +0.059 A 
ATOM     20  C   LIG    1      -35.018  81.055  29.378  0.00  0.00    +0.134 A 
ATOM     21  F   LIG    1      -34.641  80.361  30.459  0.00  0.00    -0.205 F 
ATOM     22  C   LIG    1      -34.817  80.565  28.079  0.00  0.00    +0.036 A 
ATOM     23  C   LIG    1      -35.263  81.407  27.027  0.00  0.00    +0.027 A 
BRANCH  22  24
ATOM     24  C   LIG    1      -34.176  79.253  27.789  0.00  0.00    +0.074 A 
ATOM     25  N   LIG    1      -35.027  78.197  27.714  0.00  0.00    -0.255 NA
ATOM     26  C   LIG    1      -34.514  76.974  27.432  0.00  0.00    +0.111 A 
ATOM     27  C   LIG    1      -33.172  76.731  27.215  0.00  0.00    +0.020 A 
ATOM     28  C   LIG    1      -32.301  77.803  27.304  0.00  0.00    +0.004 A 
ATOM     29  C   LIG    1      -32.805  79.070  27.595  0.00  0.00    +0.028 A 
ENDBRANCH  22  24
ENDBRANCH  14  16
ENDBRANCH   4  12
BRANCH   1  31
ATOM     30  N   LIG    1      -40.826  85.138  21.030  0.00  0.00    -0.208 NA
ATOM     31  C   LIG    1      -39.671  84.640  21.326  0.00  0.00    +0.241 C 
BRANCH  30  34
ATOM     32  C   LIG    1      -42.759  82.847  20.074  0.00  0.00    +0.070 C 
ATOM     33  C   LIG    1      -42.273  84.036  19.333  0.00  0.00    +0.085 A 
ATOM     34  C   LIG    1      -41.354  85.045  19.736  0.00  0.00    +0.111 A 
ATOM     35  C   LIG    1      -41.290  85.923  18.672  0.00  0.00    +0.059 A 
ATOM     36  C   LIG    1      -40.556  87.178  18.385  0.00  0.00    +0.067 C 
ATOM     37  N   LIG    1      -42.188  85.435  17.757  0.00  0.00    -0.279 N 
ATOM     38  H   LIG    1      -42.473  85.854  16.879  0.00  0.00    +0.189 HD
ATOM     39  N   LIG    1      -42.750  84.273  18.105  0.00  0.00    -0.177 NA
ENDBRANCH  30  34
BRANCH  31  40
ATOM     40  O   LIG    1      -38.870  83.945  20.483  0.00  0.00    -0.491 OA
ATOM     41  H   LIG    1      -39.056  84.189  19.565  0.00  0.00    +0.294 HD
ENDBRANCH  31  40
ENDBRANCH   1  31
TORSDOF 7
ENDMDL
MODEL 5
REMARK VINA RESULT:      -6.6      9.667     13.002
REMARK  Name = pdb/CHEMBL3954365.pdb
REMARK                            x       y       z     vdW  Elec       q    Type
REMARK                         _______ _______ _______ _____ _____    ______ ____
ROOT
ATOM      1  C   LIG    1      -37.138  76.484  26.097  0.00  0.00    +0.149 A 
ATOM      2  N   LIG    1      -37.853  77.623  26.079  0.00  0.00    -0.160 NA
ATOM      3  N   LIG    1      -38.853  77.419  25.176  0.00  0.00    -0.218 N 
ATOM      4  C   LIG    1      -38.848  76.095  24.705  0.00  0.00    +0.129 A 
ATOM      5  C   LIG    1      -37.743  75.512  25.262  0.00  0.00    +0.078 A 
ENDROOT
BRANCH   3   6
ATOM      6  C   LIG    1      -39.749  78.483  24.842  0.00  0.00    +0.067 A 
ATOM      7  C   LIG    1      -39.393  79.467  23.909  0.00  0.00    +0.028 A 
ATOM      8  C   LIG    1      -40.292  80.485  23.570  0.00  0.00    +0.002 A 
ATOM      9  C   LIG    1      -41.542  80.547  24.177  0.00  0.00    +0.000 A 
ATOM     10  C   LIG    1      -41.894  79.597  25.134  0.00  0.00    +0.002 A 
ATOM     11  C   LIG    1      -41.000  78.572  25.475  0.00  0.00    +0.028 A 
ENDBRANCH   3   6
BRANCH   4  12
ATOM     12  N   LIG    1      -39.814  75.462  23.900  0.00  0.00    -0.266 N 
ATOM     13  H   LIG    1      -39.694  75.519  22.897  0.00  0.00    +0.157 HD
ATOM     14  C   LIG    1      -41.018  74.844  24.403  0.00  0.00    +0.251 C 
ATOM     15  O   LIG    1      -41.254  74.788  25.589  0.00  0.00    -0.270 OA
BRANCH  14  16
ATOM     16  C   LIG    1      -41.944  74.228  23.406  0.00  0.00    +0.056 A 
ATOM     17  C   LIG    1      -42.959  74.922  22.750  0.00  0.00    +0.056 A 
ATOM     18 CL   LIG    1      -43.283  76.601  22.988  0.00  0.00    -0.083 Cl
ATOM     19  C   LIG    1      -43.784  74.255  21.850  0.00  0.00    +0.059 A 
ATOM     20  C   LIG    1      -43.599  72.898  21.592  0.00  0.00    +0.134 A 
ATOM     21  F   LIG    1      -44.438  72.355  20.702  0.00  0.00    -0.205 F 
ATOM     22  C   LIG    1      -42.597  72.142  22.218  0.00  0.00    +0.036 A 
ATOM     23  C   LIG    1      -41.781  72.846  23.142  0.00  0.00    +0.027 A 
BRANCH  22  24
ATOM     24  C   LIG    1      -42.380  70.693  21.957  0.00  0.00    +0.074 A 
ATOM     25  N   LIG    1      -43.382  69.874  22.372  0.00  0.00    -0.255 NA
ATOM     26  C   LIG    1      -43.262  68.542  22.147  0.00  0.00    +0.111 A 
ATOM     27  C   LIG    1      -42.178  67.960  21.519  0.00  0.00    +0.020 A 
ATOM     28  C   LIG    1      -41.150  68.790  21.107  0.00  0.00    +0.004 A 
ATOM     29  C   LIG    1      -41.250  70.163  21.330  0.00  0.00    +0.028 A 
ENDBRANCH  22  24
ENDBRANCH  14  16
ENDBRANCH   4  12
BRANCH   1  31
ATOM     30  N   LIG    1      -35.192  77.270  27.293  0.00  0.00    -0.208 NA
ATOM     31  C   LIG    1      -35.913  76.276  26.895  0.00  0.00    +0.241 C 
BRANCH  30  34
ATOM     32  C   LIG    1      -32.263  77.864  26.309  0.00  0.00    +0.070 C 
ATOM     33  C   LIG    1      -32.732  77.404  27.639  0.00  0.00    +0.085 A 
ATOM     34  C   LIG    1      -34.045  77.077  28.076  0.00  0.00    +0.111 A 
ATOM     35  C   LIG    1      -33.912  76.740  29.408  0.00  0.00    +0.059 A 
ATOM     36  C   LIG    1      -34.834  76.304  30.483  0.00  0.00    +0.067 C 
ATOM     37  N   LIG    1      -32.584  76.939  29.690  0.00  0.00    -0.279 N 
ATOM     38  H   LIG    1      -32.120  76.868  30.590  0.00  0.00    +0.189 HD
ATOM     39  N   LIG    1      -31.843  77.283  28.632  0.00  0.00    -0.177 NA
ENDBRANCH  30  34
BRANCH  31  40
ATOM     40  O   LIG    1      -35.648  74.966  27.121  0.00  0.00    -0.491 OA
ATOM     41  H   LIG    1      -36.369  74.415  26.785  0.00  0.00    +0.294 HD
ENDBRANCH  31  40
ENDBRANCH   1  31
TORSDOF 7
ENDMDL
MODEL 6
REMARK VINA RESULT:      -6.6     18.853     21.756
REMARK  Name = pdb/CHEMBL3954365.pdb
REMARK                            x       y       z     vdW  Elec       q    Type
REMARK                         _______ _______ _______ _____ _____    ______ ____
ROOT
ATOM      1  C   LIG    1      -26.293  77.654  14.018  0.00  0.00    +0.149 A 
ATOM      2  N   LIG    1      -25.201  77.728  14.800  0.00  0.00    -0.160 NA
ATOM      3  N   LIG    1      -24.634  78.938  14.531  0.00  0.00    -0.218 N 
ATOM      4  C   LIG    1      -25.440  79.694  13.661  0.00  0.00    +0.129 A 
ATOM      5  C   LIG    1      -26.472  78.868  13.310  0.00  0.00    +0.078 A 
ENDROOT
BRANCH   3   6
ATOM      6  C   LIG    1      -23.387  79.298  15.132  0.00  0.00    +0.067 A 
ATOM      7  C   LIG    1      -22.209  78.595  14.838  0.00  0.00    +0.028 A 
ATOM      8  C   LIG    1      -20.991  78.977  15.411  0.00  0.00    +0.002 A 
ATOM      9  C   LIG    1      -20.938  80.044  16.302  0.00  0.00    +0.000 A 
ATOM     10  C   LIG    1      -22.107  80.727  16.632  0.00  0.00    +0.002 A 
ATOM     11  C   LIG    1      -23.331  80.352  16.059  0.00  0.00    +0.028 A 
ENDBRANCH   3   6
BRANCH   4  12
ATOM     12  N   LIG    1      -25.278  81.041  13.288  0.00  0.00    -0.266 N 
ATOM     13  H   LIG    1      -25.947  81.708  13.650  0.00  0.00    +0.157 HD
ATOM     14  C   LIG    1      -24.301  81.514  12.335  0.00  0.00    +0.251 C 
ATOM     15  O   LIG    1      -23.505  80.762  11.819  0.00  0.00    -0.270 OA
BRANCH  14  16
ATOM     16  C   LIG    1      -24.275  82.978  12.044  0.00  0.00    +0.056 A 
ATOM     17  C   LIG    1      -25.107  83.604  11.118  0.00  0.00    +0.056 A 
ATOM     18 CL   LIG    1      -26.299  82.777  10.182  0.00  0.00    -0.083 Cl
ATOM     19  C   LIG    1      -24.995  84.974  10.903  0.00  0.00    +0.059 A 
ATOM     20  C   LIG    1      -24.061  85.728  11.612  0.00  0.00    +0.134 A 
ATOM     21  F   LIG    1      -24.042  87.038  11.339  0.00  0.00    -0.205 F 
ATOM     22  C   LIG    1      -23.195  85.159  12.557  0.00  0.00    +0.036 A 
ATOM     23  C   LIG    1      -23.322  83.758  12.744  0.00  0.00    +0.027 A 
BRANCH  22  24
ATOM     24  C   LIG    1      -22.192  85.945  13.326  0.00  0.00    +0.074 A 
ATOM     25  N   LIG    1      -20.973  86.062  12.737  0.00  0.00    -0.255 NA
ATOM     26  C   LIG    1      -20.017  86.783  13.372  0.00  0.00    +0.111 A 
ATOM     27  C   LIG    1      -20.202  87.409  14.590  0.00  0.00    +0.020 A 
ATOM     28  C   LIG    1      -21.438  87.280  15.198  0.00  0.00    +0.004 A 
ATOM     29  C   LIG    1      -22.438  86.542  14.565  0.00  0.00    +0.028 A 
ENDBRANCH  22  24
ENDBRANCH  14  16
ENDBRANCH   4  12
BRANCH   1  31
ATOM     30  N   LIG    1      -27.035  75.584  13.019  0.00  0.00    -0.208 NA
ATOM     31  C   LIG    1      -27.186  76.481  13.935  0.00  0.00    +0.241 C 
BRANCH  30  34
ATOM     32  C   LIG    1      -29.699  75.439  11.351  0.00  0.00    +0.070 C 
ATOM     33  C   LIG    1      -29.033  74.383  12.152  0.00  0.00    +0.085 A 
ATOM     34  C   LIG    1      -27.862  74.454  12.956  0.00  0.00    +0.111 A 
ATOM     35  C   LIG    1      -27.679  73.177  13.446  0.00  0.00    +0.059 A 
ATOM     36  C   LIG    1      -26.688  72.518  14.329  0.00  0.00    +0.067 C 
ATOM     37  N   LIG    1      -28.682  72.434  12.876  0.00  0.00    -0.279 N 
ATOM     38  H   LIG    1      -28.830  71.432  12.940  0.00  0.00    +0.189 HD
ATOM     39  N   LIG    1      -29.542  73.145  12.140  0.00  0.00    -0.177 NA
ENDBRANCH  30  34
BRANCH  31  40
ATOM     40  O   LIG    1      -28.152  76.487  14.885  0.00  0.00    -0.491 OA
ATOM     41  H   LIG    1      -28.783  77.201  14.718  0.00  0.00    +0.294 HD
ENDBRANCH  31  40
ENDBRANCH   1  31
TORSDOF 7
ENDMDL
MODEL 7
REMARK VINA RESULT:      -6.5      9.098     17.185
REMARK  Name = pdb/CHEMBL3954365.pdb
REMARK                            x       y       z     vdW  Elec       q    Type
REMARK                         _______ _______ _______ _____ _____    ______ ____
ROOT
ATOM      1  C   LIG    1      -37.039  69.598  25.515  0.00  0.00    +0.149 A 
ATOM      2  N   LIG    1      -36.646  68.725  26.460  0.00  0.00    -0.160 NA
ATOM      3  N   LIG    1      -35.562  69.293  27.060  0.00  0.00    -0.218 N 
ATOM      4  C   LIG    1      -35.337  70.593  26.576  0.00  0.00    +0.129 A 
ATOM      5  C   LIG    1      -36.251  70.774  25.575  0.00  0.00    +0.078 A 
ENDROOT
BRANCH   3   6
ATOM      6  C   LIG    1      -34.833  68.572  28.059  0.00  0.00    +0.067 A 
ATOM      7  C   LIG    1      -33.983  67.511  27.714  0.00  0.00    +0.028 A 
ATOM      8  C   LIG    1      -33.254  66.836  28.700  0.00  0.00    +0.002 A 
ATOM      9  C   LIG    1      -33.386  67.192  30.038  0.00  0.00    +0.000 A 
ATOM     10  C   LIG    1      -34.257  68.219  30.398  0.00  0.00    +0.002 A 
ATOM     11  C   LIG    1      -34.987  68.903  29.415  0.00  0.00    +0.028 A 
ENDBRANCH   3   6
BRANCH   4  12
ATOM     12  N   LIG    1      -34.427  71.549  27.064  0.00  0.00    -0.266 N 
ATOM     13  H   LIG    1      -33.491  71.540  26.680  0.00  0.00    +0.157 HD
ATOM     14  C   LIG    1      -34.702  72.457  28.153  0.00  0.00    +0.251 C 
ATOM     15  O   LIG    1      -35.782  72.484  28.699  0.00  0.00    -0.270 OA
BRANCH  14  16
ATOM     16  C   LIG    1      -33.616  73.401  28.553  0.00  0.00    +0.056 A 
ATOM     17  C   LIG    1      -32.492  73.031  29.290  0.00  0.00    +0.056 A 
ATOM     18 CL   LIG    1      -32.187  71.421  29.834  0.00  0.00    -0.083 Cl
ATOM     19  C   LIG    1      -31.542  73.988  29.631  0.00  0.00    +0.059 A 
ATOM     20  C   LIG    1      -31.701  75.315  29.235  0.00  0.00    +0.134 A 
ATOM     21  F   LIG    1      -30.726  76.154  29.605  0.00  0.00    -0.205 F 
ATOM     22  C   LIG    1      -32.809  75.753  28.494  0.00  0.00    +0.036 A 
ATOM     23  C   LIG    1      -33.768  74.757  28.174  0.00  0.00    +0.027 A 
BRANCH  22  24
ATOM     24  C   LIG    1      -32.998  77.164  28.060  0.00  0.00    +0.074 A 
ATOM     25  N   LIG    1      -33.913  77.871  28.773  0.00  0.00    -0.255 NA
ATOM     26  C   LIG    1      -34.122  79.170  28.446  0.00  0.00    +0.111 A 
ATOM     27  C   LIG    1      -33.460  79.826  27.426  0.00  0.00    +0.020 A 
ATOM     28  C   LIG    1      -32.536  79.105  26.691  0.00  0.00    +0.004 A 
ATOM     29  C   LIG    1      -32.306  77.766  27.006  0.00  0.00    +0.028 A 
ENDBRANCH  22  24
ENDBRANCH  14  16
ENDBRANCH   4  12
BRANCH   1  31
ATOM     30  N   LIG    1      -38.344  70.140  23.556  0.00  0.00    -0.208 NA
ATOM     31  C   LIG    1      -38.151  69.366  24.571  0.00  0.00    +0.241 C 
BRANCH  30  34
ATOM     32  C   LIG    1      -41.203  71.440  23.756  0.00  0.00    +0.070 C 
ATOM     33  C   LIG    1      -40.649  70.545  22.711  0.00  0.00    +0.085 A 
ATOM     34  C   LIG    1      -39.380  69.905  22.642  0.00  0.00    +0.111 A 
ATOM     35  C   LIG    1      -39.384  69.218  21.444  0.00  0.00    +0.059 A 
ATOM     36  C   LIG    1      -38.424  68.350  20.724  0.00  0.00    +0.067 C 
ATOM     37  N   LIG    1      -40.589  69.528  20.865  0.00  0.00    -0.279 N 
ATOM     38  H   LIG    1      -40.922  69.269  19.942  0.00  0.00    +0.189 HD
ATOM     39  N   LIG    1      -41.390  70.276  21.629  0.00  0.00    -0.177 NA
ENDBRANCH  30  34
BRANCH  31  40
ATOM     40  O   LIG    1      -38.916  68.301  24.910  0.00  0.00    -0.491 OA
ATOM     41  H   LIG    1      -39.810  68.590  25.142  0.00  0.00    +0.294 HD
ENDBRANCH  31  40
ENDBRANCH   1  31
TORSDOF 7
ENDMDL
MODEL 8
REMARK VINA RESULT:      -6.5      8.674     11.922
REMARK  Name = pdb/CHEMBL3954365.pdb
REMARK                            x       y       z     vdW  Elec       q    Type
REMARK                         _______ _______ _______ _____ _____    ______ ____
ROOT
ATOM      1  C   LIG    1      -32.448  73.985  29.539  0.00  0.00    +0.149 A 
ATOM      2  N   LIG    1      -32.296  75.320  29.500  0.00  0.00    -0.160 NA
ATOM      3  N   LIG    1      -33.162  75.764  28.546  0.00  0.00    -0.218 N 
ATOM      4  C   LIG    1      -33.962  74.716  28.060  0.00  0.00    +0.129 A 
ATOM      5  C   LIG    1      -33.487  73.584  28.663  0.00  0.00    +0.078 A 
ENDROOT
BRANCH   3   6
ATOM      6  C   LIG    1      -33.183  77.148  28.181  0.00  0.00    +0.067 A 
ATOM      7  C   LIG    1      -32.382  77.637  27.139  0.00  0.00    +0.028 A 
ATOM      8  C   LIG    1      -32.436  78.987  26.774  0.00  0.00    +0.002 A 
ATOM      9  C   LIG    1      -33.268  79.867  27.461  0.00  0.00    +0.000 A 
ATOM     10  C   LIG    1      -34.041  79.401  28.523  0.00  0.00    +0.002 A 
ATOM     11  C   LIG    1      -33.995  78.049  28.891  0.00  0.00    +0.028 A 
ENDBRANCH   3   6
BRANCH   4  12
ATOM     12  N   LIG    1      -35.073  74.806  27.201  0.00  0.00    -0.266 N 
ATOM     13  H   LIG    1      -34.916  74.632  26.216  0.00  0.00    +0.157 HD
ATOM     14  C   LIG    1      -36.388  75.243  27.608  0.00  0.00    +0.251 C 
ATOM     15  O   LIG    1      -36.634  75.522  28.761  0.00  0.00    -0.270 OA
BRANCH  14  16
ATOM     16  C   LIG    1      -37.452  75.292  26.562  0.00  0.00    +0.056 A 
ATOM     17  C   LIG    1      -38.096  76.461  26.158  0.00  0.00    +0.056 A 
ATOM     18 CL   LIG    1      -37.743  78.024  26.800  0.00  0.00    -0.083 Cl
ATOM     19  C   LIG    1      -39.090  76.402  25.187  0.00  0.00    +0.059 A 
ATOM     20  C   LIG    1      -39.445  75.184  24.609  0.00  0.00    +0.134 A 
ATOM     21  F   LIG    1      -40.405  75.238  23.678  0.00  0.00    -0.205 F 
ATOM     22  C   LIG    1      -38.837  73.973  24.972  0.00  0.00    +0.036 A 
ATOM     23  C   LIG    1      -37.837  74.062  25.975  0.00  0.00    +0.027 A 
BRANCH  22  24
ATOM     24  C   LIG    1      -39.198  72.662  24.367  0.00  0.00    +0.074 A 
ATOM     25  N   LIG    1      -38.228  71.712  24.422  0.00  0.00    -0.255 NA
ATOM     26  C   LIG    1      -38.495  70.486  23.909  0.00  0.00    +0.111 A 
ATOM     27  C   LIG    1      -39.700  70.138  23.327  0.00  0.00    +0.020 A 
ATOM     28  C   LIG    1      -40.685  71.107  23.259  0.00  0.00    +0.004 A 
ATOM     29  C   LIG    1      -40.432  72.377  23.778  0.00  0.00    +0.028 A 
ENDBRANCH  22  24
ENDBRANCH  14  16
ENDBRANCH   4  12
BRANCH   1  31
ATOM     30  N   LIG    1      -30.456  72.727  30.076  0.00  0.00    -0.208 NA
ATOM     31  C   LIG    1      -31.658  73.076  30.393  0.00  0.00    +0.241 C 
BRANCH  30  34
ATOM     32  C   LIG    1      -28.245  73.747  32.069  0.00  0.00    +0.070 C 
ATOM     33  C   LIG    1      -28.738  72.367  31.838  0.00  0.00    +0.085 A 
ATOM     34  C   LIG    1      -29.694  71.889  30.900  0.00  0.00    +0.111 A 
ATOM     35  C   LIG    1      -29.793  70.533  31.141  0.00  0.00    +0.059 A 
ATOM     36  C   LIG    1      -30.573  69.414  30.563  0.00  0.00    +0.067 C 
ATOM     37  N   LIG    1      -28.964  70.304  32.210  0.00  0.00    -0.279 N 
ATOM     38  H   LIG    1      -28.832  69.438  32.722  0.00  0.00    +0.189 HD
ATOM     39  N   LIG    1      -28.277  71.377  32.612  0.00  0.00    -0.177 NA
ENDBRANCH  30  34
BRANCH  31  40
ATOM     40  O   LIG    1      -32.340  72.658  31.488  0.00  0.00    -0.491 OA
ATOM     41  H   LIG    1      -32.579  73.413  32.043  0.00  0.00    +0.294 HD
ENDBRANCH  31  40
ENDBRANCH   1  31
TORSDOF 7
ENDMDL
MODEL 9
REMARK VINA RESULT:      -6.4      9.734     13.156
REMARK  Name = pdb/CHEMBL3954365.pdb
REMARK                            x       y       z     vdW  Elec       q    Type
REMARK                         _______ _______ _______ _____ _____    ______ ____
ROOT
ATOM      1  C   LIG    1      -37.144  76.495  26.097  0.00  0.00    +0.149 A 
ATOM      2  N   LIG    1      -37.847  77.640  26.049  0.00  0.00    -0.160 NA
ATOM      3  N   LIG    1      -38.839  77.427  25.138  0.00  0.00    -0.218 N 
ATOM      4  C   LIG    1      -38.842  76.094  24.693  0.00  0.00    +0.129 A 
ATOM      5  C   LIG    1      -37.748  75.512  25.274  0.00  0.00    +0.078 A 
ENDROOT
BRANCH   3   6
ATOM      6  C   LIG    1      -39.722  78.492  24.773  0.00  0.00    +0.067 A 
ATOM      7  C   LIG    1      -39.296  79.534  23.936  0.00  0.00    +0.028 A 
ATOM      8  C   LIG    1      -40.180  80.553  23.563  0.00  0.00    +0.002 A 
ATOM      9  C   LIG    1      -41.485  80.560  24.043  0.00  0.00    +0.000 A 
ATOM     10  C   LIG    1      -41.910  79.552  24.907  0.00  0.00    +0.002 A 
ATOM     11  C   LIG    1      -41.031  78.525  25.281  0.00  0.00    +0.028 A 
ENDBRANCH   3   6
BRANCH   4  12
ATOM     12  N   LIG    1      -39.804  75.455  23.890  0.00  0.00    -0.266 N 
ATOM     13  H   LIG    1      -39.690  75.519  22.887  0.00  0.00    +0.157 HD
ATOM     14  C   LIG    1      -40.999  74.820  24.395  0.00  0.00    +0.251 C 
ATOM     15  O   LIG    1      -41.229  74.756  25.582  0.00  0.00    -0.270 OA
BRANCH  14  16
ATOM     16  C   LIG    1      -41.923  74.199  23.399  0.00  0.00    +0.056 A 
ATOM     17  C   LIG    1      -41.823  72.880  22.959  0.00  0.00    +0.056 A 
ATOM     18 CL   LIG    1      -40.623  71.770  23.515  0.00  0.00    -0.083 Cl
ATOM     19  C   LIG    1      -42.721  72.397  22.013  0.00  0.00    +0.059 A 
ATOM     20  C   LIG    1      -43.725  73.219  21.506  0.00  0.00    +0.134 A 
ATOM     21  F   LIG    1      -44.543  72.654  20.609  0.00  0.00    -0.205 F 
ATOM     22  C   LIG    1      -43.879  74.555  21.906  0.00  0.00    +0.036 A 
ATOM     23  C   LIG    1      -42.940  75.024  22.861  0.00  0.00    +0.027 A 
BRANCH  22  24
ATOM     24  C   LIG    1      -44.946  75.450  21.379  0.00  0.00    +0.074 A 
ATOM     25  N   LIG    1      -44.699  75.985  20.154  0.00  0.00    -0.255 NA
ATOM     26  C   LIG    1      -45.637  76.794  19.603  0.00  0.00    +0.111 A 
ATOM     27  C   LIG    1      -46.836  77.113  20.211  0.00  0.00    +0.020 A 
ATOM     28  C   LIG    1      -47.084  76.579  21.463  0.00  0.00    +0.004 A 
ATOM     29  C   LIG    1      -46.133  75.746  22.052  0.00  0.00    +0.028 A 
ENDBRANCH  22  24
ENDBRANCH  14  16
ENDBRANCH   4  12
BRANCH   1  31
ATOM     30  N   LIG    1      -35.212  77.286  27.313  0.00  0.00    -0.208 NA
ATOM     31  C   LIG    1      -35.930  76.291  26.913  0.00  0.00    +0.241 C 
BRANCH  30  34
ATOM     32  C   LIG    1      -32.265  77.818  26.346  0.00  0.00    +0.070 C 
ATOM     33  C   LIG    1      -32.754  77.397  27.681  0.00  0.00    +0.085 A 
ATOM     34  C   LIG    1      -34.076  77.098  28.112  0.00  0.00    +0.111 A 
ATOM     35  C   LIG    1      -33.962  76.792  29.454  0.00  0.00    +0.059 A 
ATOM     36  C   LIG    1      -34.900  76.395  30.528  0.00  0.00    +0.067 C 
ATOM     37  N   LIG    1      -32.634  76.980  29.745  0.00  0.00    -0.279 N 
ATOM     38  H   LIG    1      -32.180  76.926  30.651  0.00  0.00    +0.189 HD
ATOM     39  N   LIG    1      -31.877  77.288  28.687  0.00  0.00    -0.177 NA
ENDBRANCH  30  34
BRANCH  31  40
ATOM     40  O   LIG    1      -35.670  74.982  27.152  0.00  0.00    -0.491 OA
ATOM     41  H   LIG    1      -35.180  74.883  27.980  0.00  0.00    +0.294 HD
ENDBRANCH  31  40
ENDBRANCH   1  31
TORSDOF 7
ENDMDL
