MODEL 1
REMARK VINA RESULT:      -6.8      0.000      0.000
REMARK  Name = pdb/CHEMBL3661462.pdb
REMARK                            x       y       z     vdW  Elec       q    Type
REMARK                         _______ _______ _______ _____ _____    ______ ____
ROOT
ATOM      1  C   LIG    1      -22.617  82.277  14.750  0.00  0.00    +0.042 A 
ATOM      2  C   LIG    1      -22.700  80.904  14.500  0.00  0.00    +0.038 A 
ATOM      3  C   LIG    1      -22.515  79.983  15.540  0.00  0.00    +0.052 A 
ATOM      4  C   LIG    1      -22.339  80.501  16.822  0.00  0.00    +0.134 A 
ATOM      5  N   LIG    1      -22.309  81.823  17.111  0.00  0.00    -0.261 NA
ATOM      6  C   LIG    1      -22.444  82.687  16.067  0.00  0.00    +0.122 A 
ENDROOT
BRANCH   3   7
ATOM      7  N   LIG    1      -22.472  78.599  15.233  0.00  0.00    -0.284 N 
ATOM      8  H   LIG    1      -23.367  78.127  15.137  0.00  0.00    +0.155 HD
ATOM      9  C   LIG    1      -21.340  77.901  14.853  0.00  0.00    +0.222 C 
ATOM     10  O   LIG    1      -20.192  78.380  14.848  0.00  0.00    -0.275 OA
BRANCH   9  11
ATOM     11  C   LIG    1      -21.510  76.444  14.471  0.00  0.00    +0.131 C 
BRANCH  11  12
ATOM     12  C   LIG    1      -21.539  75.455  15.612  0.00  0.00    -0.039 A 
ATOM     13  C   LIG    1      -20.359  74.919  16.144  0.00  0.00    +0.004 A 
ATOM     14  C   LIG    1      -20.418  73.933  17.133  0.00  0.00    +0.012 A 
ATOM     15  C   LIG    1      -21.653  73.485  17.625  0.00  0.00    +0.055 A 
ATOM     16  C   LIG    1      -22.828  74.068  17.130  0.00  0.00    +0.012 A 
ATOM     17  C   LIG    1      -22.770  75.042  16.134  0.00  0.00    +0.004 A 
BRANCH  15  18
ATOM     18  C   LIG    1      -21.702  72.396  18.668  0.00  0.00    +0.417 C 
ATOM     19  F   LIG    1      -20.592  72.374  19.455  0.00  0.00    -0.166 F 
ATOM     20  F   LIG    1      -21.796  71.152  18.118  0.00  0.00    -0.166 F 
ATOM     21  F   LIG    1      -22.761  72.504  19.518  0.00  0.00    -0.166 F 
ENDBRANCH  15  18
ENDBRANCH  11  12
ENDBRANCH   9  11
ENDBRANCH   3   7
BRANCH   1  22
ATOM     22  C   LIG    1      -22.750  83.342  13.699  0.00  0.00    +0.197 C 
ATOM     23  O   LIG    1      -23.567  83.171  12.789  0.00  0.00    -0.287 OA
BRANCH  22  31
ATOM     24  N   LIG    1      -21.318  86.715  13.889  0.00  0.00    -0.329 N 
ATOM     25  C   LIG    1      -20.158  86.012  13.648  0.00  0.00    +0.145 A 
ATOM     26  N   LIG    1      -18.936  86.551  13.473  0.00  0.00    -0.218 NA
ATOM     27  C   LIG    1      -17.984  85.611  13.335  0.00  0.00    +0.223 A 
ATOM     28  N   LIG    1      -18.132  84.272  13.379  0.00  0.00    -0.243 NA
ATOM     29  C   LIG    1      -19.376  83.784  13.560  0.00  0.00    +0.124 A 
ATOM     30  C   LIG    1      -20.466  84.658  13.656  0.00  0.00    +0.048 A 
ATOM     31  C   LIG    1      -21.887  84.523  13.756  0.00  0.00    +0.051 A 
ATOM     32  C   LIG    1      -22.356  85.815  14.012  0.00  0.00    +0.100 A 
BRANCH  24  34
ATOM     33  C   LIG    1      -21.448  88.937  12.703  0.00  0.00    +0.030 C 
ATOM     34  C   LIG    1      -21.390  88.172  14.032  0.00  0.00    +0.083 C 
ATOM     35  C   LIG    1      -22.568  88.591  14.915  0.00  0.00    +0.030 C 
ENDBRANCH  24  34
ENDBRANCH  22  31
ENDBRANCH   1  22
TORSDOF 7
ENDMDL
MODEL 2
REMARK VINA RESULT:      -6.8     17.736     20.741
REMARK  Name = pdb/CHEMBL3661462.pdb
REMARK                            x       y       z     vdW  Elec       q    Type
REMARK                         _______ _______ _______ _____ _____    ______ ____
ROOT
ATOM      1  C   LIG    1      -33.080  73.488  29.000  0.00  0.00    +0.042 A 
ATOM      2  C   LIG    1      -34.044  73.382  27.994  0.00  0.00    +0.038 A 
ATOM      3  C   LIG    1      -34.675  72.156  27.744  0.00  0.00    +0.052 A 
ATOM      4  C   LIG    1      -34.363  71.097  28.595  0.00  0.00    +0.134 A 
ATOM      5  N   LIG    1      -33.477  71.176  29.614  0.00  0.00    -0.261 NA
ATOM      6  C   LIG    1      -32.848  72.371  29.795  0.00  0.00    +0.122 A 
ENDROOT
BRANCH   3   7
ATOM      7  N   LIG    1      -35.549  72.047  26.632  0.00  0.00    -0.284 N 
ATOM      8  H   LIG    1      -35.132  71.758  25.753  0.00  0.00    +0.155 HD
ATOM      9  C   LIG    1      -36.931  72.097  26.696  0.00  0.00    +0.222 C 
ATOM     10  O   LIG    1      -37.574  72.363  27.726  0.00  0.00    -0.275 OA
BRANCH   9  11
ATOM     11  C   LIG    1      -37.700  71.865  25.411  0.00  0.00    +0.131 C 
BRANCH  11  12
ATOM     12  C   LIG    1      -38.484  73.042  24.881  0.00  0.00    -0.039 A 
ATOM     13  C   LIG    1      -38.025  74.357  25.040  0.00  0.00    +0.004 A 
ATOM     14  C   LIG    1      -38.817  75.432  24.627  0.00  0.00    +0.012 A 
ATOM     15  C   LIG    1      -40.065  75.213  24.024  0.00  0.00    +0.055 A 
ATOM     16  C   LIG    1      -40.490  73.894  23.814  0.00  0.00    +0.012 A 
ATOM     17  C   LIG    1      -39.708  72.821  24.239  0.00  0.00    +0.004 A 
BRANCH  15  18
ATOM     18  C   LIG    1      -40.922  76.385  23.614  0.00  0.00    +0.417 C 
ATOM     19  F   LIG    1      -41.881  76.041  22.712  0.00  0.00    -0.166 F 
ATOM     20  F   LIG    1      -40.198  77.381  23.029  0.00  0.00    -0.166 F 
ATOM     21  F   LIG    1      -41.580  76.969  24.655  0.00  0.00    -0.166 F 
ENDBRANCH  15  18
ENDBRANCH  11  12
ENDBRANCH   9  11
ENDBRANCH   3   7
BRANCH   1  22
ATOM     22  C   LIG    1      -32.311  74.739  29.314  0.00  0.00    +0.197 C 
ATOM     23  O   LIG    1      -31.116  74.637  29.609  0.00  0.00    -0.287 OA
BRANCH  22  31
ATOM     24  N   LIG    1      -34.481  77.636  29.922  0.00  0.00    -0.329 N 
ATOM     25  C   LIG    1      -33.843  78.090  28.788  0.00  0.00    +0.145 A 
ATOM     26  N   LIG    1      -34.105  79.247  28.151  0.00  0.00    -0.218 NA
ATOM     27  C   LIG    1      -33.268  79.458  27.121  0.00  0.00    +0.223 A 
ATOM     28  N   LIG    1      -32.246  78.680  26.714  0.00  0.00    -0.243 NA
ATOM     29  C   LIG    1      -32.024  77.533  27.387  0.00  0.00    +0.124 A 
ATOM     30  C   LIG    1      -32.865  77.166  28.445  0.00  0.00    +0.048 A 
ATOM     31  C   LIG    1      -33.001  76.031  29.305  0.00  0.00    +0.051 A 
ATOM     32  C   LIG    1      -33.935  76.418  30.271  0.00  0.00    +0.100 A 
BRANCH  24  34
ATOM     33  C   LIG    1      -36.540  77.485  31.371  0.00  0.00    +0.030 C 
ATOM     34  C   LIG    1      -35.527  78.373  30.637  0.00  0.00    +0.083 C 
ATOM     35  C   LIG    1      -34.928  79.384  31.618  0.00  0.00    +0.030 C 
ENDBRANCH  24  34
ENDBRANCH  22  31
ENDBRANCH   1  22
TORSDOF 7
ENDMDL
MODEL 3
REMARK VINA RESULT:      -6.6      3.253      5.173
REMARK  Name = pdb/CHEMBL3661462.pdb
REMARK                            x       y       z     vdW  Elec       q    Type
REMARK                         _______ _______ _______ _____ _____    ______ ____
ROOT
ATOM      1  C   LIG    1      -20.597  81.198  15.819  0.00  0.00    +0.042 A 
ATOM      2  C   LIG    1      -20.018  80.074  16.414  0.00  0.00    +0.038 A 
ATOM      3  C   LIG    1      -18.736  79.654  16.035  0.00  0.00    +0.052 A 
ATOM      4  C   LIG    1      -18.050  80.455  15.123  0.00  0.00    +0.134 A 
ATOM      5  N   LIG    1      -18.556  81.581  14.568  0.00  0.00    -0.261 NA
ATOM      6  C   LIG    1      -19.824  81.928  14.924  0.00  0.00    +0.122 A 
ENDROOT
BRANCH   3   7
ATOM      7  N   LIG    1      -18.229  78.437  16.557  0.00  0.00    -0.284 N 
ATOM      8  H   LIG    1      -18.159  78.370  17.568  0.00  0.00    +0.155 HD
ATOM      9  C   LIG    1      -18.026  77.279  15.826  0.00  0.00    +0.222 C 
ATOM     10  O   LIG    1      -18.152  77.201  14.591  0.00  0.00    -0.275 OA
BRANCH   9  11
ATOM     11  C   LIG    1      -17.566  76.047  16.579  0.00  0.00    +0.131 C 
BRANCH  11  12
ATOM     12  C   LIG    1      -18.648  75.082  17.002  0.00  0.00    -0.039 A 
ATOM     13  C   LIG    1      -19.869  75.008  16.319  0.00  0.00    +0.004 A 
ATOM     14  C   LIG    1      -20.889  74.176  16.790  0.00  0.00    +0.012 A 
ATOM     15  C   LIG    1      -20.698  73.384  17.932  0.00  0.00    +0.055 A 
ATOM     16  C   LIG    1      -19.452  73.418  18.575  0.00  0.00    +0.012 A 
ATOM     17  C   LIG    1      -18.440  74.258  18.114  0.00  0.00    +0.004 A 
BRANCH  15  18
ATOM     18  C   LIG    1      -21.819  72.517  18.448  0.00  0.00    +0.417 C 
ATOM     19  F   LIG    1      -22.895  73.242  18.860  0.00  0.00    -0.166 F 
ATOM     20  F   LIG    1      -21.443  71.763  19.519  0.00  0.00    -0.166 F 
ATOM     21  F   LIG    1      -22.293  71.635  17.524  0.00  0.00    -0.166 F 
ENDBRANCH  15  18
ENDBRANCH  11  12
ENDBRANCH   9  11
ENDBRANCH   3   7
BRANCH   1  22
ATOM     22  C   LIG    1      -21.981  81.700  16.117  0.00  0.00    +0.197 C 
ATOM     23  O   LIG    1      -22.162  82.345  17.155  0.00  0.00    -0.287 OA
BRANCH  22  31
ATOM     24  N   LIG    1      -24.510  81.620  13.459  0.00  0.00    -0.329 N 
ATOM     25  C   LIG    1      -24.934  80.525  14.179  0.00  0.00    +0.145 A 
ATOM     26  N   LIG    1      -26.027  79.786  13.912  0.00  0.00    -0.218 NA
ATOM     27  C   LIG    1      -26.140  78.734  14.741  0.00  0.00    +0.223 A 
ATOM     28  N   LIG    1      -25.301  78.365  15.729  0.00  0.00    -0.243 NA
ATOM     29  C   LIG    1      -24.219  79.138  15.954  0.00  0.00    +0.124 A 
ATOM     30  C   LIG    1      -24.018  80.300  15.198  0.00  0.00    +0.048 A 
ATOM     31  C   LIG    1      -23.078  81.379  15.202  0.00  0.00    +0.051 A 
ATOM     32  C   LIG    1      -23.355  82.105  14.039  0.00  0.00    +0.100 A 
BRANCH  24  34
ATOM     33  C   LIG    1      -24.900  83.608  11.956  0.00  0.00    +0.030 C 
ATOM     34  C   LIG    1      -25.173  82.128  12.254  0.00  0.00    +0.083 C 
ATOM     35  C   LIG    1      -24.822  81.285  11.025  0.00  0.00    +0.030 C 
ENDBRANCH  24  34
ENDBRANCH  22  31
ENDBRANCH   1  22
TORSDOF 7
ENDMDL
MODEL 4
REMARK VINA RESULT:      -6.5     19.528     22.847
REMARK  Name = pdb/CHEMBL3661462.pdb
REMARK                            x       y       z     vdW  Elec       q    Type
REMARK                         _______ _______ _______ _____ _____    ______ ____
ROOT
ATOM      1  C   LIG    1      -39.081  67.952  20.295  0.00  0.00    +0.042 A 
ATOM      2  C   LIG    1      -39.501  69.134  20.913  0.00  0.00    +0.038 A 
ATOM      3  C   LIG    1      -40.748  69.196  21.549  0.00  0.00    +0.052 A 
ATOM      4  C   LIG    1      -41.487  68.015  21.611  0.00  0.00    +0.134 A 
ATOM      5  N   LIG    1      -41.088  66.839  21.074  0.00  0.00    -0.261 NA
ATOM      6  C   LIG    1      -39.893  66.831  20.421  0.00  0.00    +0.122 A 
ENDROOT
BRANCH   3   7
ATOM      7  N   LIG    1      -41.203  70.441  22.049  0.00  0.00    -0.284 N 
ATOM      8  H   LIG    1      -41.661  71.058  21.384  0.00  0.00    +0.155 HD
ATOM      9  C   LIG    1      -41.263  70.790  23.387  0.00  0.00    +0.222 C 
ATOM     10  O   LIG    1      -40.812  70.093  24.312  0.00  0.00    -0.275 OA
BRANCH   9  11
ATOM     11  C   LIG    1      -41.871  72.135  23.734  0.00  0.00    +0.131 C 
BRANCH  11  12
ATOM     12  C   LIG    1      -40.901  73.278  23.918  0.00  0.00    -0.039 A 
ATOM     13  C   LIG    1      -39.608  73.065  24.413  0.00  0.00    +0.004 A 
ATOM     14  C   LIG    1      -38.764  74.151  24.666  0.00  0.00    +0.012 A 
ATOM     15  C   LIG    1      -39.188  75.463  24.404  0.00  0.00    +0.055 A 
ATOM     16  C   LIG    1      -40.461  75.663  23.852  0.00  0.00    +0.012 A 
ATOM     17  C   LIG    1      -41.308  74.582  23.613  0.00  0.00    +0.004 A 
BRANCH  15  18
ATOM     18  C   LIG    1      -38.279  76.627  24.713  0.00  0.00    +0.417 C 
ATOM     19  F   LIG    1      -36.986  76.246  24.902  0.00  0.00    -0.166 F 
ATOM     20  F   LIG    1      -38.645  77.286  25.849  0.00  0.00    -0.166 F 
ATOM     21  F   LIG    1      -38.251  77.571  23.731  0.00  0.00    -0.166 F 
ENDBRANCH  15  18
ENDBRANCH  11  12
ENDBRANCH   9  11
ENDBRANCH   3   7
BRANCH   1  22
ATOM     22  C   LIG    1      -37.789  67.798  19.545  0.00  0.00    +0.197 C 
ATOM     23  O   LIG    1      -37.796  67.961  18.321  0.00  0.00    -0.287 OA
BRANCH  22  31
ATOM     24  N   LIG    1      -34.573  66.424  20.658  0.00  0.00    -0.329 N 
ATOM     25  C   LIG    1      -34.971  67.003  21.843  0.00  0.00    +0.145 A 
ATOM     26  N   LIG    1      -34.307  66.930  23.012  0.00  0.00    -0.218 NA
ATOM     27  C   LIG    1      -34.898  67.660  23.974  0.00  0.00    +0.223 A 
ATOM     28  N   LIG    1      -36.003  68.424  23.871  0.00  0.00    -0.243 NA
ATOM     29  C   LIG    1      -36.629  68.465  22.677  0.00  0.00    +0.124 A 
ATOM     30  C   LIG    1      -36.149  67.699  21.608  0.00  0.00    +0.048 A 
ATOM     31  C   LIG    1      -36.574  67.419  20.270  0.00  0.00    +0.051 A 
ATOM     32  C   LIG    1      -35.511  66.722  19.690  0.00  0.00    +0.100 A 
BRANCH  24  34
ATOM     33  C   LIG    1      -33.485  64.378  19.661  0.00  0.00    +0.030 C 
ATOM     34  C   LIG    1      -33.331  65.666  20.481  0.00  0.00    +0.083 C 
ATOM     35  C   LIG    1      -32.229  66.533  19.867  0.00  0.00    +0.030 C 
ENDBRANCH  24  34
ENDBRANCH  22  31
ENDBRANCH   1  22
TORSDOF 7
ENDMDL
MODEL 5
REMARK VINA RESULT:      -6.4     19.074     21.581
REMARK  Name = pdb/CHEMBL3661462.pdb
REMARK                            x       y       z     vdW  Elec       q    Type
REMARK                         _______ _______ _______ _____ _____    ______ ____
ROOT
ATOM      1  C   LIG    1      -34.153  75.041  29.156  0.00  0.00    +0.042 A 
ATOM      2  C   LIG    1      -34.964  75.140  28.022  0.00  0.00    +0.038 A 
ATOM      3  C   LIG    1      -34.952  76.303  27.241  0.00  0.00    +0.052 A 
ATOM      4  C   LIG    1      -34.040  77.296  27.597  0.00  0.00    +0.134 A 
ATOM      5  N   LIG    1      -33.199  77.213  28.655  0.00  0.00    -0.261 NA
ATOM      6  C   LIG    1      -33.275  76.088  29.418  0.00  0.00    +0.122 A 
ENDROOT
BRANCH   3   7
ATOM      7  N   LIG    1      -35.881  76.427  26.177  0.00  0.00    -0.284 N 
ATOM      8  H   LIG    1      -35.545  76.180  25.251  0.00  0.00    +0.155 HD
ATOM      9  C   LIG    1      -37.238  76.649  26.325  0.00  0.00    +0.222 C 
ATOM     10  O   LIG    1      -37.794  76.886  27.412  0.00  0.00    -0.275 OA
BRANCH   9  11
ATOM     11  C   LIG    1      -38.088  76.656  25.070  0.00  0.00    +0.131 C 
BRANCH  11  12
ATOM     12  C   LIG    1      -38.808  75.369  24.744  0.00  0.00    -0.039 A 
ATOM     13  C   LIG    1      -38.211  74.122  24.969  0.00  0.00    +0.004 A 
ATOM     14  C   LIG    1      -38.860  72.950  24.567  0.00  0.00    +0.012 A 
ATOM     15  C   LIG    1      -40.124  73.002  23.962  0.00  0.00    +0.055 A 
ATOM     16  C   LIG    1      -40.741  74.250  23.796  0.00  0.00    +0.012 A 
ATOM     17  C   LIG    1      -40.089  75.420  24.182  0.00  0.00    +0.004 A 
BRANCH  15  18
ATOM     18  C   LIG    1      -40.797  71.732  23.505  0.00  0.00    +0.417 C 
ATOM     19  F   LIG    1      -41.535  71.147  24.487  0.00  0.00    -0.166 F 
ATOM     20  F   LIG    1      -39.903  70.787  23.096  0.00  0.00    -0.166 F 
ATOM     21  F   LIG    1      -41.647  71.914  22.455  0.00  0.00    -0.166 F 
ENDBRANCH  15  18
ENDBRANCH  11  12
ENDBRANCH   9  11
ENDBRANCH   3   7
BRANCH   1  22
ATOM     22  C   LIG    1      -34.129  73.862  30.085  0.00  0.00    +0.197 C 
ATOM     23  O   LIG    1      -34.753  73.938  31.149  0.00  0.00    -0.287 OA
BRANCH  22  31
ATOM     24  N   LIG    1      -32.885  70.618  28.902  0.00  0.00    -0.329 N 
ATOM     25  C   LIG    1      -31.745  71.056  29.540  0.00  0.00    +0.145 A 
ATOM     26  N   LIG    1      -30.606  70.351  29.681  0.00  0.00    -0.218 NA
ATOM     27  C   LIG    1      -29.640  71.068  30.280  0.00  0.00    +0.223 A 
ATOM     28  N   LIG    1      -29.699  72.348  30.698  0.00  0.00    -0.243 NA
ATOM     29  C   LIG    1      -30.862  73.010  30.532  0.00  0.00    +0.124 A 
ATOM     30  C   LIG    1      -31.968  72.355  29.975  0.00  0.00    +0.048 A 
ATOM     31  C   LIG    1      -33.339  72.680  29.731  0.00  0.00    +0.051 A 
ATOM     32  C   LIG    1      -33.832  71.620  28.964  0.00  0.00    +0.100 A 
BRANCH  24  34
ATOM     33  C   LIG    1      -33.457  68.176  29.161  0.00  0.00    +0.030 C 
ATOM     34  C   LIG    1      -33.017  69.318  28.237  0.00  0.00    +0.083 C 
ATOM     35  C   LIG    1      -33.962  69.398  27.035  0.00  0.00    +0.030 C 
ENDBRANCH  24  34
ENDBRANCH  22  31
ENDBRANCH   1  22
TORSDOF 7
ENDMDL
MODEL 6
REMARK VINA RESULT:      -6.3     18.258     21.685
REMARK  Name = pdb/CHEMBL3661462.pdb
REMARK                            x       y       z     vdW  Elec       q    Type
REMARK                         _______ _______ _______ _____ _____    ______ ____
ROOT
ATOM      1  C   LIG    1      -36.826  70.216  25.662  0.00  0.00    +0.042 A 
ATOM      2  C   LIG    1      -35.738  70.861  26.258  0.00  0.00    +0.038 A 
ATOM      3  C   LIG    1      -35.312  70.492  27.541  0.00  0.00    +0.052 A 
ATOM      4  C   LIG    1      -35.958  69.409  28.136  0.00  0.00    +0.134 A 
ATOM      5  N   LIG    1      -36.977  68.725  27.567  0.00  0.00    -0.261 NA
ATOM      6  C   LIG    1      -37.395  69.145  26.341  0.00  0.00    +0.122 A 
ENDROOT
BRANCH   3   7
ATOM      7  N   LIG    1      -34.295  71.251  28.173  0.00  0.00    -0.284 N 
ATOM      8  H   LIG    1      -33.358  71.163  27.790  0.00  0.00    +0.155 HD
ATOM      9  C   LIG    1      -34.508  72.242  29.115  0.00  0.00    +0.222 C 
ATOM     10  O   LIG    1      -35.616  72.509  29.611  0.00  0.00    -0.275 OA
BRANCH   9  11
ATOM     11  C   LIG    1      -33.299  73.011  29.608  0.00  0.00    +0.131 C 
BRANCH  11  12
ATOM     12  C   LIG    1      -33.044  74.347  28.951  0.00  0.00    -0.039 A 
ATOM     13  C   LIG    1      -32.010  75.189  29.384  0.00  0.00    +0.004 A 
ATOM     14  C   LIG    1      -31.858  76.461  28.825  0.00  0.00    +0.012 A 
ATOM     15  C   LIG    1      -32.716  76.903  27.807  0.00  0.00    +0.055 A 
ATOM     16  C   LIG    1      -33.711  76.033  27.337  0.00  0.00    +0.012 A 
ATOM     17  C   LIG    1      -33.872  74.770  27.904  0.00  0.00    +0.004 A 
BRANCH  15  18
ATOM     18  C   LIG    1      -32.561  78.291  27.236  0.00  0.00    +0.417 C 
ATOM     19  F   LIG    1      -31.624  79.026  27.895  0.00  0.00    -0.166 F 
ATOM     20  F   LIG    1      -33.716  79.013  27.300  0.00  0.00    -0.166 F 
ATOM     21  F   LIG    1      -32.191  78.301  25.924  0.00  0.00    -0.166 F 
ENDBRANCH  15  18
ENDBRANCH  11  12
ENDBRANCH   9  11
ENDBRANCH   3   7
BRANCH   1  22
ATOM     22  C   LIG    1      -37.390  70.570  24.316  0.00  0.00    +0.197 C 
ATOM     23  O   LIG    1      -36.828  70.130  23.308  0.00  0.00    -0.287 OA
BRANCH  22  31
ATOM     24  N   LIG    1      -40.687  72.098  23.804  0.00  0.00    -0.329 N 
ATOM     25  C   LIG    1      -39.986  73.232  24.151  0.00  0.00    +0.145 A 
ATOM     26  N   LIG    1      -40.481  74.485  24.171  0.00  0.00    -0.218 NA
ATOM     27  C   LIG    1      -39.583  75.375  24.628  0.00  0.00    +0.223 A 
ATOM     28  N   LIG    1      -38.330  75.137  25.060  0.00  0.00    -0.243 NA
ATOM     29  C   LIG    1      -37.883  73.865  25.022  0.00  0.00    +0.124 A 
ATOM     30  C   LIG    1      -38.700  72.850  24.509  0.00  0.00    +0.048 A 
ATOM     31  C   LIG    1      -38.554  71.454  24.232  0.00  0.00    +0.051 A 
ATOM     32  C   LIG    1      -39.841  71.013  23.907  0.00  0.00    +0.100 A 
BRANCH  24  34
ATOM     33  C   LIG    1      -42.371  71.898  21.937  0.00  0.00    +0.030 C 
ATOM     34  C   LIG    1      -42.107  72.080  23.437  0.00  0.00    +0.083 C 
ATOM     35  C   LIG    1      -42.874  71.016  24.225  0.00  0.00    +0.030 C 
ENDBRANCH  24  34
ENDBRANCH  22  31
ENDBRANCH   1  22
TORSDOF 7
ENDMDL
MODEL 7
REMARK VINA RESULT:      -6.3     17.902     20.624
REMARK  Name = pdb/CHEMBL3661462.pdb
REMARK                            x       y       z     vdW  Elec       q    Type
REMARK                         _______ _______ _______ _____ _____    ______ ____
ROOT
ATOM      1  C   LIG    1      -33.468  72.235  29.235  0.00  0.00    +0.042 A 
ATOM      2  C   LIG    1      -34.476  71.637  28.474  0.00  0.00    +0.038 A 
ATOM      3  C   LIG    1      -34.298  70.350  27.949  0.00  0.00    +0.052 A 
ATOM      4  C   LIG    1      -33.126  69.680  28.299  0.00  0.00    +0.134 A 
ATOM      5  N   LIG    1      -32.153  70.205  29.079  0.00  0.00    -0.261 NA
ATOM      6  C   LIG    1      -32.341  71.476  29.529  0.00  0.00    +0.122 A 
ENDROOT
BRANCH   3   7
ATOM      7  N   LIG    1      -35.279  69.823  27.072  0.00  0.00    -0.284 N 
ATOM      8  H   LIG    1      -36.213  69.704  27.453  0.00  0.00    +0.155 HD
ATOM      9  C   LIG    1      -35.122  69.659  25.707  0.00  0.00    +0.222 C 
ATOM     10  O   LIG    1      -34.055  69.845  25.098  0.00  0.00    -0.275 OA
BRANCH   9  11
ATOM     11  C   LIG    1      -36.320  69.168  24.919  0.00  0.00    +0.131 C 
BRANCH  11  12
ATOM     12  C   LIG    1      -37.371  70.201  24.588  0.00  0.00    -0.039 A 
ATOM     13  C   LIG    1      -37.151  71.566  24.819  0.00  0.00    +0.004 A 
ATOM     14  C   LIG    1      -38.175  72.491  24.595  0.00  0.00    +0.012 A 
ATOM     15  C   LIG    1      -39.424  72.073  24.111  0.00  0.00    +0.055 A 
ATOM     16  C   LIG    1      -39.617  70.714  23.825  0.00  0.00    +0.012 A 
ATOM     17  C   LIG    1      -38.601  69.790  24.062  0.00  0.00    +0.004 A 
BRANCH  15  18
ATOM     18  C   LIG    1      -40.530  73.079  23.906  0.00  0.00    +0.417 C 
ATOM     19  F   LIG    1      -41.329  73.208  25.000  0.00  0.00    -0.166 F 
ATOM     20  F   LIG    1      -41.357  72.740  22.876  0.00  0.00    -0.166 F 
ATOM     21  F   LIG    1      -40.079  74.333  23.621  0.00  0.00    -0.166 F 
ENDBRANCH  15  18
ENDBRANCH  11  12
ENDBRANCH   9  11
ENDBRANCH   3   7
BRANCH   1  22
ATOM     22  C   LIG    1      -33.540  73.626  29.798  0.00  0.00    +0.197 C 
ATOM     23  O   LIG    1      -33.269  73.791  30.992  0.00  0.00    -0.287 OA
BRANCH  22  31
ATOM     24  N   LIG    1      -35.322  75.956  27.595  0.00  0.00    -0.329 N 
ATOM     25  C   LIG    1      -34.084  76.561  27.575  0.00  0.00    +0.145 A 
ATOM     26  N   LIG    1      -33.751  77.642  26.845  0.00  0.00    -0.218 NA
ATOM     27  C   LIG    1      -32.495  78.051  27.094  0.00  0.00    +0.223 A 
ATOM     28  N   LIG    1      -31.612  77.527  27.966  0.00  0.00    -0.243 NA
ATOM     29  C   LIG    1      -31.996  76.446  28.675  0.00  0.00    +0.124 A 
ATOM     30  C   LIG    1      -33.261  75.883  28.465  0.00  0.00    +0.048 A 
ATOM     31  C   LIG    1      -33.966  74.731  28.938  0.00  0.00    +0.051 A 
ATOM     32  C   LIG    1      -35.271  74.884  28.462  0.00  0.00    +0.100 A 
BRANCH  24  34
ATOM     33  C   LIG    1      -37.437  75.318  26.378  0.00  0.00    +0.030 C 
ATOM     34  C   LIG    1      -36.488  76.430  26.843  0.00  0.00    +0.083 C 
ATOM     35  C   LIG    1      -37.277  77.477  27.634  0.00  0.00    +0.030 C 
ENDBRANCH  24  34
ENDBRANCH  22  31
ENDBRANCH   1  22
TORSDOF 7
ENDMDL
MODEL 8
REMARK VINA RESULT:      -6.3     16.926     20.256
REMARK  Name = pdb/CHEMBL3661462.pdb
REMARK                            x       y       z     vdW  Elec       q    Type
REMARK                         _______ _______ _______ _____ _____    ______ ____
ROOT
ATOM      1  C   LIG    1      -20.298  76.905  30.565  0.00  0.00    +0.042 A 
ATOM      2  C   LIG    1      -20.207  77.782  31.651  0.00  0.00    +0.038 A 
ATOM      3  C   LIG    1      -18.956  78.124  32.182  0.00  0.00    +0.052 A 
ATOM      4  C   LIG    1      -17.831  77.627  31.525  0.00  0.00    +0.134 A 
ATOM      5  N   LIG    1      -17.878  76.822  30.438  0.00  0.00    -0.261 NA
ATOM      6  C   LIG    1      -19.113  76.472  29.982  0.00  0.00    +0.122 A 
ENDROOT
BRANCH   3   7
ATOM      7  N   LIG    1      -18.902  78.906  33.363  0.00  0.00    -0.284 N 
ATOM      8  H   LIG    1      -19.061  79.904  33.255  0.00  0.00    +0.155 HD
ATOM      9  C   LIG    1      -18.860  78.404  34.652  0.00  0.00    +0.222 C 
ATOM     10  O   LIG    1      -18.746  77.197  34.928  0.00  0.00    -0.275 OA
BRANCH   9  11
ATOM     11  C   LIG    1      -18.902  79.399  35.794  0.00  0.00    +0.131 C 
BRANCH  11  12
ATOM     12  C   LIG    1      -20.254  79.993  36.113  0.00  0.00    -0.039 A 
ATOM     13  C   LIG    1      -21.434  79.437  35.601  0.00  0.00    +0.004 A 
ATOM     14  C   LIG    1      -22.663  80.063  35.832  0.00  0.00    +0.012 A 
ATOM     15  C   LIG    1      -22.737  81.236  36.599  0.00  0.00    +0.055 A 
ATOM     16  C   LIG    1      -21.559  81.752  37.157  0.00  0.00    +0.012 A 
ATOM     17  C   LIG    1      -20.332  81.137  36.915  0.00  0.00    +0.004 A 
BRANCH  15  18
ATOM     18  C   LIG    1      -24.066  81.918  36.811  0.00  0.00    +0.417 C 
ATOM     19  F   LIG    1      -24.098  83.175  36.290  0.00  0.00    -0.166 F 
ATOM     20  F   LIG    1      -24.377  82.051  38.131  0.00  0.00    -0.166 F 
ATOM     21  F   LIG    1      -25.114  81.253  36.249  0.00  0.00    -0.166 F 
ENDBRANCH  15  18
ENDBRANCH  11  12
ENDBRANCH   9  11
ENDBRANCH   3   7
BRANCH   1  22
ATOM     22  C   LIG    1      -21.588  76.438  29.956  0.00  0.00    +0.197 C 
ATOM     23  O   LIG    1      -21.713  76.494  28.728  0.00  0.00    -0.287 OA
BRANCH  22  31
ATOM     24  N   LIG    1      -23.768  74.640  32.297  0.00  0.00    -0.329 N 
ATOM     25  C   LIG    1      -24.661  75.604  31.882  0.00  0.00    +0.145 A 
ATOM     26  N   LIG    1      -25.954  75.686  32.252  0.00  0.00    -0.218 NA
ATOM     27  C   LIG    1      -26.554  76.779  31.748  0.00  0.00    +0.223 A 
ATOM     28  N   LIG    1      -26.008  77.743  30.982  0.00  0.00    -0.243 NA
ATOM     29  C   LIG    1      -24.709  77.615  30.643  0.00  0.00    +0.124 A 
ATOM     30  C   LIG    1      -23.985  76.488  31.052  0.00  0.00    +0.048 A 
ATOM     31  C   LIG    1      -22.670  75.972  30.825  0.00  0.00    +0.051 A 
ATOM     32  C   LIG    1      -22.547  74.893  31.705  0.00  0.00    +0.100 A 
BRANCH  24  34
ATOM     33  C   LIG    1      -23.447  72.215  32.910  0.00  0.00    +0.030 C 
ATOM     34  C   LIG    1      -24.086  73.569  33.246  0.00  0.00    +0.083 C 
ATOM     35  C   LIG    1      -23.721  73.965  34.679  0.00  0.00    +0.030 C 
ENDBRANCH  24  34
ENDBRANCH  22  31
ENDBRANCH   1  22
TORSDOF 7
ENDMDL
MODEL 9
REMARK VINA RESULT:      -6.3     19.139     21.437
REMARK  Name = pdb/CHEMBL3661462.pdb
REMARK                            x       y       z     vdW  Elec       q    Type
REMARK                         _______ _______ _______ _____ _____    ______ ____
ROOT
ATOM      1  C   LIG    1      -39.242  73.359  24.410  0.00  0.00    +0.042 A 
ATOM      2  C   LIG    1      -38.120  73.910  25.037  0.00  0.00    +0.038 A 
ATOM      3  C   LIG    1      -37.988  75.300  25.158  0.00  0.00    +0.052 A 
ATOM      4  C   LIG    1      -39.056  76.079  24.713  0.00  0.00    +0.134 A 
ATOM      5  N   LIG    1      -40.181  75.579  24.153  0.00  0.00    -0.261 NA
ATOM      6  C   LIG    1      -40.251  74.226  24.008  0.00  0.00    +0.122 A 
ENDROOT
BRANCH   3   7
ATOM      7  N   LIG    1      -36.781  75.833  25.676  0.00  0.00    -0.284 N 
ATOM      8  H   LIG    1      -36.087  76.130  24.997  0.00  0.00    +0.155 HD
ATOM      9  C   LIG    1      -36.563  76.172  27.000  0.00  0.00    +0.222 C 
ATOM     10  O   LIG    1      -37.362  75.939  27.923  0.00  0.00    -0.275 OA
BRANCH   9  11
ATOM     11  C   LIG    1      -35.237  76.820  27.347  0.00  0.00    +0.131 C 
BRANCH  11  12
ATOM     12  C   LIG    1      -34.193  75.917  27.960  0.00  0.00    -0.039 A 
ATOM     13  C   LIG    1      -34.326  74.522  27.930  0.00  0.00    +0.004 A 
ATOM     14  C   LIG    1      -33.395  73.713  28.590  0.00  0.00    +0.012 A 
ATOM     15  C   LIG    1      -32.305  74.281  29.265  0.00  0.00    +0.055 A 
ATOM     16  C   LIG    1      -32.146  75.673  29.240  0.00  0.00    +0.012 A 
ATOM     17  C   LIG    1      -33.081  76.481  28.595  0.00  0.00    +0.004 A 
BRANCH  15  18
ATOM     18  C   LIG    1      -31.328  73.397  30.001  0.00  0.00    +0.417 C 
ATOM     19  F   LIG    1      -30.380  74.107  30.670  0.00  0.00    -0.166 F 
ATOM     20  F   LIG    1      -30.648  72.563  29.163  0.00  0.00    -0.166 F 
ATOM     21  F   LIG    1      -31.916  72.590  30.928  0.00  0.00    -0.166 F 
ENDBRANCH  15  18
ENDBRANCH  11  12
ENDBRANCH   9  11
ENDBRANCH   3   7
BRANCH   1  22
ATOM     22  C   LIG    1      -39.454  71.889  24.186  0.00  0.00    +0.197 C 
ATOM     23  O   LIG    1      -40.556  71.510  23.776  0.00  0.00    -0.287 OA
BRANCH  22  31
ATOM     24  N   LIG    1      -36.744  69.935  25.704  0.00  0.00    -0.329 N 
ATOM     25  C   LIG    1      -36.685  69.414  24.430  0.00  0.00    +0.145 A 
ATOM     26  N   LIG    1      -35.784  68.514  23.992  0.00  0.00    -0.218 NA
ATOM     27  C   LIG    1      -36.026  68.134  22.725  0.00  0.00    +0.223 A 
ATOM     28  N   LIG    1      -37.033  68.526  21.922  0.00  0.00    -0.243 NA
ATOM     29  C   LIG    1      -37.910  69.427  22.410  0.00  0.00    +0.124 A 
ATOM     30  C   LIG    1      -37.735  69.950  23.697  0.00  0.00    +0.048 A 
ATOM     31  C   LIG    1      -38.375  70.949  24.497  0.00  0.00    +0.051 A 
ATOM     32  C   LIG    1      -37.801  70.820  25.765  0.00  0.00    +0.100 A 
BRANCH  24  34
ATOM     33  C   LIG    1      -34.811  70.621  27.172  0.00  0.00    +0.030 C 
ATOM     34  C   LIG    1      -35.847  69.552  26.799  0.00  0.00    +0.083 C 
ATOM     35  C   LIG    1      -36.632  69.143  28.048  0.00  0.00    +0.030 C 
ENDBRANCH  24  34
ENDBRANCH  22  31
ENDBRANCH   1  22
TORSDOF 7
ENDMDL
