MODEL 1
REMARK VINA RESULT:      -6.6      0.000      0.000
REMARK  Name = pdb/CHEMBL3956053.pdb
REMARK                            x       y       z     vdW  Elec       q    Type
REMARK                         _______ _______ _______ _____ _____    ______ ____
ROOT
ATOM      1  C   LIG    1      -22.203  82.695  15.833  0.00  0.00    +0.131 C 
ATOM      2  N   LIG    1      -20.990  82.286  16.233  0.00  0.00    -0.141 NA
ATOM      3  N   LIG    1      -20.978  80.957  16.008  0.00  0.00    -0.201 N 
ATOM      4  C   LIG    1      -22.254  80.461  15.747  0.00  0.00    +0.185 C 
ATOM      5  C   LIG    1      -23.056  81.582  15.625  0.00  0.00    +0.056 C 
ENDROOT
BRANCH   3   6
ATOM      6  C   LIG    1      -19.727  80.294  15.963  0.00  0.00    +0.052 A 
ATOM      7  C   LIG    1      -19.499  79.140  16.719  0.00  0.00    +0.025 A 
ATOM      8  C   LIG    1      -18.304  78.434  16.556  0.00  0.00    +0.002 A 
ATOM      9  C   LIG    1      -17.333  78.886  15.660  0.00  0.00    +0.000 A 
ATOM     10  C   LIG    1      -17.560  80.036  14.906  0.00  0.00    +0.002 A 
ATOM     11  C   LIG    1      -18.762  80.729  15.040  0.00  0.00    +0.025 A 
ENDBRANCH   3   6
BRANCH   4  12
ATOM     12  N   LIG    1      -22.639  79.115  15.663  0.00  0.00    -0.282 N 
ATOM     13  H   LIG    1      -23.160  78.742  16.459  0.00  0.00    +0.152 HD
ATOM     14  C   LIG    1      -22.368  78.256  14.536  0.00  0.00    +0.247 C 
ATOM     15  O   LIG    1      -21.699  78.667  13.589  0.00  0.00    -0.270 OA
BRANCH  14  16
ATOM     16  C   LIG    1      -22.888  76.866  14.542  0.00  0.00    +0.056 A 
ATOM     17  C   LIG    1      -23.841  76.386  13.635  0.00  0.00    +0.054 A 
ATOM     18 CL   LIG    1      -24.459  77.297  12.313  0.00  0.00    -0.083 Cl
ATOM     19  C   LIG    1      -24.374  75.110  13.803  0.00  0.00    +0.041 A 
ATOM     20  C   LIG    1      -23.951  74.271  14.842  0.00  0.00    +0.052 A 
ATOM     21 CL   LIG    1      -24.858  72.803  14.999  0.00  0.00    -0.083 Cl
ATOM     22  C   LIG    1      -22.915  74.659  15.715  0.00  0.00    +0.019 A 
ATOM     23  C   LIG    1      -22.437  75.989  15.562  0.00  0.00    +0.026 A 
BRANCH  22  24
ATOM     24  C   LIG    1      -22.306  73.769  16.745  0.00  0.00    +0.072 A 
ATOM     25  N   LIG    1      -21.175  73.118  16.367  0.00  0.00    -0.255 NA
ATOM     26  C   LIG    1      -20.599  72.270  17.258  0.00  0.00    +0.111 A 
ATOM     27  C   LIG    1      -21.089  72.026  18.529  0.00  0.00    +0.020 A 
ATOM     28  C   LIG    1      -22.250  72.676  18.906  0.00  0.00    +0.004 A 
ATOM     29  C   LIG    1      -22.875  73.531  18.000  0.00  0.00    +0.028 A 
ENDBRANCH  22  24
ENDBRANCH  14  16
ENDBRANCH   4  12
BRANCH   1  30
ATOM     30  C   LIG    1      -22.497  84.116  15.656  0.00  0.00    +0.233 C 
ATOM     31  N   LIG    1      -22.209  84.720  14.559  0.00  0.00    -0.246 NA
BRANCH  30  32
ATOM     32  O   LIG    1      -23.036  84.699  16.749  0.00  0.00    -0.491 OA
ATOM     33  H   LIG    1      -22.645  84.394  17.575  0.00  0.00    +0.294 HD
ENDBRANCH  30  32
BRANCH  31  34
ATOM     34  C   LIG    1      -22.576  86.135  14.399  0.00  0.00    +0.184 C 
BRANCH  34  35
ATOM     35  C   LIG    1      -21.362  87.005  14.743  0.00  0.00    +0.132 C 
ATOM     36  C   LIG    1      -21.171  88.218  13.808  0.00  0.00    +0.198 C 
ATOM     37  O   LIG    1      -20.164  87.508  13.037  0.00  0.00    -0.374 OA
ATOM     38  C   LIG    1      -20.049  86.519  14.094  0.00  0.00    +0.198 C 
BRANCH  35  39
ATOM     39  O   LIG    1      -21.313  87.274  16.167  0.00  0.00    -0.382 OA
ATOM     40  H   LIG    1      -22.131  86.863  16.503  0.00  0.00    +0.210 HD
ENDBRANCH  35  39
ENDBRANCH  34  35
ENDBRANCH  31  34
ENDBRANCH   1  30
TORSDOF 9
ENDMDL
MODEL 2
REMARK VINA RESULT:      -6.4      2.421      3.965
REMARK  Name = pdb/CHEMBL3956053.pdb
REMARK                            x       y       z     vdW  Elec       q    Type
REMARK                         _______ _______ _______ _____ _____    ______ ____
ROOT
ATOM      1  C   LIG    1      -22.397  82.908  15.143  0.00  0.00    +0.131 C 
ATOM      2  N   LIG    1      -23.217  82.193  14.359  0.00  0.00    -0.141 NA
ATOM      3  N   LIG    1      -23.020  80.910  14.725  0.00  0.00    -0.201 N 
ATOM      4  C   LIG    1      -21.884  80.763  15.519  0.00  0.00    +0.185 C 
ATOM      5  C   LIG    1      -21.476  82.055  15.802  0.00  0.00    +0.056 C 
ENDROOT
BRANCH   3   6
ATOM      6  C   LIG    1      -23.998  79.950  14.364  0.00  0.00    +0.052 A 
ATOM      7  C   LIG    1      -23.836  79.156  13.225  0.00  0.00    +0.025 A 
ATOM      8  C   LIG    1      -24.749  78.129  12.965  0.00  0.00    +0.002 A 
ATOM      9  C   LIG    1      -25.827  77.909  13.825  0.00  0.00    +0.000 A 
ATOM     10  C   LIG    1      -25.988  78.701  14.960  0.00  0.00    +0.002 A 
ATOM     11  C   LIG    1      -25.065  79.707  15.243  0.00  0.00    +0.025 A 
ENDBRANCH   3   6
BRANCH   4  12
ATOM     12  N   LIG    1      -21.275  79.563  15.912  0.00  0.00    -0.282 N 
ATOM     13  H   LIG    1      -21.402  79.289  16.889  0.00  0.00    +0.152 HD
ATOM     14  C   LIG    1      -20.517  78.705  15.034  0.00  0.00    +0.247 C 
ATOM     15  O   LIG    1      -20.307  79.039  13.870  0.00  0.00    -0.270 OA
BRANCH  14  16
ATOM     16  C   LIG    1      -19.978  77.425  15.559  0.00  0.00    +0.056 A 
ATOM     17  C   LIG    1      -18.642  77.237  15.935  0.00  0.00    +0.054 A 
ATOM     18 CL   LIG    1      -17.461  78.487  15.953  0.00  0.00    -0.083 Cl
ATOM     19  C   LIG    1      -18.195  75.965  16.284  0.00  0.00    +0.041 A 
ATOM     20  C   LIG    1      -19.063  74.865  16.308  0.00  0.00    +0.052 A 
ATOM     21 CL   LIG    1      -18.287  73.340  16.584  0.00  0.00    -0.083 Cl
ATOM     22  C   LIG    1      -20.439  75.019  16.050  0.00  0.00    +0.019 A 
ATOM     23  C   LIG    1      -20.854  76.312  15.631  0.00  0.00    +0.026 A 
BRANCH  22  24
ATOM     24  C   LIG    1      -21.449  73.932  16.203  0.00  0.00    +0.072 A 
ATOM     25  N   LIG    1      -21.608  73.119  15.127  0.00  0.00    -0.255 NA
ATOM     26  C   LIG    1      -22.539  72.133  15.204  0.00  0.00    +0.111 A 
ATOM     27  C   LIG    1      -23.337  71.900  16.310  0.00  0.00    +0.020 A 
ATOM     28  C   LIG    1      -23.186  72.739  17.399  0.00  0.00    +0.004 A 
ATOM     29  C   LIG    1      -22.256  73.775  17.334  0.00  0.00    +0.028 A 
ENDBRANCH  22  24
ENDBRANCH  14  16
ENDBRANCH   4  12
BRANCH   1  30
ATOM     30  C   LIG    1      -22.528  84.360  15.242  0.00  0.00    +0.233 C 
ATOM     31  N   LIG    1      -22.279  85.118  14.234  0.00  0.00    -0.246 NA
BRANCH  30  32
ATOM     32  O   LIG    1      -22.875  84.791  16.475  0.00  0.00    -0.491 OA
ATOM     33  H   LIG    1      -23.301  84.113  17.010  0.00  0.00    +0.294 HD
ENDBRANCH  30  32
BRANCH  31  34
ATOM     34  C   LIG    1      -22.479  86.569  14.359  0.00  0.00    +0.184 C 
BRANCH  34  35
ATOM     35  C   LIG    1      -21.143  87.226  14.719  0.00  0.00    +0.132 C 
ATOM     36  C   LIG    1      -20.800  88.465  13.866  0.00  0.00    +0.198 C 
ATOM     37  O   LIG    1      -19.929  87.678  13.011  0.00  0.00    -0.374 OA
ATOM     38  C   LIG    1      -19.932  86.606  13.990  0.00  0.00    +0.198 C 
BRANCH  35  39
ATOM     39  O   LIG    1      -21.018  87.377  16.155  0.00  0.00    -0.382 OA
ATOM     40  H   LIG    1      -20.203  87.902  16.258  0.00  0.00    +0.210 HD
ENDBRANCH  35  39
ENDBRANCH  34  35
ENDBRANCH  31  34
ENDBRANCH   1  30
TORSDOF 9
ENDMDL
MODEL 3
REMARK VINA RESULT:      -6.4     17.927     19.259
REMARK  Name = pdb/CHEMBL3956053.pdb
REMARK                            x       y       z     vdW  Elec       q    Type
REMARK                         _______ _______ _______ _____ _____    ______ ____
ROOT
ATOM      1  C   LIG    1      -37.405  79.857  27.748  0.00  0.00    +0.131 C 
ATOM      2  N   LIG    1      -36.550  79.092  28.442  0.00  0.00    -0.141 NA
ATOM      3  N   LIG    1      -36.672  77.860  27.909  0.00  0.00    -0.201 N 
ATOM      4  C   LIG    1      -37.795  77.756  27.088  0.00  0.00    +0.185 C 
ATOM      5  C   LIG    1      -38.274  79.048  26.973  0.00  0.00    +0.056 C 
ENDROOT
BRANCH   3   6
ATOM      6  C   LIG    1      -35.644  76.916  28.152  0.00  0.00    +0.052 A 
ATOM      7  C   LIG    1      -34.749  76.555  27.141  0.00  0.00    +0.025 A 
ATOM      8  C   LIG    1      -33.667  75.723  27.443  0.00  0.00    +0.002 A 
ATOM      9  C   LIG    1      -33.491  75.237  28.740  0.00  0.00    +0.000 A 
ATOM     10  C   LIG    1      -34.383  75.597  29.748  0.00  0.00    +0.002 A 
ATOM     11  C   LIG    1      -35.447  76.451  29.462  0.00  0.00    +0.025 A 
ENDBRANCH   3   6
BRANCH   4  12
ATOM     12  N   LIG    1      -38.334  76.586  26.534  0.00  0.00    -0.282 N 
ATOM     13  H   LIG    1      -39.008  76.079  27.112  0.00  0.00    +0.152 HD
ATOM     14  C   LIG    1      -38.017  76.082  25.220  0.00  0.00    +0.247 C 
ATOM     15  O   LIG    1      -37.172  76.645  24.527  0.00  0.00    -0.270 OA
BRANCH  14  16
ATOM     16  C   LIG    1      -38.708  74.865  24.724  0.00  0.00    +0.056 A 
ATOM     17  C   LIG    1      -39.969  74.879  24.115  0.00  0.00    +0.054 A 
ATOM     18 CL   LIG    1      -40.847  76.311  23.748  0.00  0.00    -0.083 Cl
ATOM     19  C   LIG    1      -40.601  73.676  23.808  0.00  0.00    +0.041 A 
ATOM     20  C   LIG    1      -39.987  72.442  24.058  0.00  0.00    +0.052 A 
ATOM     21 CL   LIG    1      -40.999  71.063  23.782  0.00  0.00    -0.083 Cl
ATOM     22  C   LIG    1      -38.673  72.372  24.564  0.00  0.00    +0.019 A 
ATOM     23  C   LIG    1      -38.080  73.610  24.931  0.00  0.00    +0.026 A 
BRANCH  22  24
ATOM     24  C   LIG    1      -37.897  71.107  24.714  0.00  0.00    +0.072 A 
ATOM     25  N   LIG    1      -37.270  70.939  25.907  0.00  0.00    -0.255 NA
ATOM     26  C   LIG    1      -36.524  69.818  26.083  0.00  0.00    +0.111 A 
ATOM     27  C   LIG    1      -36.361  68.833  25.125  0.00  0.00    +0.020 A 
ATOM     28  C   LIG    1      -36.986  69.013  23.905  0.00  0.00    +0.004 A 
ATOM     29  C   LIG    1      -37.737  70.168  23.691  0.00  0.00    +0.028 A 
ENDBRANCH  22  24
ENDBRANCH  14  16
ENDBRANCH   4  12
BRANCH   1  30
ATOM     30  C   LIG    1      -37.356  81.315  27.842  0.00  0.00    +0.233 C 
ATOM     31  N   LIG    1      -36.940  82.028  26.856  0.00  0.00    -0.246 NA
BRANCH  30  32
ATOM     32  O   LIG    1      -37.734  81.795  29.047  0.00  0.00    -0.491 OA
ATOM     33  H   LIG    1      -37.839  81.108  29.715  0.00  0.00    +0.294 HD
ENDBRANCH  30  32
BRANCH  31  34
ATOM     34  C   LIG    1      -36.963  83.494  26.969  0.00  0.00    +0.184 C 
BRANCH  34  35
ATOM     35  C   LIG    1      -36.626  84.102  25.604  0.00  0.00    +0.132 C 
ATOM     36  C   LIG    1      -37.232  85.502  25.372  0.00  0.00    +0.198 C 
ATOM     37  O   LIG    1      -38.327  84.938  24.602  0.00  0.00    -0.374 OA
ATOM     38  C   LIG    1      -37.602  83.686  24.484  0.00  0.00    +0.198 C 
BRANCH  35  39
ATOM     39  O   LIG    1      -35.214  83.954  25.312  0.00  0.00    -0.382 OA
ATOM     40  H   LIG    1      -34.877  83.449  26.076  0.00  0.00    +0.210 HD
ENDBRANCH  35  39
ENDBRANCH  34  35
ENDBRANCH  31  34
ENDBRANCH   1  30
TORSDOF 9
ENDMDL
MODEL 4
REMARK VINA RESULT:      -6.3     16.732     20.369
REMARK  Name = pdb/CHEMBL3956053.pdb
REMARK                            x       y       z     vdW  Elec       q    Type
REMARK                         _______ _______ _______ _____ _____    ______ ____
ROOT
ATOM      1  C   LIG    1      -25.092  73.658  31.735  0.00  0.00    +0.131 C 
ATOM      2  N   LIG    1      -24.208  74.110  30.834  0.00  0.00    -0.141 NA
ATOM      3  N   LIG    1      -23.501  75.056  31.482  0.00  0.00    -0.201 N 
ATOM      4  C   LIG    1      -24.103  75.425  32.684  0.00  0.00    +0.185 C 
ATOM      5  C   LIG    1      -25.134  74.520  32.861  0.00  0.00    +0.056 C 
ENDROOT
BRANCH   3   6
ATOM      6  C   LIG    1      -22.253  75.453  30.941  0.00  0.00    +0.052 A 
ATOM      7  C   LIG    1      -22.189  76.360  29.878  0.00  0.00    +0.025 A 
ATOM      8  C   LIG    1      -20.945  76.833  29.450  0.00  0.00    +0.002 A 
ATOM      9  C   LIG    1      -19.772  76.389  30.064  0.00  0.00    +0.000 A 
ATOM     10  C   LIG    1      -19.836  75.486  31.123  0.00  0.00    +0.002 A 
ATOM     11  C   LIG    1      -21.074  75.033  31.576  0.00  0.00    +0.025 A 
ENDBRANCH   3   6
BRANCH   4  12
ATOM     12  N   LIG    1      -23.755  76.504  33.510  0.00  0.00    -0.282 N 
ATOM     13  H   LIG    1      -23.351  76.267  34.418  0.00  0.00    +0.152 HD
ATOM     14  C   LIG    1      -23.909  77.893  33.150  0.00  0.00    +0.247 C 
ATOM     15  O   LIG    1      -24.439  78.202  32.084  0.00  0.00    -0.270 OA
BRANCH  14  16
ATOM     16  C   LIG    1      -23.439  78.941  34.090  0.00  0.00    +0.056 A 
ATOM     17  C   LIG    1      -22.095  79.309  34.238  0.00  0.00    +0.054 A 
ATOM     18 CL   LIG    1      -20.813  78.686  33.276  0.00  0.00    -0.083 Cl
ATOM     19  C   LIG    1      -21.731  80.203  35.243  0.00  0.00    +0.041 A 
ATOM     20  C   LIG    1      -22.685  80.780  36.091  0.00  0.00    +0.052 A 
ATOM     21 CL   LIG    1      -22.024  81.717  37.389  0.00  0.00    -0.083 Cl
ATOM     22  C   LIG    1      -24.061  80.533  35.912  0.00  0.00    +0.019 A 
ATOM     23  C   LIG    1      -24.398  79.567  34.926  0.00  0.00    +0.026 A 
BRANCH  22  24
ATOM     24  C   LIG    1      -25.144  81.223  36.672  0.00  0.00    +0.072 A 
ATOM     25  N   LIG    1      -25.232  82.565  36.484  0.00  0.00    -0.255 NA
ATOM     26  C   LIG    1      -26.181  83.245  37.177  0.00  0.00    +0.111 A 
ATOM     27  C   LIG    1      -27.067  82.660  38.064  0.00  0.00    +0.020 A 
ATOM     28  C   LIG    1      -26.965  81.295  38.268  0.00  0.00    +0.004 A 
ATOM     29  C   LIG    1      -25.982  80.579  37.587  0.00  0.00    +0.028 A 
ENDBRANCH  22  24
ENDBRANCH  14  16
ENDBRANCH   4  12
BRANCH   1  30
ATOM     30  C   LIG    1      -25.850  72.431  31.497  0.00  0.00    +0.233 C 
ATOM     31  N   LIG    1      -25.261  71.289  31.446  0.00  0.00    -0.246 NA
BRANCH  30  32
ATOM     32  O   LIG    1      -27.169  72.637  31.297  0.00  0.00    -0.491 OA
ATOM     33  H   LIG    1      -27.603  71.912  30.833  0.00  0.00    +0.294 HD
ENDBRANCH  30  32
BRANCH  31  34
ATOM     34  C   LIG    1      -26.066  70.072  31.264  0.00  0.00    +0.184 C 
BRANCH  34  35
ATOM     35  C   LIG    1      -26.153  69.753  29.767  0.00  0.00    +0.132 C 
ATOM     36  C   LIG    1      -25.836  68.284  29.417  0.00  0.00    +0.198 C 
ATOM     37  O   LIG    1      -24.478  68.632  29.038  0.00  0.00    -0.374 OA
ATOM     38  C   LIG    1      -24.846  70.035  28.998  0.00  0.00    +0.198 C 
BRANCH  35  39
ATOM     39  O   LIG    1      -27.366  70.305  29.197  0.00  0.00    -0.382 OA
ATOM     40  H   LIG    1      -27.109  70.516  28.280  0.00  0.00    +0.210 HD
ENDBRANCH  35  39
ENDBRANCH  34  35
ENDBRANCH  31  34
ENDBRANCH   1  30
TORSDOF 9
ENDMDL
MODEL 5
REMARK VINA RESULT:      -6.3     18.067     20.449
REMARK  Name = pdb/CHEMBL3956053.pdb
REMARK                            x       y       z     vdW  Elec       q    Type
REMARK                         _______ _______ _______ _____ _____    ______ ____
ROOT
ATOM      1  C   LIG    1      -37.541  77.047  26.369  0.00  0.00    +0.131 C 
ATOM      2  N   LIG    1      -38.620  77.659  25.860  0.00  0.00    -0.141 NA
ATOM      3  N   LIG    1      -39.322  76.681  25.254  0.00  0.00    -0.201 N 
ATOM      4  C   LIG    1      -38.574  75.513  25.111  0.00  0.00    +0.185 C 
ATOM      5  C   LIG    1      -37.418  75.739  25.837  0.00  0.00    +0.056 C 
ENDROOT
BRANCH   3   6
ATOM      6  C   LIG    1      -40.686  76.919  24.954  0.00  0.00    +0.052 A 
ATOM      7  C   LIG    1      -41.115  77.060  23.630  0.00  0.00    +0.025 A 
ATOM      8  C   LIG    1      -42.482  77.164  23.356  0.00  0.00    +0.002 A 
ATOM      9  C   LIG    1      -43.413  77.147  24.396  0.00  0.00    +0.000 A 
ATOM     10  C   LIG    1      -42.986  77.006  25.714  0.00  0.00    +0.002 A 
ATOM     11  C   LIG    1      -41.627  76.871  25.994  0.00  0.00    +0.025 A 
ENDBRANCH   3   6
BRANCH   4  12
ATOM     12  N   LIG    1      -38.912  74.377  24.363  0.00  0.00    -0.282 N 
ATOM     13  H   LIG    1      -38.460  74.283  23.451  0.00  0.00    +0.152 HD
ATOM     14  C   LIG    1      -39.820  73.347  24.806  0.00  0.00    +0.247 C 
ATOM     15  O   LIG    1      -40.415  73.462  25.876  0.00  0.00    -0.270 OA
BRANCH  14  16
ATOM     16  C   LIG    1      -40.043  72.158  23.945  0.00  0.00    +0.056 A 
ATOM     17  C   LIG    1      -41.195  71.958  23.173  0.00  0.00    +0.054 A 
ATOM     18 CL   LIG    1      -42.463  73.109  23.019  0.00  0.00    -0.083 Cl
ATOM     19  C   LIG    1      -41.379  70.749  22.507  0.00  0.00    +0.041 A 
ATOM     20  C   LIG    1      -40.416  69.733  22.555  0.00  0.00    +0.052 A 
ATOM     21 CL   LIG    1      -40.904  68.241  21.821  0.00  0.00    -0.083 Cl
ATOM     22  C   LIG    1      -39.189  69.924  23.222  0.00  0.00    +0.019 A 
ATOM     23  C   LIG    1      -39.057  71.138  23.949  0.00  0.00    +0.026 A 
BRANCH  22  24
ATOM     24  C   LIG    1      -38.057  68.953  23.191  0.00  0.00    +0.072 A 
ATOM     25  N   LIG    1      -37.759  68.358  24.375  0.00  0.00    -0.255 NA
ATOM     26  C   LIG    1      -36.715  67.490  24.408  0.00  0.00    +0.111 A 
ATOM     27  C   LIG    1      -35.934  67.171  23.312  0.00  0.00    +0.020 A 
ATOM     28  C   LIG    1      -36.227  67.790  22.111  0.00  0.00    +0.004 A 
ATOM     29  C   LIG    1      -37.277  68.705  22.057  0.00  0.00    +0.028 A 
ENDBRANCH  22  24
ENDBRANCH  14  16
ENDBRANCH   4  12
BRANCH   1  30
ATOM     30  C   LIG    1      -36.681  77.722  27.341  0.00  0.00    +0.233 C 
ATOM     31  N   LIG    1      -35.401  77.643  27.259  0.00  0.00    -0.246 NA
BRANCH  30  32
ATOM     32  O   LIG    1      -37.363  78.363  28.315  0.00  0.00    -0.491 OA
ATOM     33  H   LIG    1      -37.770  79.184  28.019  0.00  0.00    +0.294 HD
ENDBRANCH  30  32
BRANCH  31  34
ATOM     34  C   LIG    1      -34.572  78.384  28.221  0.00  0.00    +0.184 C 
BRANCH  34  35
ATOM     35  C   LIG    1      -33.096  78.087  27.937  0.00  0.00    +0.132 C 
ATOM     36  C   LIG    1      -32.386  79.170  27.098  0.00  0.00    +0.198 C 
ATOM     37  O   LIG    1      -32.547  78.386  25.886  0.00  0.00    -0.374 OA
ATOM     38  C   LIG    1      -32.871  77.217  26.683  0.00  0.00    +0.198 C 
BRANCH  35  39
ATOM     39  O   LIG    1      -32.419  77.660  29.145  0.00  0.00    -0.382 OA
ATOM     40  H   LIG    1      -32.561  78.404  29.760  0.00  0.00    +0.210 HD
ENDBRANCH  35  39
ENDBRANCH  34  35
ENDBRANCH  31  34
ENDBRANCH   1  30
TORSDOF 9
ENDMDL
MODEL 6
REMARK VINA RESULT:      -6.2     18.663     21.123
REMARK  Name = pdb/CHEMBL3956053.pdb
REMARK                            x       y       z     vdW  Elec       q    Type
REMARK                         _______ _______ _______ _____ _____    ______ ____
ROOT
ATOM      1  C   LIG    1      -37.400  76.787  26.362  0.00  0.00    +0.131 C 
ATOM      2  N   LIG    1      -38.463  77.381  25.801  0.00  0.00    -0.141 NA
ATOM      3  N   LIG    1      -39.150  76.383  25.210  0.00  0.00    -0.201 N 
ATOM      4  C   LIG    1      -38.400  75.211  25.130  0.00  0.00    +0.185 C 
ATOM      5  C   LIG    1      -37.265  75.460  25.880  0.00  0.00    +0.056 C 
ENDROOT
BRANCH   3   6
ATOM      6  C   LIG    1      -40.504  76.612  24.863  0.00  0.00    +0.052 A 
ATOM      7  C   LIG    1      -40.907  76.638  23.524  0.00  0.00    +0.025 A 
ATOM      8  C   LIG    1      -42.267  76.735  23.215  0.00  0.00    +0.002 A 
ATOM      9  C   LIG    1      -43.217  76.826  24.234  0.00  0.00    +0.000 A 
ATOM     10  C   LIG    1      -42.816  76.800  25.568  0.00  0.00    +0.002 A 
ATOM     11  C   LIG    1      -41.465  76.672  25.885  0.00  0.00    +0.025 A 
ENDBRANCH   3   6
BRANCH   4  12
ATOM     12  N   LIG    1      -38.719  74.048  24.413  0.00  0.00    -0.282 N 
ATOM     13  H   LIG    1      -38.257  73.932  23.509  0.00  0.00    +0.152 HD
ATOM     14  C   LIG    1      -39.623  73.023  24.877  0.00  0.00    +0.247 C 
ATOM     15  O   LIG    1      -40.229  73.165  25.937  0.00  0.00    -0.270 OA
BRANCH  14  16
ATOM     16  C   LIG    1      -39.824  71.807  24.051  0.00  0.00    +0.056 A 
ATOM     17  C   LIG    1      -38.924  70.735  24.008  0.00  0.00    +0.054 A 
ATOM     18 CL   LIG    1      -37.516  70.619  24.989  0.00  0.00    -0.083 Cl
ATOM     19  C   LIG    1      -39.125  69.699  23.098  0.00  0.00    +0.041 A 
ATOM     20  C   LIG    1      -40.237  69.680  22.246  0.00  0.00    +0.052 A 
ATOM     21 CL   LIG    1      -40.217  68.413  21.064  0.00  0.00    -0.083 Cl
ATOM     22  C   LIG    1      -41.233  70.673  22.326  0.00  0.00    +0.019 A 
ATOM     23  C   LIG    1      -40.967  71.752  23.213  0.00  0.00    +0.026 A 
BRANCH  22  24
ATOM     24  C   LIG    1      -42.514  70.642  21.563  0.00  0.00    +0.072 A 
ATOM     25  N   LIG    1      -42.439  71.046  20.269  0.00  0.00    -0.255 NA
ATOM     26  C   LIG    1      -43.585  71.066  19.539  0.00  0.00    +0.111 A 
ATOM     27  C   LIG    1      -44.826  70.700  20.028  0.00  0.00    +0.020 A 
ATOM     28  C   LIG    1      -44.904  70.305  21.351  0.00  0.00    +0.004 A 
ATOM     29  C   LIG    1      -43.747  70.301  22.128  0.00  0.00    +0.028 A 
ENDBRANCH  22  24
ENDBRANCH  14  16
ENDBRANCH   4  12
BRANCH   1  30
ATOM     30  C   LIG    1      -36.567  77.494  27.333  0.00  0.00    +0.233 C 
ATOM     31  N   LIG    1      -35.285  77.455  27.258  0.00  0.00    -0.246 NA
BRANCH  30  32
ATOM     32  O   LIG    1      -37.273  78.120  28.299  0.00  0.00    -0.491 OA
ATOM     33  H   LIG    1      -38.055  77.630  28.579  0.00  0.00    +0.294 HD
ENDBRANCH  30  32
BRANCH  31  34
ATOM     34  C   LIG    1      -34.484  78.228  28.219  0.00  0.00    +0.184 C 
BRANCH  34  35
ATOM     35  C   LIG    1      -32.999  78.053  27.883  0.00  0.00    +0.132 C 
ATOM     36  C   LIG    1      -32.397  79.217  27.068  0.00  0.00    +0.198 C 
ATOM     37  O   LIG    1      -32.537  78.468  25.831  0.00  0.00    -0.374 OA
ATOM     38  C   LIG    1      -32.749  77.249  26.590  0.00  0.00    +0.198 C 
BRANCH  35  39
ATOM     39  O   LIG    1      -32.256  77.633  29.054  0.00  0.00    -0.382 OA
ATOM     40  H   LIG    1      -31.331  77.628  28.746  0.00  0.00    +0.210 HD
ENDBRANCH  35  39
ENDBRANCH  34  35
ENDBRANCH  31  34
ENDBRANCH   1  30
TORSDOF 9
ENDMDL
MODEL 7
REMARK VINA RESULT:      -6.2     18.232     21.753
REMARK  Name = pdb/CHEMBL3956053.pdb
REMARK                            x       y       z     vdW  Elec       q    Type
REMARK                         _______ _______ _______ _____ _____    ______ ____
ROOT
ATOM      1  C   LIG    1      -40.011  71.510  24.183  0.00  0.00    +0.131 C 
ATOM      2  N   LIG    1      -40.390  72.790  24.300  0.00  0.00    -0.141 NA
ATOM      3  N   LIG    1      -39.277  73.451  24.677  0.00  0.00    -0.201 N 
ATOM      4  C   LIG    1      -38.267  72.581  25.087  0.00  0.00    +0.185 C 
ATOM      5  C   LIG    1      -38.731  71.318  24.765  0.00  0.00    +0.056 C 
ENDROOT
BRANCH   3   6
ATOM      6  C   LIG    1      -39.242  74.858  24.515  0.00  0.00    +0.052 A 
ATOM      7  C   LIG    1      -38.064  75.576  24.741  0.00  0.00    +0.025 A 
ATOM      8  C   LIG    1      -38.024  76.943  24.449  0.00  0.00    +0.002 A 
ATOM      9  C   LIG    1      -39.156  77.593  23.954  0.00  0.00    +0.000 A 
ATOM     10  C   LIG    1      -40.330  76.877  23.729  0.00  0.00    +0.002 A 
ATOM     11  C   LIG    1      -40.370  75.508  23.989  0.00  0.00    +0.025 A 
ENDBRANCH   3   6
BRANCH   4  12
ATOM     12  N   LIG    1      -37.062  72.919  25.719  0.00  0.00    -0.282 N 
ATOM     13  H   LIG    1      -36.240  72.996  25.117  0.00  0.00    +0.152 HD
ATOM     14  C   LIG    1      -36.925  73.180  27.132  0.00  0.00    +0.247 C 
ATOM     15  O   LIG    1      -37.889  73.045  27.884  0.00  0.00    -0.270 OA
BRANCH  14  16
ATOM     16  C   LIG    1      -35.605  73.595  27.667  0.00  0.00    +0.056 A 
ATOM     17  C   LIG    1      -34.733  72.734  28.346  0.00  0.00    +0.054 A 
ATOM     18 CL   LIG    1      -35.012  71.050  28.558  0.00  0.00    -0.083 Cl
ATOM     19  C   LIG    1      -33.578  73.244  28.936  0.00  0.00    +0.041 A 
ATOM     20  C   LIG    1      -33.241  74.600  28.832  0.00  0.00    +0.052 A 
ATOM     21 CL   LIG    1      -31.873  75.077  29.782  0.00  0.00    -0.083 Cl
ATOM     22  C   LIG    1      -34.022  75.487  28.065  0.00  0.00    +0.019 A 
ATOM     23  C   LIG    1      -35.228  74.956  27.533  0.00  0.00    +0.026 A 
BRANCH  22  24
ATOM     24  C   LIG    1      -33.650  76.904  27.783  0.00  0.00    +0.072 A 
ATOM     25  N   LIG    1      -34.431  77.847  28.371  0.00  0.00    -0.255 NA
ATOM     26  C   LIG    1      -34.154  79.152  28.119  0.00  0.00    +0.111 A 
ATOM     27  C   LIG    1      -33.125  79.586  27.302  0.00  0.00    +0.020 A 
ATOM     28  C   LIG    1      -32.341  78.625  26.691  0.00  0.00    +0.004 A 
ATOM     29  C   LIG    1      -32.622  77.278  26.912  0.00  0.00    +0.028 A 
ENDBRANCH  22  24
ENDBRANCH  14  16
ENDBRANCH   4  12
BRANCH   1  30
ATOM     30  C   LIG    1      -40.868  70.528  23.520  0.00  0.00    +0.233 C 
ATOM     31  N   LIG    1      -42.058  70.835  23.144  0.00  0.00    -0.246 NA
BRANCH  30  32
ATOM     32  O   LIG    1      -40.304  69.306  23.404  0.00  0.00    -0.491 OA
ATOM     33  H   LIG    1      -39.976  68.956  24.240  0.00  0.00    +0.294 HD
ENDBRANCH  30  32
BRANCH  31  34
ATOM     34  C   LIG    1      -42.866  69.837  22.428  0.00  0.00    +0.184 C 
BRANCH  34  35
ATOM     35  C   LIG    1      -42.657  70.018  20.921  0.00  0.00    +0.132 C 
ATOM     36  C   LIG    1      -42.668  71.490  20.456  0.00  0.00    +0.198 C 
ATOM     37  O   LIG    1      -44.051  71.380  20.026  0.00  0.00    -0.374 OA
ATOM     38  C   LIG    1      -43.962  69.933  20.101  0.00  0.00    +0.198 C 
BRANCH  35  39
ATOM     39  O   LIG    1      -41.553  69.202  20.456  0.00  0.00    -0.382 OA
ATOM     40  H   LIG    1      -41.606  69.281  19.485  0.00  0.00    +0.210 HD
ENDBRANCH  35  39
ENDBRANCH  34  35
ENDBRANCH  31  34
ENDBRANCH   1  30
TORSDOF 9
ENDMDL
MODEL 8
REMARK VINA RESULT:      -6.1     17.588     21.170
REMARK  Name = pdb/CHEMBL3956053.pdb
REMARK                            x       y       z     vdW  Elec       q    Type
REMARK                         _______ _______ _______ _____ _____    ______ ____
ROOT
ATOM      1  C   LIG    1      -36.772  69.471  25.309  0.00  0.00    +0.131 C 
ATOM      2  N   LIG    1      -37.681  70.382  25.684  0.00  0.00    -0.141 NA
ATOM      3  N   LIG    1      -36.964  71.466  26.041  0.00  0.00    -0.201 N 
ATOM      4  C   LIG    1      -35.608  71.170  26.181  0.00  0.00    +0.185 C 
ATOM      5  C   LIG    1      -35.472  69.880  25.702  0.00  0.00    +0.056 C 
ENDROOT
BRANCH   3   6
ATOM      6  C   LIG    1      -37.626  72.715  26.119  0.00  0.00    +0.052 A 
ATOM      7  C   LIG    1      -37.820  73.348  27.351  0.00  0.00    +0.025 A 
ATOM      8  C   LIG    1      -38.359  74.638  27.386  0.00  0.00    +0.002 A 
ATOM      9  C   LIG    1      -38.721  75.284  26.202  0.00  0.00    +0.000 A 
ATOM     10  C   LIG    1      -38.527  74.653  24.975  0.00  0.00    +0.002 A 
ATOM     11  C   LIG    1      -37.963  73.380  24.929  0.00  0.00    +0.025 A 
ENDBRANCH   3   6
BRANCH   4  12
ATOM     12  N   LIG    1      -34.613  71.996  26.723  0.00  0.00    -0.282 N 
ATOM     13  H   LIG    1      -33.978  72.439  26.055  0.00  0.00    +0.152 HD
ATOM     14  C   LIG    1      -34.453  72.268  28.131  0.00  0.00    +0.247 C 
ATOM     15  O   LIG    1      -35.171  71.707  28.956  0.00  0.00    -0.270 OA
BRANCH  14  16
ATOM     16  C   LIG    1      -33.398  73.215  28.571  0.00  0.00    +0.056 A 
ATOM     17  C   LIG    1      -32.279  72.841  29.326  0.00  0.00    +0.054 A 
ATOM     18 CL   LIG    1      -31.904  71.218  29.754  0.00  0.00    -0.083 Cl
ATOM     19  C   LIG    1      -31.415  73.820  29.812  0.00  0.00    +0.041 A 
ATOM     20  C   LIG    1      -31.615  75.178  29.530  0.00  0.00    +0.052 A 
ATOM     21 CL   LIG    1      -30.548  76.253  30.372  0.00  0.00    -0.083 Cl
ATOM     22  C   LIG    1      -32.658  75.599  28.682  0.00  0.00    +0.019 A 
ATOM     23  C   LIG    1      -33.562  74.588  28.257  0.00  0.00    +0.026 A 
BRANCH  22  24
ATOM     24  C   LIG    1      -32.845  77.003  28.214  0.00  0.00    +0.072 A 
ATOM     25  N   LIG    1      -33.701  77.760  28.947  0.00  0.00    -0.255 NA
ATOM     26  C   LIG    1      -33.930  79.036  28.543  0.00  0.00    +0.111 A 
ATOM     27  C   LIG    1      -33.346  79.618  27.433  0.00  0.00    +0.020 A 
ATOM     28  C   LIG    1      -32.487  78.842  26.677  0.00  0.00    +0.004 A 
ATOM     29  C   LIG    1      -32.256  77.520  27.056  0.00  0.00    +0.028 A 
ENDBRANCH  22  24
ENDBRANCH  14  16
ENDBRANCH   4  12
BRANCH   1  30
ATOM     30  C   LIG    1      -37.169  68.263  24.588  0.00  0.00    +0.233 C 
ATOM     31  N   LIG    1      -36.895  68.115  23.341  0.00  0.00    -0.246 NA
BRANCH  30  32
ATOM     32  O   LIG    1      -37.869  67.387  25.342  0.00  0.00    -0.491 OA
ATOM     33  H   LIG    1      -37.312  66.748  25.801  0.00  0.00    +0.294 HD
ENDBRANCH  30  32
BRANCH  31  34
ATOM     34  C   LIG    1      -37.260  66.860  22.668  0.00  0.00    +0.184 C 
BRANCH  34  35
ATOM     35  C   LIG    1      -36.179  66.516  21.637  0.00  0.00    +0.132 C 
ATOM     36  C   LIG    1      -35.838  65.013  21.560  0.00  0.00    +0.198 C 
ATOM     37  O   LIG    1      -34.666  65.201  22.397  0.00  0.00    -0.374 OA
ATOM     38  C   LIG    1      -34.742  66.635  22.186  0.00  0.00    +0.198 C 
BRANCH  35  39
ATOM     39  O   LIG    1      -36.443  67.184  20.378  0.00  0.00    -0.382 OA
ATOM     40  H   LIG    1      -37.403  67.062  20.254  0.00  0.00    +0.210 HD
ENDBRANCH  35  39
ENDBRANCH  34  35
ENDBRANCH  31  34
ENDBRANCH   1  30
TORSDOF 9
ENDMDL
MODEL 9
REMARK VINA RESULT:      -6.1     18.185     19.923
REMARK  Name = pdb/CHEMBL3956053.pdb
REMARK                            x       y       z     vdW  Elec       q    Type
REMARK                         _______ _______ _______ _____ _____    ______ ____
ROOT
ATOM      1  C   LIG    1      -30.941  86.909  30.840  0.00  0.00    +0.131 C 
ATOM      2  N   LIG    1      -31.647  87.798  30.128  0.00  0.00    -0.141 NA
ATOM      3  N   LIG    1      -32.700  87.106  29.649  0.00  0.00    -0.201 N 
ATOM      4  C   LIG    1      -32.529  85.730  29.795  0.00  0.00    +0.185 C 
ATOM      5  C   LIG    1      -31.393  85.591  30.572  0.00  0.00    +0.056 C 
ENDROOT
BRANCH   3   6
ATOM      6  C   LIG    1      -33.826  87.830  29.184  0.00  0.00    +0.052 A 
ATOM      7  C   LIG    1      -33.667  89.017  28.464  0.00  0.00    +0.025 A 
ATOM      8  C   LIG    1      -34.787  89.640  27.906  0.00  0.00    +0.002 A 
ATOM      9  C   LIG    1      -36.060  89.093  28.082  0.00  0.00    +0.000 A 
ATOM     10  C   LIG    1      -36.218  87.910  28.800  0.00  0.00    +0.002 A 
ATOM     11  C   LIG    1      -35.103  87.266  29.334  0.00  0.00    +0.025 A 
ENDBRANCH   3   6
BRANCH   4  12
ATOM     12  N   LIG    1      -33.322  84.715  29.241  0.00  0.00    -0.282 N 
ATOM     13  H   LIG    1      -33.197  84.536  28.243  0.00  0.00    +0.152 HD
ATOM     14  C   LIG    1      -34.263  83.914  29.986  0.00  0.00    +0.247 C 
ATOM     15  O   LIG    1      -34.468  84.144  31.176  0.00  0.00    -0.270 OA
BRANCH  14  16
ATOM     16  C   LIG    1      -34.994  82.823  29.293  0.00  0.00    +0.056 A 
ATOM     17  C   LIG    1      -36.368  82.852  29.026  0.00  0.00    +0.054 A 
ATOM     18 CL   LIG    1      -37.386  84.199  29.355  0.00  0.00    -0.083 Cl
ATOM     19  C   LIG    1      -36.994  81.725  28.498  0.00  0.00    +0.041 A 
ATOM     20  C   LIG    1      -36.272  80.566  28.187  0.00  0.00    +0.052 A 
ATOM     21 CL   LIG    1      -37.247  79.213  27.716  0.00  0.00    -0.083 Cl
ATOM     22  C   LIG    1      -34.870  80.521  28.329  0.00  0.00    +0.019 A 
ATOM     23  C   LIG    1      -34.269  81.659  28.932  0.00  0.00    +0.026 A 
BRANCH  22  24
ATOM     24  C   LIG    1      -34.016  79.384  27.879  0.00  0.00    +0.072 A 
ATOM     25  N   LIG    1      -33.239  79.625  26.791  0.00  0.00    -0.255 NA
ATOM     26  C   LIG    1      -32.466  78.611  26.322  0.00  0.00    +0.111 A 
ATOM     27  C   LIG    1      -32.418  77.347  26.881  0.00  0.00    +0.020 A 
ATOM     28  C   LIG    1      -33.222  77.098  27.979  0.00  0.00    +0.004 A 
ATOM     29  C   LIG    1      -34.043  78.114  28.463  0.00  0.00    +0.028 A 
ENDBRANCH  22  24
ENDBRANCH  14  16
ENDBRANCH   4  12
BRANCH   1  30
ATOM     30  C   LIG    1      -29.880  87.342  31.747  0.00  0.00    +0.233 C 
ATOM     31  N   LIG    1      -29.994  87.194  33.018  0.00  0.00    -0.246 NA
BRANCH  30  32
ATOM     32  O   LIG    1      -28.839  87.934  31.121  0.00  0.00    -0.491 OA
ATOM     33  H   LIG    1      -29.074  88.764  30.692  0.00  0.00    +0.294 HD
ENDBRANCH  30  32
BRANCH  31  34
ATOM     34  C   LIG    1      -28.878  87.589  33.892  0.00  0.00    +0.184 C 
BRANCH  34  35
ATOM     35  C   LIG    1      -28.909  86.727  35.158  0.00  0.00    +0.132 C 
ATOM     36  C   LIG    1      -27.662  85.838  35.345  0.00  0.00    +0.198 C 
ATOM     37  O   LIG    1      -28.361  84.684  34.809  0.00  0.00    -0.374 OA
ATOM     38  C   LIG    1      -29.628  85.375  34.967  0.00  0.00    +0.198 C 
BRANCH  35  39
ATOM     39  O   LIG    1      -29.318  87.515  36.303  0.00  0.00    -0.382 OA
ATOM     40  H   LIG    1      -29.201  86.903  37.053  0.00  0.00    +0.210 HD
ENDBRANCH  35  39
ENDBRANCH  34  35
ENDBRANCH  31  34
ENDBRANCH   1  30
TORSDOF 9
ENDMDL
