MODEL 1
REMARK VINA RESULT:      -6.7      0.000      0.000
REMARK  Name = pdb/CHEMBL3916029.pdb
REMARK                            x       y       z     vdW  Elec       q    Type
REMARK                         _______ _______ _______ _____ _____    ______ ____
ROOT
ATOM      1  C   LIG    1      -38.879  65.644  22.439  0.00  0.00    +0.282 C 
ATOM      2  N   LIG    1      -39.772  66.166  21.655  0.00  0.00    -0.197 NA
ENDROOT
BRANCH   2   3
ATOM      3  C   LIG    1      -40.339  67.461  21.842  0.00  0.00    +0.105 A 
ATOM      4  C   LIG    1      -41.200  67.697  22.871  0.00  0.00    +0.145 A 
ATOM      5  N   LIG    1      -41.649  68.891  23.288  0.00  0.00    -0.201 NA
ATOM      6  C   LIG    1      -41.377  69.963  22.553  0.00  0.00    +0.323 A 
ATOM      7  N   LIG    1      -40.672  69.876  21.405  0.00  0.00    -0.201 NA
ATOM      8  C   LIG    1      -40.166  68.621  21.081  0.00  0.00    +0.145 A 
BRANCH   6   9
ATOM      9  O   LIG    1      -41.833  71.223  23.020  0.00  0.00    -0.424 OA
BRANCH   9  10
ATOM     10  C   LIG    1      -40.912  72.162  23.502  0.00  0.00    +0.132 A 
ATOM     11  C   LIG    1      -41.206  73.544  23.452  0.00  0.00    +0.047 A 
ATOM     12  C   LIG    1      -40.337  74.530  24.021  0.00  0.00    +0.012 A 
ATOM     13  C   LIG    1      -39.131  74.152  24.621  0.00  0.00    -0.010 A 
ATOM     14  C   LIG    1      -38.858  72.776  24.627  0.00  0.00    +0.012 A 
ATOM     15  C   LIG    1      -39.727  71.813  24.128  0.00  0.00    +0.047 A 
BRANCH  13  16
ATOM     16  C   LIG    1      -38.153  75.074  25.243  0.00  0.00    +0.041 A 
ATOM     17  S   LIG    1      -37.536  74.655  26.797  0.00  0.00    -0.052 S 
ATOM     18  C   LIG    1      -36.601  76.054  26.871  0.00  0.00    +0.168 A 
ATOM     19  N   LIG    1      -36.653  76.818  25.819  0.00  0.00    -0.232 NA
ATOM     20  C   LIG    1      -37.561  76.282  24.893  0.00  0.00    +0.129 A 
BRANCH  18  21
ATOM     21  N   LIG    1      -35.908  76.178  28.060  0.00  0.00    -0.250 N 
ATOM     22  C   LIG    1      -34.494  75.977  28.075  0.00  0.00    +0.221 C 
ATOM     23  O   LIG    1      -33.761  75.701  27.215  0.00  0.00    -0.275 OA
ATOM     24  C   LIG    1      -34.076  76.068  29.529  0.00  0.00    +0.098 C 
ATOM     25  C   LIG    1      -35.245  76.777  30.210  0.00  0.00    +0.029 C 
ATOM     26  C   LIG    1      -36.438  76.325  29.379  0.00  0.00    +0.116 C 
ENDBRANCH  18  21
ENDBRANCH  13  16
ENDBRANCH   9  10
ENDBRANCH   6   9
ENDBRANCH   2   3
BRANCH   1  27
ATOM     27  N   LIG    1      -38.105  65.916  23.551  0.00  0.00    -0.270 N 
ATOM     28  H   LIG    1      -38.719  65.698  24.339  0.00  0.00    +0.153 HD
BRANCH  27  32
ATOM     29  C   LIG    1      -35.935  68.348  24.995  0.00  0.00    +0.053 C 
ATOM     30  N   LIG    1      -35.482  68.366  23.740  0.00  0.00    -0.151 NA
ATOM     31  N   LIG    1      -36.071  67.323  23.083  0.00  0.00    -0.202 N 
ATOM     32  C   LIG    1      -37.097  66.781  23.889  0.00  0.00    +0.185 C 
ATOM     33  C   LIG    1      -36.836  67.271  25.168  0.00  0.00    +0.047 C 
BRANCH  31  34
ATOM     34  C   LIG    1      -35.608  67.034  21.751  0.00  0.00    +0.053 A 
ATOM     35  C   LIG    1      -34.293  66.549  21.558  0.00  0.00    +0.032 A 
ATOM     36  C   LIG    1      -33.848  66.305  20.258  0.00  0.00    -0.001 A 
ATOM     37  C   LIG    1      -32.586  65.707  19.763  0.00  0.00    +0.080 C 
ATOM     38  C   LIG    1      -32.908  65.575  18.267  0.00  0.00    +0.234 C 
ATOM     39  O   LIG    1      -34.102  66.320  17.952  0.00  0.00    -0.491 OA
ATOM     40  C   LIG    1      -34.640  66.621  19.171  0.00  0.00    +0.124 A 
ATOM     41  C   LIG    1      -35.895  67.145  19.322  0.00  0.00    +0.048 A 
ATOM     42  C   LIG    1      -36.404  67.258  20.617  0.00  0.00    +0.028 A 
ENDBRANCH  31  34
BRANCH  29  44
ATOM     43  C   LIG    1      -35.818  70.827  25.667  0.00  0.00    +0.017 C 
ATOM     44  C   LIG    1      -35.406  69.375  26.006  0.00  0.00    +0.003 C 
ATOM     45  C   LIG    1      -35.924  69.043  27.420  0.00  0.00    +0.017 C 
ATOM     46  C   LIG    1      -33.858  69.335  26.049  0.00  0.00    +0.017 C 
ENDBRANCH  29  44
ENDBRANCH  27  32
ENDBRANCH   1  27
BRANCH   1  47
ATOM     47  O   LIG    1      -38.607  64.340  22.205  0.00  0.00    -0.481 OA
ATOM     48  H   LIG    1      -37.898  64.041  22.823  0.00  0.00    +0.295 HD
ENDBRANCH   1  47
TORSDOF 10
ENDMDL
MODEL 2
REMARK VINA RESULT:      -6.6     18.088     22.175
REMARK  Name = pdb/CHEMBL3916029.pdb
REMARK                            x       y       z     vdW  Elec       q    Type
REMARK                         _______ _______ _______ _____ _____    ______ ____
ROOT
ATOM      1  C   LIG    1      -31.264  94.464  22.377  0.00  0.00    +0.282 C 
ATOM      2  N   LIG    1      -30.893  94.409  23.620  0.00  0.00    -0.197 NA
ENDROOT
BRANCH   2   3
ATOM      3  C   LIG    1      -31.517  93.584  24.603  0.00  0.00    +0.105 A 
ATOM      4  C   LIG    1      -32.081  94.137  25.712  0.00  0.00    +0.145 A 
ATOM      5  N   LIG    1      -32.867  93.520  26.608  0.00  0.00    -0.201 NA
ATOM      6  C   LIG    1      -33.005  92.202  26.530  0.00  0.00    +0.323 A 
ATOM      7  N   LIG    1      -32.373  91.478  25.583  0.00  0.00    -0.201 NA
ATOM      8  C   LIG    1      -31.645  92.193  24.637  0.00  0.00    +0.145 A 
BRANCH   6   9
ATOM      9  O   LIG    1      -33.861  91.566  27.466  0.00  0.00    -0.424 OA
BRANCH   9  10
ATOM     10  C   LIG    1      -33.425  90.417  28.139  0.00  0.00    +0.132 A 
ATOM     11  C   LIG    1      -32.367  90.493  29.074  0.00  0.00    +0.047 A 
ATOM     12  C   LIG    1      -31.956  89.364  29.854  0.00  0.00    +0.012 A 
ATOM     13  C   LIG    1      -32.574  88.122  29.685  0.00  0.00    -0.010 A 
ATOM     14  C   LIG    1      -33.600  88.075  28.728  0.00  0.00    +0.012 A 
ATOM     15  C   LIG    1      -34.040  89.182  28.013  0.00  0.00    +0.047 A 
BRANCH  13  16
ATOM     16  C   LIG    1      -32.240  86.885  30.430  0.00  0.00    +0.041 A 
ATOM     17  S   LIG    1      -31.985  87.020  32.129  0.00  0.00    -0.052 S 
ATOM     18  C   LIG    1      -31.645  85.376  32.270  0.00  0.00    +0.168 A 
ATOM     19  N   LIG    1      -31.740  84.689  31.169  0.00  0.00    -0.232 NA
ATOM     20  C   LIG    1      -32.052  85.547  30.104  0.00  0.00    +0.129 A 
BRANCH  18  21
ATOM     21  N   LIG    1      -31.310  85.003  33.557  0.00  0.00    -0.250 N 
ATOM     22  C   LIG    1      -32.153  84.096  34.269  0.00  0.00    +0.221 C 
ATOM     23  O   LIG    1      -33.146  83.579  33.951  0.00  0.00    -0.275 OA
ATOM     24  C   LIG    1      -31.572  83.995  35.665  0.00  0.00    +0.098 C 
ATOM     25  C   LIG    1      -30.145  84.518  35.514  0.00  0.00    +0.029 C 
ATOM     26  C   LIG    1      -30.280  85.538  34.392  0.00  0.00    +0.116 C 
ENDBRANCH  18  21
ENDBRANCH  13  16
ENDBRANCH   9  10
ENDBRANCH   6   9
ENDBRANCH   2   3
BRANCH   1  27
ATOM     27  N   LIG    1      -32.152  93.913  21.473  0.00  0.00    -0.270 N 
ATOM     28  H   LIG    1      -31.874  94.319  20.576  0.00  0.00    +0.153 HD
BRANCH  27  32
ATOM     29  C   LIG    1      -35.497  92.927  22.213  0.00  0.00    +0.053 C 
ATOM     30  N   LIG    1      -35.293  92.206  21.108  0.00  0.00    -0.151 NA
ATOM     31  N   LIG    1      -34.115  92.629  20.561  0.00  0.00    -0.202 N 
ATOM     32  C   LIG    1      -33.450  93.474  21.478  0.00  0.00    +0.185 C 
ATOM     33  C   LIG    1      -34.433  93.842  22.395  0.00  0.00    +0.047 C 
BRANCH  31  34
ATOM     34  C   LIG    1      -33.765  92.113  19.264  0.00  0.00    +0.053 A 
ATOM     35  C   LIG    1      -34.008  90.751  18.965  0.00  0.00    +0.032 A 
ATOM     36  C   LIG    1      -33.631  90.258  17.715  0.00  0.00    -0.001 A 
ATOM     37  C   LIG    1      -33.850  88.932  17.092  0.00  0.00    +0.080 C 
ATOM     38  C   LIG    1      -33.354  89.209  15.665  0.00  0.00    +0.234 C 
ATOM     39  O   LIG    1      -32.650  90.466  15.623  0.00  0.00    -0.491 OA
ATOM     40  C   LIG    1      -32.948  91.057  16.818  0.00  0.00    +0.124 A 
ATOM     41  C   LIG    1      -32.647  92.362  17.100  0.00  0.00    +0.048 A 
ATOM     42  C   LIG    1      -33.144  92.905  18.286  0.00  0.00    +0.028 A 
ENDBRANCH  31  34
BRANCH  29  44
ATOM     43  C   LIG    1      -36.545  92.759  24.555  0.00  0.00    +0.017 C 
ATOM     44  C   LIG    1      -36.781  92.721  23.027  0.00  0.00    +0.003 C 
ATOM     45  C   LIG    1      -37.816  93.806  22.670  0.00  0.00    +0.017 C 
ATOM     46  C   LIG    1      -37.410  91.344  22.695  0.00  0.00    +0.017 C 
ENDBRANCH  29  44
ENDBRANCH  27  32
ENDBRANCH   1  27
BRANCH   1  47
ATOM     47  O   LIG    1      -30.675  95.442  21.650  0.00  0.00    -0.481 OA
ATOM     48  H   LIG    1      -31.109  95.492  20.765  0.00  0.00    +0.295 HD
ENDBRANCH   1  47
TORSDOF 10
ENDMDL
MODEL 3
REMARK VINA RESULT:      -6.5      8.569     13.576
REMARK  Name = pdb/CHEMBL3916029.pdb
REMARK                            x       y       z     vdW  Elec       q    Type
REMARK                         _______ _______ _______ _____ _____    ______ ____
ROOT
ATOM      1  C   LIG    1      -25.161  71.445  32.369  0.00  0.00    +0.282 C 
ATOM      2  N   LIG    1      -26.025  70.478  32.304  0.00  0.00    -0.197 NA
ENDROOT
BRANCH   2   3
ATOM      3  C   LIG    1      -27.368  70.637  31.849  0.00  0.00    +0.105 A 
ATOM      4  C   LIG    1      -27.631  70.838  30.527  0.00  0.00    +0.145 A 
ATOM      5  N   LIG    1      -28.832  70.803  29.931  0.00  0.00    -0.201 NA
ATOM      6  C   LIG    1      -29.917  70.726  30.693  0.00  0.00    +0.323 A 
ATOM      7  N   LIG    1      -29.836  70.688  32.040  0.00  0.00    -0.201 NA
ATOM      8  C   LIG    1      -28.557  70.640  32.584  0.00  0.00    +0.145 A 
BRANCH   6   9
ATOM      9  O   LIG    1      -31.180  70.661  30.049  0.00  0.00    -0.424 OA
BRANCH   9  10
ATOM     10  C   LIG    1      -31.850  71.843  29.710  0.00  0.00    +0.132 A 
ATOM     11  C   LIG    1      -31.237  73.100  29.925  0.00  0.00    +0.047 A 
ATOM     12  C   LIG    1      -31.845  74.327  29.504  0.00  0.00    +0.012 A 
ATOM     13  C   LIG    1      -33.101  74.323  28.890  0.00  0.00    -0.010 A 
ATOM     14  C   LIG    1      -33.693  73.061  28.720  0.00  0.00    +0.012 A 
ATOM     15  C   LIG    1      -33.080  71.866  29.074  0.00  0.00    +0.047 A 
BRANCH  13  16
ATOM     16  C   LIG    1      -33.830  75.520  28.411  0.00  0.00    +0.041 A 
ATOM     17  S   LIG    1      -33.679  76.970  29.332  0.00  0.00    -0.052 S 
ATOM     18  C   LIG    1      -34.713  77.806  28.299  0.00  0.00    +0.168 A 
ATOM     19  N   LIG    1      -35.151  77.130  27.277  0.00  0.00    -0.232 NA
ATOM     20  C   LIG    1      -34.675  75.811  27.347  0.00  0.00    +0.129 A 
BRANCH  18  21
ATOM     21  N   LIG    1      -34.941  79.108  28.702  0.00  0.00    -0.250 N 
ATOM     22  C   LIG    1      -34.438  80.188  27.915  0.00  0.00    +0.221 C 
ATOM     23  O   LIG    1      -33.820  80.180  26.930  0.00  0.00    -0.275 OA
ATOM     24  C   LIG    1      -34.756  81.451  28.689  0.00  0.00    +0.098 C 
ATOM     25  C   LIG    1      -35.843  81.023  29.673  0.00  0.00    +0.029 C 
ATOM     26  C   LIG    1      -35.496  79.564  29.939  0.00  0.00    +0.116 C 
ENDBRANCH  18  21
ENDBRANCH  13  16
ENDBRANCH   9  10
ENDBRANCH   6   9
ENDBRANCH   2   3
BRANCH   1  27
ATOM     27  N   LIG    1      -24.996  72.787  32.084  0.00  0.00    -0.270 N 
ATOM     28  H   LIG    1      -24.009  72.962  32.288  0.00  0.00    +0.153 HD
BRANCH  27  32
ATOM     29  C   LIG    1      -27.539  75.276  32.294  0.00  0.00    +0.053 C 
ATOM     30  N   LIG    1      -26.622  75.955  31.601  0.00  0.00    -0.151 NA
ATOM     31  N   LIG    1      -25.476  75.212  31.611  0.00  0.00    -0.202 N 
ATOM     32  C   LIG    1      -25.755  73.926  32.126  0.00  0.00    +0.185 C 
ATOM     33  C   LIG    1      -26.984  74.064  32.771  0.00  0.00    +0.047 C 
BRANCH  31  34
ATOM     34  C   LIG    1      -24.290  75.818  31.066  0.00  0.00    +0.053 A 
ATOM     35  C   LIG    1      -23.017  75.337  31.456  0.00  0.00    +0.032 A 
ATOM     36  C   LIG    1      -21.876  75.958  30.946  0.00  0.00    -0.001 A 
ATOM     37  C   LIG    1      -20.443  75.613  31.087  0.00  0.00    +0.080 C 
ATOM     38  C   LIG    1      -19.819  76.603  30.092  0.00  0.00    +0.234 C 
ATOM     39  O   LIG    1      -20.796  77.588  29.697  0.00  0.00    -0.491 OA
ATOM     40  C   LIG    1      -21.982  77.081  30.149  0.00  0.00    +0.124 A 
ATOM     41  C   LIG    1      -23.196  77.606  29.800  0.00  0.00    +0.048 A 
ATOM     42  C   LIG    1      -24.343  76.911  30.186  0.00  0.00    +0.028 A 
ENDBRANCH  31  34
BRANCH  29  44
ATOM     43  C   LIG    1      -28.936  77.026  33.558  0.00  0.00    +0.017 C 
ATOM     44  C   LIG    1      -28.930  75.886  32.512  0.00  0.00    +0.003 C 
ATOM     45  C   LIG    1      -29.478  76.446  31.184  0.00  0.00    +0.017 C 
ATOM     46  C   LIG    1      -29.918  74.802  33.010  0.00  0.00    +0.017 C 
ENDBRANCH  29  44
ENDBRANCH  27  32
ENDBRANCH   1  27
BRANCH   1  47
ATOM     47  O   LIG    1      -24.006  71.135  33.002  0.00  0.00    -0.481 OA
ATOM     48  H   LIG    1      -23.301  71.761  32.712  0.00  0.00    +0.295 HD
ENDBRANCH   1  47
TORSDOF 10
ENDMDL
MODEL 4
REMARK VINA RESULT:      -6.5      4.144      9.806
REMARK  Name = pdb/CHEMBL3916029.pdb
REMARK                            x       y       z     vdW  Elec       q    Type
REMARK                         _______ _______ _______ _____ _____    ______ ____
ROOT
ATOM      1  C   LIG    1      -40.610  69.905  22.213  0.00  0.00    +0.282 C 
ATOM      2  N   LIG    1      -40.436  69.187  21.147  0.00  0.00    -0.197 NA
ENDROOT
BRANCH   2   3
ATOM      3  C   LIG    1      -39.391  68.227  20.992  0.00  0.00    +0.105 A 
ATOM      4  C   LIG    1      -38.103  68.631  20.808  0.00  0.00    +0.145 A 
ATOM      5  N   LIG    1      -37.005  67.861  20.849  0.00  0.00    -0.201 NA
ATOM      6  C   LIG    1      -37.155  66.543  20.917  0.00  0.00    +0.323 A 
ATOM      7  N   LIG    1      -38.376  65.969  20.939  0.00  0.00    -0.201 NA
ATOM      8  C   LIG    1      -39.467  66.832  20.980  0.00  0.00    +0.145 A 
BRANCH   6   9
ATOM      9  O   LIG    1      -35.985  65.743  20.989  0.00  0.00    -0.424 OA
BRANCH   9  10
ATOM     10  C   LIG    1      -34.870  66.069  20.207  0.00  0.00    +0.132 A 
ATOM     11  C   LIG    1      -34.976  66.127  18.798  0.00  0.00    +0.047 A 
ATOM     12  C   LIG    1      -33.887  66.550  17.969  0.00  0.00    +0.012 A 
ATOM     13  C   LIG    1      -32.654  66.888  18.533  0.00  0.00    -0.010 A 
ATOM     14  C   LIG    1      -32.576  66.791  19.931  0.00  0.00    +0.012 A 
ATOM     15  C   LIG    1      -33.647  66.438  20.743  0.00  0.00    +0.047 A 
BRANCH  13  16
ATOM     16  C   LIG    1      -31.458  67.339  17.784  0.00  0.00    +0.041 A 
ATOM     17  S   LIG    1      -30.538  68.635  18.452  0.00  0.00    -0.052 S 
ATOM     18  C   LIG    1      -29.463  68.621  17.156  0.00  0.00    +0.168 A 
ATOM     19  N   LIG    1      -29.679  67.703  16.260  0.00  0.00    -0.232 NA
ATOM     20  C   LIG    1      -30.836  66.982  16.594  0.00  0.00    +0.129 A 
BRANCH  18  21
ATOM     21  N   LIG    1      -28.496  69.604  17.246  0.00  0.00    -0.250 N 
ATOM     22  C   LIG    1      -27.235  69.300  17.843  0.00  0.00    +0.221 C 
ATOM     23  O   LIG    1      -26.840  68.310  18.311  0.00  0.00    -0.275 OA
ATOM     24  C   LIG    1      -26.469  70.607  17.888  0.00  0.00    +0.098 C 
ATOM     25  C   LIG    1      -27.192  71.498  16.879  0.00  0.00    +0.029 C 
ATOM     26  C   LIG    1      -28.628  70.999  16.963  0.00  0.00    +0.116 C 
ENDBRANCH  18  21
ENDBRANCH  13  16
ENDBRANCH   9  10
ENDBRANCH   6   9
ENDBRANCH   2   3
BRANCH   1  27
ATOM     27  N   LIG    1      -40.118  70.110  23.489  0.00  0.00    -0.270 N 
ATOM     28  H   LIG    1      -40.903  70.533  23.990  0.00  0.00    +0.153 HD
BRANCH  27  32
ATOM     29  C   LIG    1      -36.962  70.098  25.147  0.00  0.00    +0.053 C 
ATOM     30  N   LIG    1      -37.299  71.377  25.322  0.00  0.00    -0.151 NA
ATOM     31  N   LIG    1      -38.403  71.614  24.554  0.00  0.00    -0.202 N 
ATOM     32  C   LIG    1      -38.908  70.386  24.068  0.00  0.00    +0.185 C 
ATOM     33  C   LIG    1      -37.862  69.481  24.245  0.00  0.00    +0.047 C 
BRANCH  31  34
ATOM     34  C   LIG    1      -38.856  72.976  24.446  0.00  0.00    +0.053 A 
ATOM     35  C   LIG    1      -38.039  74.024  24.934  0.00  0.00    +0.032 A 
ATOM     36  C   LIG    1      -38.506  75.336  24.853  0.00  0.00    -0.001 A 
ATOM     37  C   LIG    1      -37.844  76.621  25.176  0.00  0.00    +0.080 C 
ATOM     38  C   LIG    1      -38.884  77.615  24.638  0.00  0.00    +0.234 C 
ATOM     39  O   LIG    1      -40.117  76.927  24.344  0.00  0.00    -0.491 OA
ATOM     40  C   LIG    1      -39.781  75.604  24.393  0.00  0.00    +0.124 A 
ATOM     41  C   LIG    1      -40.618  74.607  23.967  0.00  0.00    +0.048 A 
ATOM     42  C   LIG    1      -40.109  73.308  23.909  0.00  0.00    +0.028 A 
ENDBRANCH  31  34
BRANCH  29  44
ATOM     43  C   LIG    1      -36.022  68.878  27.206  0.00  0.00    +0.017 C 
ATOM     44  C   LIG    1      -35.713  69.541  25.842  0.00  0.00    +0.003 C 
ATOM     45  C   LIG    1      -35.026  68.496  24.941  0.00  0.00    +0.017 C 
ATOM     46  C   LIG    1      -34.695  70.678  26.105  0.00  0.00    +0.017 C 
ENDBRANCH  29  44
ENDBRANCH  27  32
ENDBRANCH   1  27
BRANCH   1  47
ATOM     47  O   LIG    1      -41.533  70.887  22.095  0.00  0.00    -0.481 OA
ATOM     48  H   LIG    1      -41.698  71.285  22.982  0.00  0.00    +0.295 HD
ENDBRANCH   1  47
TORSDOF 10
ENDMDL
MODEL 5
REMARK VINA RESULT:      -6.5     17.220     21.000
REMARK  Name = pdb/CHEMBL3916029.pdb
REMARK                            x       y       z     vdW  Elec       q    Type
REMARK                         _______ _______ _______ _____ _____    ______ ____
ROOT
ATOM      1  C   LIG    1      -24.985  79.055  36.255  0.00  0.00    +0.282 C 
ATOM      2  N   LIG    1      -25.345  79.837  37.226  0.00  0.00    -0.197 NA
ENDROOT
BRANCH   2   3
ATOM      3  C   LIG    1      -25.690  81.212  37.058  0.00  0.00    +0.105 A 
ATOM      4  C   LIG    1      -26.955  81.644  37.316  0.00  0.00    +0.145 A 
ATOM      5  N   LIG    1      -27.370  82.917  37.397  0.00  0.00    -0.201 NA
ATOM      6  C   LIG    1      -26.530  83.882  37.041  0.00  0.00    +0.323 A 
ATOM      7  N   LIG    1      -25.284  83.611  36.598  0.00  0.00    -0.201 NA
ATOM      8  C   LIG    1      -24.895  82.275  36.623  0.00  0.00    +0.145 A 
BRANCH   6   9
ATOM      9  O   LIG    1      -26.972  85.226  37.158  0.00  0.00    -0.424 OA
BRANCH   9  10
ATOM     10  C   LIG    1      -27.748  85.795  36.140  0.00  0.00    +0.132 A 
ATOM     11  C   LIG    1      -27.245  86.872  35.374  0.00  0.00    +0.047 A 
ATOM     12  C   LIG    1      -27.964  87.419  34.263  0.00  0.00    +0.012 A 
ATOM     13  C   LIG    1      -29.225  86.921  33.919  0.00  0.00    -0.010 A 
ATOM     14  C   LIG    1      -29.706  85.873  34.719  0.00  0.00    +0.012 A 
ATOM     15  C   LIG    1      -28.984  85.302  35.760  0.00  0.00    +0.047 A 
BRANCH  13  16
ATOM     16  C   LIG    1      -30.063  87.400  32.795  0.00  0.00    +0.041 A 
ATOM     17  S   LIG    1      -31.319  86.361  32.235  0.00  0.00    -0.052 S 
ATOM     18  C   LIG    1      -31.774  87.455  31.038  0.00  0.00    +0.168 A 
ATOM     19  N   LIG    1      -31.109  88.573  31.020  0.00  0.00    -0.232 NA
ATOM     20  C   LIG    1      -30.108  88.541  32.003  0.00  0.00    +0.129 A 
BRANCH  18  21
ATOM     21  N   LIG    1      -32.803  86.988  30.244  0.00  0.00    -0.250 N 
ATOM     22  C   LIG    1      -34.109  87.550  30.381  0.00  0.00    +0.221 C 
ATOM     23  O   LIG    1      -34.502  88.383  31.092  0.00  0.00    -0.275 OA
ATOM     24  C   LIG    1      -35.008  86.745  29.464  0.00  0.00    +0.098 C 
ATOM     25  C   LIG    1      -34.040  86.051  28.508  0.00  0.00    +0.029 C 
ATOM     26  C   LIG    1      -32.801  85.856  29.370  0.00  0.00    +0.116 C 
ENDBRANCH  18  21
ENDBRANCH  13  16
ENDBRANCH   9  10
ENDBRANCH   6   9
ENDBRANCH   2   3
BRANCH   1  27
ATOM     27  N   LIG    1      -24.813  79.017  34.884  0.00  0.00    -0.270 N 
ATOM     28  H   LIG    1      -25.726  78.722  34.530  0.00  0.00    +0.153 HD
BRANCH  27  32
ATOM     29  C   LIG    1      -22.659  77.903  32.271  0.00  0.00    +0.053 C 
ATOM     30  N   LIG    1      -21.744  78.266  33.173  0.00  0.00    -0.151 NA
ATOM     31  N   LIG    1      -22.400  78.924  34.174  0.00  0.00    -0.202 N 
ATOM     32  C   LIG    1      -23.794  78.763  34.005  0.00  0.00    +0.185 C 
ATOM     33  C   LIG    1      -23.942  78.334  32.686  0.00  0.00    +0.047 C 
BRANCH  31  34
ATOM     34  C   LIG    1      -21.598  79.561  35.185  0.00  0.00    +0.053 A 
ATOM     35  C   LIG    1      -21.783  80.936  35.460  0.00  0.00    +0.032 A 
ATOM     36  C   LIG    1      -20.975  81.547  36.419  0.00  0.00    -0.001 A 
ATOM     37  C   LIG    1      -21.009  82.915  36.984  0.00  0.00    +0.080 C 
ATOM     38  C   LIG    1      -19.974  82.778  38.111  0.00  0.00    +0.234 C 
ATOM     39  O   LIG    1      -19.236  81.549  37.956  0.00  0.00    -0.491 OA
ATOM     40  C   LIG    1      -19.947  80.848  37.023  0.00  0.00    +0.124 A 
ATOM     41  C   LIG    1      -19.704  79.532  36.736  0.00  0.00    +0.048 A 
ATOM     42  C   LIG    1      -20.595  78.874  35.887  0.00  0.00    +0.028 A 
ENDBRANCH  31  34
BRANCH  29  44
ATOM     43  C   LIG    1      -20.798  77.594  30.524  0.00  0.00    +0.017 C 
ATOM     44  C   LIG    1      -22.218  77.188  30.988  0.00  0.00    +0.003 C 
ATOM     45  C   LIG    1      -22.239  75.660  31.198  0.00  0.00    +0.017 C 
ATOM     46  C   LIG    1      -23.191  77.518  29.829  0.00  0.00    +0.017 C 
ENDBRANCH  29  44
ENDBRANCH  27  32
ENDBRANCH   1  27
BRANCH   1  47
ATOM     47  O   LIG    1      -24.519  77.845  36.642  0.00  0.00    -0.481 OA
ATOM     48  H   LIG    1      -24.426  77.833  37.624  0.00  0.00    +0.295 HD
ENDBRANCH   1  47
TORSDOF 10
ENDMDL
MODEL 6
REMARK VINA RESULT:      -6.5      1.581      2.175
REMARK  Name = pdb/CHEMBL3916029.pdb
REMARK                            x       y       z     vdW  Elec       q    Type
REMARK                         _______ _______ _______ _____ _____    ______ ____
ROOT
ATOM      1  C   LIG    1      -39.959  66.872  24.727  0.00  0.00    +0.282 C 
ATOM      2  N   LIG    1      -41.093  67.499  24.666  0.00  0.00    -0.197 NA
ENDROOT
BRANCH   2   3
ATOM      3  C   LIG    1      -41.259  68.793  24.087  0.00  0.00    +0.105 A 
ATOM      4  C   LIG    1      -41.863  69.792  24.789  0.00  0.00    +0.145 A 
ATOM      5  N   LIG    1      -41.909  71.092  24.461  0.00  0.00    -0.201 NA
ATOM      6  C   LIG    1      -41.471  71.461  23.263  0.00  0.00    +0.323 A 
ATOM      7  N   LIG    1      -40.992  70.563  22.376  0.00  0.00    -0.201 NA
ATOM      8  C   LIG    1      -40.895  69.247  22.816  0.00  0.00    +0.145 A 
BRANCH   6   9
ATOM      9  O   LIG    1      -41.499  72.842  22.940  0.00  0.00    -0.424 OA
BRANCH   9  10
ATOM     10  C   LIG    1      -40.656  73.732  23.617  0.00  0.00    +0.132 A 
ATOM     11  C   LIG    1      -41.020  75.091  23.764  0.00  0.00    +0.047 A 
ATOM     12  C   LIG    1      -40.236  76.012  24.532  0.00  0.00    +0.012 A 
ATOM     13  C   LIG    1      -39.046  75.598  25.139  0.00  0.00    -0.010 A 
ATOM     14  C   LIG    1      -38.701  74.251  24.948  0.00  0.00    +0.012 A 
ATOM     15  C   LIG    1      -39.489  73.342  24.253  0.00  0.00    +0.047 A 
BRANCH  13  16
ATOM     16  C   LIG    1      -38.153  76.451  25.956  0.00  0.00    +0.041 A 
ATOM     17  S   LIG    1      -36.752  75.717  26.642  0.00  0.00    -0.052 S 
ATOM     18  C   LIG    1      -36.291  77.153  27.391  0.00  0.00    +0.168 A 
ATOM     19  N   LIG    1      -37.058  78.178  27.155  0.00  0.00    -0.232 NA
ATOM     20  C   LIG    1      -38.142  77.782  26.358  0.00  0.00    +0.129 A 
BRANCH  18  21
ATOM     21  N   LIG    1      -35.148  77.021  28.156  0.00  0.00    -0.250 N 
ATOM     22  C   LIG    1      -33.880  77.356  27.591  0.00  0.00    +0.221 C 
ATOM     23  O   LIG    1      -33.605  77.741  26.528  0.00  0.00    -0.275 OA
ATOM     24  C   LIG    1      -32.847  76.988  28.637  0.00  0.00    +0.098 C 
ATOM     25  C   LIG    1      -33.650  76.881  29.932  0.00  0.00    +0.029 C 
ATOM     26  C   LIG    1      -35.013  76.413  29.443  0.00  0.00    +0.116 C 
ENDBRANCH  18  21
ENDBRANCH  13  16
ENDBRANCH   9  10
ENDBRANCH   6   9
ENDBRANCH   2   3
BRANCH   1  27
ATOM     27  N   LIG    1      -38.632  66.967  24.353  0.00  0.00    -0.270 N 
ATOM     28  H   LIG    1      -38.364  66.002  24.148  0.00  0.00    +0.153 HD
BRANCH  27  32
ATOM     29  C   LIG    1      -36.281  69.306  25.661  0.00  0.00    +0.053 C 
ATOM     30  N   LIG    1      -35.805  69.184  24.421  0.00  0.00    -0.151 NA
ATOM     31  N   LIG    1      -36.471  68.148  23.831  0.00  0.00    -0.202 N 
ATOM     32  C   LIG    1      -37.558  67.764  24.649  0.00  0.00    +0.185 C 
ATOM     33  C   LIG    1      -37.279  68.329  25.893  0.00  0.00    +0.047 C 
BRANCH  31  34
ATOM     34  C   LIG    1      -36.011  67.715  22.538  0.00  0.00    +0.053 A 
ATOM     35  C   LIG    1      -36.841  67.892  21.405  0.00  0.00    +0.032 A 
ATOM     36  C   LIG    1      -36.395  67.436  20.165  0.00  0.00    -0.001 A 
ATOM     37  C   LIG    1      -36.986  67.574  18.813  0.00  0.00    +0.080 C 
ATOM     38  C   LIG    1      -35.842  67.018  17.951  0.00  0.00    +0.234 C 
ATOM     39  O   LIG    1      -34.869  66.360  18.787  0.00  0.00    -0.491 OA
ATOM     40  C   LIG    1      -35.207  66.739  20.055  0.00  0.00    +0.124 A 
ATOM     41  C   LIG    1      -34.408  66.501  21.141  0.00  0.00    +0.048 A 
ATOM     42  C   LIG    1      -34.774  67.076  22.359  0.00  0.00    +0.028 A 
ENDBRANCH  31  34
BRANCH  29  44
ATOM     43  C   LIG    1      -35.604  69.883  28.074  0.00  0.00    +0.017 C 
ATOM     44  C   LIG    1      -35.682  70.358  26.603  0.00  0.00    +0.003 C 
ATOM     45  C   LIG    1      -34.261  70.738  26.142  0.00  0.00    +0.017 C 
ATOM     46  C   LIG    1      -36.544  71.646  26.584  0.00  0.00    +0.017 C 
ENDBRANCH  29  44
ENDBRANCH  27  32
ENDBRANCH   1  27
BRANCH   1  47
ATOM     47  O   LIG    1      -39.971  65.746  25.479  0.00  0.00    -0.481 OA
ATOM     48  H   LIG    1      -40.157  64.971  24.897  0.00  0.00    +0.295 HD
ENDBRANCH   1  47
TORSDOF 10
ENDMDL
MODEL 7
REMARK VINA RESULT:      -6.4      1.538      4.163
REMARK  Name = pdb/CHEMBL3916029.pdb
REMARK                            x       y       z     vdW  Elec       q    Type
REMARK                         _______ _______ _______ _____ _____    ______ ____
ROOT
ATOM      1  C   LIG    1      -39.448  65.614  22.604  0.00  0.00    +0.282 C 
ATOM      2  N   LIG    1      -40.653  65.951  22.259  0.00  0.00    -0.197 NA
ENDROOT
BRANCH   2   3
ATOM      3  C   LIG    1      -41.122  67.298  22.212  0.00  0.00    +0.105 A 
ATOM      4  C   LIG    1      -42.057  67.736  23.101  0.00  0.00    +0.145 A 
ATOM      5  N   LIG    1      -42.440  69.005  23.306  0.00  0.00    -0.201 NA
ATOM      6  C   LIG    1      -42.004  69.943  22.473  0.00  0.00    +0.323 A 
ATOM      7  N   LIG    1      -41.198  69.647  21.431  0.00  0.00    -0.201 NA
ATOM      8  C   LIG    1      -40.774  68.325  21.331  0.00  0.00    +0.145 A 
BRANCH   6   9
ATOM      9  O   LIG    1      -42.393  71.285  22.718  0.00  0.00    -0.424 OA
BRANCH   9  10
ATOM     10  C   LIG    1      -41.454  72.205  23.201  0.00  0.00    +0.132 A 
ATOM     11  C   LIG    1      -41.733  73.591  23.179  0.00  0.00    +0.047 A 
ATOM     12  C   LIG    1      -40.843  74.557  23.750  0.00  0.00    +0.012 A 
ATOM     13  C   LIG    1      -39.633  74.156  24.324  0.00  0.00    -0.010 A 
ATOM     14  C   LIG    1      -39.375  72.777  24.303  0.00  0.00    +0.012 A 
ATOM     15  C   LIG    1      -40.263  71.832  23.802  0.00  0.00    +0.047 A 
BRANCH  13  16
ATOM     16  C   LIG    1      -38.634  75.056  24.946  0.00  0.00    +0.041 A 
ATOM     17  S   LIG    1      -37.644  74.408  26.199  0.00  0.00    -0.052 S 
ATOM     18  C   LIG    1      -36.858  75.881  26.424  0.00  0.00    +0.168 A 
ATOM     19  N   LIG    1      -37.221  76.837  25.619  0.00  0.00    -0.232 NA
ATOM     20  C   LIG    1      -38.258  76.385  24.788  0.00  0.00    +0.129 A 
BRANCH  18  21
ATOM     21  N   LIG    1      -35.930  75.846  27.446  0.00  0.00    -0.250 N 
ATOM     22  C   LIG    1      -35.209  77.032  27.783  0.00  0.00    +0.221 C 
ATOM     23  O   LIG    1      -35.252  78.099  27.321  0.00  0.00    -0.275 OA
ATOM     24  C   LIG    1      -34.208  76.624  28.845  0.00  0.00    +0.098 C 
ATOM     25  C   LIG    1      -34.745  75.295  29.374  0.00  0.00    +0.029 C 
ATOM     26  C   LIG    1      -35.436  74.705  28.152  0.00  0.00    +0.116 C 
ENDBRANCH  18  21
ENDBRANCH  13  16
ENDBRANCH   9  10
ENDBRANCH   6   9
ENDBRANCH   2   3
BRANCH   1  27
ATOM     27  N   LIG    1      -38.224  66.142  22.968  0.00  0.00    -0.270 N 
ATOM     28  H   LIG    1      -38.445  66.755  23.757  0.00  0.00    +0.153 HD
BRANCH  27  32
ATOM     29  C   LIG    1      -35.259  66.367  21.002  0.00  0.00    +0.053 C 
ATOM     30  N   LIG    1      -34.914  67.165  22.014  0.00  0.00    -0.151 NA
ATOM     31  N   LIG    1      -36.032  67.365  22.772  0.00  0.00    -0.202 N 
ATOM     32  C   LIG    1      -37.049  66.478  22.350  0.00  0.00    +0.185 C 
ATOM     33  C   LIG    1      -36.633  66.038  21.094  0.00  0.00    +0.047 C 
BRANCH  31  34
ATOM     34  C   LIG    1      -35.949  68.333  23.834  0.00  0.00    +0.053 A 
ATOM     35  C   LIG    1      -34.907  68.238  24.786  0.00  0.00    +0.032 A 
ATOM     36  C   LIG    1      -34.859  69.163  25.829  0.00  0.00    -0.001 A 
ATOM     37  C   LIG    1      -33.847  69.374  26.890  0.00  0.00    +0.080 C 
ATOM     38  C   LIG    1      -34.365  70.679  27.513  0.00  0.00    +0.234 C 
ATOM     39  O   LIG    1      -35.695  70.961  27.033  0.00  0.00    -0.491 OA
ATOM     40  C   LIG    1      -35.862  70.100  25.986  0.00  0.00    +0.124 A 
ATOM     41  C   LIG    1      -36.915  70.181  25.116  0.00  0.00    +0.048 A 
ATOM     42  C   LIG    1      -36.897  69.356  23.990  0.00  0.00    +0.028 A 
ENDBRANCH  31  34
BRANCH  29  44
ATOM     43  C   LIG    1      -33.979  64.479  19.815  0.00  0.00    +0.017 C 
ATOM     44  C   LIG    1      -34.219  66.003  19.934  0.00  0.00    +0.003 C 
ATOM     45  C   LIG    1      -34.665  66.531  18.556  0.00  0.00    +0.017 C 
ATOM     46  C   LIG    1      -32.856  66.657  20.271  0.00  0.00    +0.017 C 
ENDBRANCH  29  44
ENDBRANCH  27  32
ENDBRANCH   1  27
BRANCH   1  47
ATOM     47  O   LIG    1      -39.254  64.285  22.769  0.00  0.00    -0.481 OA
ATOM     48  H   LIG    1      -40.103  63.811  22.604  0.00  0.00    +0.295 HD
ENDBRANCH   1  47
TORSDOF 10
ENDMDL
MODEL 8
REMARK VINA RESULT:      -6.4      4.500     12.353
REMARK  Name = pdb/CHEMBL3916029.pdb
REMARK                            x       y       z     vdW  Elec       q    Type
REMARK                         _______ _______ _______ _____ _____    ______ ____
ROOT
ATOM      1  C   LIG    1      -38.176  79.911  30.289  0.00  0.00    +0.282 C 
ATOM      2  N   LIG    1      -39.280  79.745  29.628  0.00  0.00    -0.197 NA
ENDROOT
BRANCH   2   3
ATOM      3  C   LIG    1      -39.367  79.057  28.381  0.00  0.00    +0.105 A 
ATOM      4  C   LIG    1      -40.095  77.910  28.274  0.00  0.00    +0.145 A 
ATOM      5  N   LIG    1      -40.430  77.272  27.143  0.00  0.00    -0.201 NA
ATOM      6  C   LIG    1      -39.887  77.678  26.000  0.00  0.00    +0.323 A 
ATOM      7  N   LIG    1      -39.010  78.702  25.957  0.00  0.00    -0.201 NA
ATOM      8  C   LIG    1      -38.776  79.370  27.155  0.00  0.00    +0.145 A 
BRANCH   6   9
ATOM      9  O   LIG    1      -40.273  77.013  24.807  0.00  0.00    -0.424 OA
BRANCH   9  10
ATOM     10  C   LIG    1      -39.893  75.681  24.599  0.00  0.00    +0.132 A 
ATOM     11  C   LIG    1      -38.638  75.215  25.052  0.00  0.00    +0.047 A 
ATOM     12  C   LIG    1      -38.251  73.840  24.946  0.00  0.00    +0.012 A 
ATOM     13  C   LIG    1      -39.103  72.907  24.347  0.00  0.00    -0.010 A 
ATOM     14  C   LIG    1      -40.328  73.410  23.883  0.00  0.00    +0.012 A 
ATOM     15  C   LIG    1      -40.730  74.731  24.037  0.00  0.00    +0.047 A 
BRANCH  13  16
ATOM     16  C   LIG    1      -38.818  71.463  24.181  0.00  0.00    +0.041 A 
ATOM     17  S   LIG    1      -37.280  70.886  24.703  0.00  0.00    -0.052 S 
ATOM     18  C   LIG    1      -37.633  69.315  24.210  0.00  0.00    +0.168 A 
ATOM     19  N   LIG    1      -38.824  69.138  23.717  0.00  0.00    -0.232 NA
ATOM     20  C   LIG    1      -39.501  70.366  23.669  0.00  0.00    +0.129 A 
BRANCH  18  21
ATOM     21  N   LIG    1      -36.584  68.438  24.407  0.00  0.00    -0.250 N 
ATOM     22  C   LIG    1      -35.824  67.984  23.287  0.00  0.00    +0.221 C 
ATOM     23  O   LIG    1      -35.933  68.224  22.153  0.00  0.00    -0.275 OA
ATOM     24  C   LIG    1      -34.847  66.962  23.832  0.00  0.00    +0.098 C 
ATOM     25  C   LIG    1      -34.815  67.240  25.333  0.00  0.00    +0.029 C 
ATOM     26  C   LIG    1      -36.222  67.752  25.608  0.00  0.00    +0.116 C 
ENDBRANCH  18  21
ENDBRANCH  13  16
ENDBRANCH   9  10
ENDBRANCH   6   9
ENDBRANCH   2   3
BRANCH   1  27
ATOM     27  N   LIG    1      -36.830  79.595  30.273  0.00  0.00    -0.270 N 
ATOM     28  H   LIG    1      -36.471  80.001  31.140  0.00  0.00    +0.153 HD
BRANCH  27  32
ATOM     29  C   LIG    1      -34.147  78.476  28.210  0.00  0.00    +0.053 C 
ATOM     30  N   LIG    1      -34.099  79.783  27.945  0.00  0.00    -0.151 NA
ATOM     31  N   LIG    1      -35.212  80.349  28.498  0.00  0.00    -0.202 N 
ATOM     32  C   LIG    1      -35.853  79.404  29.333  0.00  0.00    +0.185 C 
ATOM     33  C   LIG    1      -35.315  78.176  28.950  0.00  0.00    +0.047 C 
BRANCH  31  34
ATOM     34  C   LIG    1      -35.470  81.733  28.199  0.00  0.00    +0.053 A 
ATOM     35  C   LIG    1      -35.936  82.095  26.913  0.00  0.00    +0.032 A 
ATOM     36  C   LIG    1      -36.149  83.444  26.628  0.00  0.00    -0.001 A 
ATOM     37  C   LIG    1      -36.723  84.101  25.431  0.00  0.00    +0.080 C 
ATOM     38  C   LIG    1      -36.829  85.549  25.931  0.00  0.00    +0.234 C 
ATOM     39  O   LIG    1      -36.091  85.701  27.161  0.00  0.00    -0.491 OA
ATOM     40  C   LIG    1      -35.821  84.419  27.549  0.00  0.00    +0.124 A 
ATOM     41  C   LIG    1      -35.313  84.106  28.781  0.00  0.00    +0.048 A 
ATOM     42  C   LIG    1      -35.232  82.757  29.130  0.00  0.00    +0.028 A 
ENDBRANCH  31  34
BRANCH  29  44
ATOM     43  C   LIG    1      -32.269  78.170  26.481  0.00  0.00    +0.017 C 
ATOM     44  C   LIG    1      -33.051  77.551  27.664  0.00  0.00    +0.003 C 
ATOM     45  C   LIG    1      -32.046  77.202  28.779  0.00  0.00    +0.017 C 
ATOM     46  C   LIG    1      -33.673  76.225  27.158  0.00  0.00    +0.017 C 
ENDBRANCH  29  44
ENDBRANCH  27  32
ENDBRANCH   1  27
BRANCH   1  47
ATOM     47  O   LIG    1      -38.266  80.749  31.348  0.00  0.00    -0.481 OA
ATOM     48  H   LIG    1      -37.385  81.163  31.509  0.00  0.00    +0.295 HD
ENDBRANCH   1  47
TORSDOF 10
ENDMDL
MODEL 9
REMARK VINA RESULT:      -6.3      5.336     12.882
REMARK  Name = pdb/CHEMBL3916029.pdb
REMARK                            x       y       z     vdW  Elec       q    Type
REMARK                         _______ _______ _______ _____ _____    ______ ____
ROOT
ATOM      1  C   LIG    1      -38.160  80.214  31.162  0.00  0.00    +0.282 C 
ATOM      2  N   LIG    1      -38.819  79.608  30.223  0.00  0.00    -0.197 NA
ENDROOT
BRANCH   2   3
ATOM      3  C   LIG    1      -38.205  78.938  29.123  0.00  0.00    +0.105 A 
ATOM      4  C   LIG    1      -37.981  77.595  29.169  0.00  0.00    +0.145 A 
ATOM      5  N   LIG    1      -37.605  76.807  28.150  0.00  0.00    -0.201 NA
ATOM      6  C   LIG    1      -37.252  77.376  27.004  0.00  0.00    +0.323 A 
ATOM      7  N   LIG    1      -37.257  78.716  26.846  0.00  0.00    -0.201 NA
ATOM      8  C   LIG    1      -37.740  79.465  27.915  0.00  0.00    +0.145 A 
BRANCH   6   9
ATOM      9  O   LIG    1      -36.883  76.529  25.926  0.00  0.00    -0.424 OA
BRANCH   9  10
ATOM     10  C   LIG    1      -37.855  75.738  25.299  0.00  0.00    +0.132 A 
ATOM     11  C   LIG    1      -37.738  74.329  25.296  0.00  0.00    +0.047 A 
ATOM     12  C   LIG    1      -38.756  73.481  24.751  0.00  0.00    +0.012 A 
ATOM     13  C   LIG    1      -39.898  74.030  24.162  0.00  0.00    -0.010 A 
ATOM     14  C   LIG    1      -39.967  75.432  24.156  0.00  0.00    +0.012 A 
ATOM     15  C   LIG    1      -39.009  76.256  24.736  0.00  0.00    +0.047 A 
BRANCH  13  16
ATOM     16  C   LIG    1      -41.016  73.261  23.569  0.00  0.00    +0.041 A 
ATOM     17  S   LIG    1      -40.886  71.543  23.554  0.00  0.00    -0.052 S 
ATOM     18  C   LIG    1      -42.366  71.376  22.769  0.00  0.00    +0.168 A 
ATOM     19  N   LIG    1      -43.005  72.485  22.537  0.00  0.00    -0.232 NA
ATOM     20  C   LIG    1      -42.229  73.573  22.965  0.00  0.00    +0.129 A 
BRANCH  18  21
ATOM     21  N   LIG    1      -42.681  70.061  22.485  0.00  0.00    -0.250 N 
ATOM     22  C   LIG    1      -42.672  69.610  21.130  0.00  0.00    +0.221 C 
ATOM     23  O   LIG    1      -42.439  70.184  20.145  0.00  0.00    -0.275 OA
ATOM     24  C   LIG    1      -43.171  68.179  21.163  0.00  0.00    +0.098 C 
ATOM     25  C   LIG    1      -43.000  67.758  22.621  0.00  0.00    +0.029 C 
ATOM     26  C   LIG    1      -43.201  69.067  23.372  0.00  0.00    +0.116 C 
ENDBRANCH  18  21
ENDBRANCH  13  16
ENDBRANCH   9  10
ENDBRANCH   6   9
ENDBRANCH   2   3
BRANCH   1  27
ATOM     27  N   LIG    1      -36.879  80.476  31.609  0.00  0.00    -0.270 N 
ATOM     28  H   LIG    1      -36.916  80.256  32.607  0.00  0.00    +0.153 HD
BRANCH  27  32
ATOM     29  C   LIG    1      -34.638  83.210  31.148  0.00  0.00    +0.053 C 
ATOM     30  N   LIG    1      -34.268  82.444  30.119  0.00  0.00    -0.151 NA
ATOM     31  N   LIG    1      -34.890  81.237  30.268  0.00  0.00    -0.202 N 
ATOM     32  C   LIG    1      -35.858  81.333  31.293  0.00  0.00    +0.185 C 
ATOM     33  C   LIG    1      -35.519  82.491  31.991  0.00  0.00    +0.047 C 
BRANCH  31  34
ATOM     34  C   LIG    1      -34.512  80.182  29.365  0.00  0.00    +0.053 A 
ATOM     35  C   LIG    1      -34.508  78.842  29.820  0.00  0.00    +0.032 A 
ATOM     36  C   LIG    1      -34.107  77.834  28.943  0.00  0.00    -0.001 A 
ATOM     37  C   LIG    1      -34.103  76.361  29.099  0.00  0.00    +0.080 C 
ATOM     38  C   LIG    1      -33.738  75.930  27.670  0.00  0.00    +0.234 C 
ATOM     39  O   LIG    1      -33.285  77.069  26.912  0.00  0.00    -0.491 OA
ATOM     40  C   LIG    1      -33.631  78.143  27.683  0.00  0.00    +0.124 A 
ATOM     41  C   LIG    1      -33.567  79.434  27.234  0.00  0.00    +0.048 A 
ATOM     42  C   LIG    1      -34.099  80.435  28.047  0.00  0.00    +0.028 A 
ENDBRANCH  31  34
BRANCH  29  44
ATOM     43  C   LIG    1      -33.440  84.884  32.688  0.00  0.00    +0.017 C 
ATOM     44  C   LIG    1      -34.054  84.621  31.292  0.00  0.00    +0.003 C 
ATOM     45  C   LIG    1      -32.959  84.853  30.231  0.00  0.00    +0.017 C 
ATOM     46  C   LIG    1      -35.159  85.683  31.069  0.00  0.00    +0.017 C 
ENDBRANCH  29  44
ENDBRANCH  27  32
ENDBRANCH   1  27
BRANCH   1  47
ATOM     47  O   LIG    1      -38.920  80.947  32.009  0.00  0.00    -0.481 OA
ATOM     48  H   LIG    1      -39.303  80.352  32.697  0.00  0.00    +0.295 HD
ENDBRANCH   1  47
TORSDOF 10
ENDMDL
