MODEL 1
REMARK VINA RESULT:      -7.2      0.000      0.000
REMARK  Name = pdb/CHEMBL370493.pdb
REMARK                            x       y       z     vdW  Elec       q    Type
REMARK                         _______ _______ _______ _____ _____    ______ ____
ROOT
ATOM      1  N   LIG    1      -42.492  72.638  22.830  0.00  0.00    -0.311 N 
ATOM      2  C   LIG    1      -41.657  73.612  23.338  0.00  0.00    +0.077 A 
ATOM      3  C   LIG    1      -41.743  74.987  23.479  0.00  0.00    +0.072 A 
ATOM      4  N   LIG    1      -42.703  75.895  23.146  0.00  0.00    -0.352 N 
ATOM      5  H   LIG    1      -43.574  75.658  22.692  0.00  0.00    +0.166 HD
ATOM      6  C   LIG    1      -42.313  77.177  23.517  0.00  0.00    +0.048 A 
ATOM      7  C   LIG    1      -43.007  78.387  23.388  0.00  0.00    +0.026 A 
ATOM      8  C   LIG    1      -42.376  79.548  23.843  0.00  0.00    +0.002 A 
ATOM      9  C   LIG    1      -41.099  79.501  24.397  0.00  0.00    +0.001 A 
ATOM     10  C   LIG    1      -40.413  78.286  24.520  0.00  0.00    +0.010 A 
ATOM     11  C   LIG    1      -41.025  77.097  24.079  0.00  0.00    +0.008 A 
ATOM     12  C   LIG    1      -40.746  75.735  24.015  0.00  0.00    +0.015 A 
ATOM     13  C   LIG    1      -39.562  75.100  24.432  0.00  0.00    -0.008 A 
ATOM     14  C   LIG    1      -38.353  75.704  25.000  0.00  0.00    +0.141 C 
ATOM     15  N   LIG    1      -37.543  74.519  25.165  0.00  0.00    -0.307 N 
ATOM     16  H   LIG    1      -36.605  74.516  25.537  0.00  0.00    +0.149 HD
ATOM     17  C   LIG    1      -38.125  73.321  24.771  0.00  0.00    +0.245 C 
ATOM     18  O   LIG    1      -37.508  72.264  24.879  0.00  0.00    -0.270 OA
ATOM     19  C   LIG    1      -39.432  73.689  24.293  0.00  0.00    +0.052 A 
ATOM     20  C   LIG    1      -40.523  72.958  23.737  0.00  0.00    +0.022 A 
ATOM     21  C   LIG    1      -40.546  71.593  23.473  0.00  0.00    +0.008 A 
ATOM     22  C   LIG    1      -39.702  70.473  23.633  0.00  0.00    +0.010 A 
ATOM     23  C   LIG    1      -40.097  69.214  23.170  0.00  0.00    +0.001 A 
ATOM     24  C   LIG    1      -41.317  69.051  22.535  0.00  0.00    +0.002 A 
ATOM     25  C   LIG    1      -42.177  70.135  22.356  0.00  0.00    +0.026 A 
ATOM     26  C   LIG    1      -41.797  71.403  22.848  0.00  0.00    +0.052 A 
ENDROOT
BRANCH   1  31
ATOM     27  C   LIG    1      -45.640  69.911  20.826  0.00  0.00    +0.044 C 
ATOM     28  C   LIG    1      -45.337  71.393  21.047  0.00  0.00    +0.097 C 
ATOM     29  C   LIG    1      -44.440  72.053  19.975  0.00  0.00    +0.121 C 
ATOM     30  C   LIG    1      -43.836  73.218  20.753  0.00  0.00    +0.094 C 
ATOM     31  C   LIG    1      -43.822  72.759  22.218  0.00  0.00    +0.223 C 
ATOM     32  O   LIG    1      -44.582  71.531  22.273  0.00  0.00    -0.348 OA
ATOM     33  C   LIG    1      -46.681  72.118  21.263  0.00  0.00    +0.044 C 
BRANCH  29  34
ATOM     34  O   LIG    1      -45.170  72.520  18.834  0.00  0.00    -0.383 OA
ATOM     35  H   LIG    1      -45.001  73.471  18.709  0.00  0.00    +0.210 HD
ENDBRANCH  29  34
BRANCH  29  36
ATOM     36  C   LIG    1      -43.299  71.156  19.439  0.00  0.00    +0.193 C 
BRANCH  36  37
ATOM     37  O   LIG    1      -43.538  70.754  18.090  0.00  0.00    -0.392 OA
ATOM     38  H   LIG    1      -44.147  69.992  18.145  0.00  0.00    +0.210 HD
ENDBRANCH  36  37
ENDBRANCH  29  36
ENDBRANCH   1  31
TORSDOF 4
ENDMDL
MODEL 2
REMARK VINA RESULT:      -7.2     19.223     23.943
REMARK  Name = pdb/CHEMBL370493.pdb
REMARK                            x       y       z     vdW  Elec       q    Type
REMARK                         _______ _______ _______ _____ _____    ______ ____
ROOT
ATOM      1  N   LIG    1      -20.602  78.565  34.417  0.00  0.00    -0.311 N 
ATOM      2  C   LIG    1      -21.475  78.141  33.436  0.00  0.00    +0.077 A 
ATOM      3  C   LIG    1      -22.835  77.890  33.390  0.00  0.00    +0.072 A 
ATOM      4  N   LIG    1      -23.824  77.962  34.326  0.00  0.00    -0.352 N 
ATOM      5  H   LIG    1      -23.674  78.228  35.289  0.00  0.00    +0.166 HD
ATOM      6  C   LIG    1      -25.050  77.616  33.769  0.00  0.00    +0.048 A 
ATOM      7  C   LIG    1      -26.317  77.586  34.365  0.00  0.00    +0.026 A 
ATOM      8  C   LIG    1      -27.398  77.192  33.573  0.00  0.00    +0.002 A 
ATOM      9  C   LIG    1      -27.217  76.835  32.239  0.00  0.00    +0.001 A 
ATOM     10  C   LIG    1      -25.945  76.867  31.652  0.00  0.00    +0.010 A 
ATOM     11  C   LIG    1      -24.837  77.268  32.423  0.00  0.00    +0.008 A 
ATOM     12  C   LIG    1      -23.466  77.454  32.271  0.00  0.00    +0.015 A 
ATOM     13  C   LIG    1      -22.711  77.228  31.105  0.00  0.00    -0.008 A 
ATOM     14  C   LIG    1      -23.169  76.729  29.804  0.00  0.00    +0.141 C 
ATOM     15  N   LIG    1      -21.910  76.707  29.095  0.00  0.00    -0.307 N 
ATOM     16  H   LIG    1      -21.799  76.410  28.137  0.00  0.00    +0.149 HD
ATOM     17  C   LIG    1      -20.797  77.128  29.813  0.00  0.00    +0.245 C 
ATOM     18  O   LIG    1      -19.688  77.145  29.286  0.00  0.00    -0.270 OA
ATOM     19  C   LIG    1      -21.308  77.464  31.116  0.00  0.00    +0.052 A 
ATOM     20  C   LIG    1      -20.709  77.937  32.320  0.00  0.00    +0.022 A 
ATOM     21  C   LIG    1      -19.352  78.162  32.528  0.00  0.00    +0.008 A 
ATOM     22  C   LIG    1      -18.147  78.096  31.796  0.00  0.00    +0.010 A 
ATOM     23  C   LIG    1      -16.924  78.369  32.415  0.00  0.00    +0.001 A 
ATOM     24  C   LIG    1      -16.875  78.695  33.760  0.00  0.00    +0.002 A 
ATOM     25  C   LIG    1      -18.045  78.766  34.518  0.00  0.00    +0.026 A 
ATOM     26  C   LIG    1      -19.286  78.521  33.891  0.00  0.00    +0.052 A 
ENDROOT
BRANCH   1  31
ATOM     27  C   LIG    1      -24.209  79.334  37.204  0.00  0.00    +0.044 C 
ATOM     28  C   LIG    1      -22.684  79.448  37.193  0.00  0.00    +0.097 C 
ATOM     29  C   LIG    1      -22.124  80.787  36.661  0.00  0.00    +0.121 C 
ATOM     30  C   LIG    1      -20.730  80.375  36.196  0.00  0.00    +0.094 C 
ATOM     31  C   LIG    1      -20.852  78.890  35.828  0.00  0.00    +0.223 C 
ATOM     32  O   LIG    1      -22.154  78.457  36.284  0.00  0.00    -0.348 OA
ATOM     33  C   LIG    1      -22.178  79.081  38.603  0.00  0.00    +0.044 C 
BRANCH  29  34
ATOM     34  O   LIG    1      -22.050  81.809  37.662  0.00  0.00    -0.383 OA
ATOM     35  H   LIG    1      -21.504  82.545  37.334  0.00  0.00    +0.210 HD
ENDBRANCH  29  34
BRANCH  29  36
ATOM     36  C   LIG    1      -22.900  81.389  35.465  0.00  0.00    +0.193 C 
BRANCH  36  37
ATOM     37  O   LIG    1      -22.868  82.816  35.485  0.00  0.00    -0.392 OA
ATOM     38  H   LIG    1      -22.443  83.083  34.648  0.00  0.00    +0.210 HD
ENDBRANCH  36  37
ENDBRANCH  29  36
ENDBRANCH   1  31
TORSDOF 4
ENDMDL
MODEL 3
REMARK VINA RESULT:      -7.1     17.275     21.537
REMARK  Name = pdb/CHEMBL370493.pdb
REMARK                            x       y       z     vdW  Elec       q    Type
REMARK                         _______ _______ _______ _____ _____    ______ ____
ROOT
ATOM      1  N   LIG    1      -24.051  77.305  32.069  0.00  0.00    -0.311 N 
ATOM      2  C   LIG    1      -23.595  78.018  33.159  0.00  0.00    +0.077 A 
ATOM      3  C   LIG    1      -24.194  78.564  34.281  0.00  0.00    +0.072 A 
ATOM      4  N   LIG    1      -25.485  78.603  34.717  0.00  0.00    -0.352 N 
ATOM      5  H   LIG    1      -26.265  78.202  34.215  0.00  0.00    +0.166 HD
ATOM      6  C   LIG    1      -25.570  79.269  35.934  0.00  0.00    +0.048 A 
ATOM      7  C   LIG    1      -26.692  79.506  36.739  0.00  0.00    +0.026 A 
ATOM      8  C   LIG    1      -26.500  80.214  37.928  0.00  0.00    +0.002 A 
ATOM      9  C   LIG    1      -25.237  80.672  38.294  0.00  0.00    +0.001 A 
ATOM     10  C   LIG    1      -24.121  80.431  37.482  0.00  0.00    +0.010 A 
ATOM     11  C   LIG    1      -24.281  79.713  36.281  0.00  0.00    +0.008 A 
ATOM     12  C   LIG    1      -23.502  79.251  35.224  0.00  0.00    +0.015 A 
ATOM     13  C   LIG    1      -22.118  79.439  35.055  0.00  0.00    -0.008 A 
ATOM     14  C   LIG    1      -21.184  80.170  35.917  0.00  0.00    +0.141 C 
ATOM     15  N   LIG    1      -19.967  79.997  35.159  0.00  0.00    -0.307 N 
ATOM     16  H   LIG    1      -19.068  80.370  35.428  0.00  0.00    +0.149 HD
ATOM     17  C   LIG    1      -20.077  79.265  33.983  0.00  0.00    +0.245 C 
ATOM     18  O   LIG    1      -19.091  79.067  33.279  0.00  0.00    -0.270 OA
ATOM     19  C   LIG    1      -21.469  78.902  33.908  0.00  0.00    +0.052 A 
ATOM     20  C   LIG    1      -22.250  78.176  32.963  0.00  0.00    +0.022 A 
ATOM     21  C   LIG    1      -21.796  77.639  31.763  0.00  0.00    +0.008 A 
ATOM     22  C   LIG    1      -20.583  77.523  31.051  0.00  0.00    +0.010 A 
ATOM     23  C   LIG    1      -20.554  76.921  29.789  0.00  0.00    +0.001 A 
ATOM     24  C   LIG    1      -21.719  76.442  29.214  0.00  0.00    +0.002 A 
ATOM     25  C   LIG    1      -22.938  76.541  29.886  0.00  0.00    +0.026 A 
ATOM     26  C   LIG    1      -22.969  77.121  31.173  0.00  0.00    +0.052 A 
ENDROOT
BRANCH   1  31
ATOM     27  C   LIG    1      -28.235  77.149  34.029  0.00  0.00    +0.044 C 
ATOM     28  C   LIG    1      -27.498  76.650  32.785  0.00  0.00    +0.097 C 
ATOM     29  C   LIG    1      -26.783  75.288  32.940  0.00  0.00    +0.121 C 
ATOM     30  C   LIG    1      -25.702  75.383  31.868  0.00  0.00    +0.094 C 
ATOM     31  C   LIG    1      -25.415  76.884  31.719  0.00  0.00    +0.223 C 
ATOM     32  O   LIG    1      -26.431  77.577  32.479  0.00  0.00    -0.348 OA
ATOM     33  C   LIG    1      -28.489  76.699  31.604  0.00  0.00    +0.044 C 
BRANCH  29  34
ATOM     34  O   LIG    1      -27.643  74.166  32.705  0.00  0.00    -0.383 OA
ATOM     35  H   LIG    1      -28.559  74.478  32.598  0.00  0.00    +0.210 HD
ENDBRANCH  29  34
BRANCH  29  36
ATOM     36  C   LIG    1      -26.113  75.057  34.316  0.00  0.00    +0.193 C 
BRANCH  36  37
ATOM     37  O   LIG    1      -24.773  74.588  34.173  0.00  0.00    -0.392 OA
ATOM     38  H   LIG    1      -24.319  74.825  35.005  0.00  0.00    +0.210 HD
ENDBRANCH  36  37
ENDBRANCH  29  36
ENDBRANCH   1  31
TORSDOF 4
ENDMDL
MODEL 4
REMARK VINA RESULT:      -7.0      1.225      5.242
REMARK  Name = pdb/CHEMBL370493.pdb
REMARK                            x       y       z     vdW  Elec       q    Type
REMARK                         _______ _______ _______ _____ _____    ______ ____
ROOT
ATOM      1  N   LIG    1      -42.886  74.306  22.862  0.00  0.00    -0.311 N 
ATOM      2  C   LIG    1      -41.730  73.697  23.306  0.00  0.00    +0.077 A 
ATOM      3  C   LIG    1      -41.300  72.384  23.399  0.00  0.00    +0.072 A 
ATOM      4  N   LIG    1      -41.883  71.192  23.088  0.00  0.00    -0.352 N 
ATOM      5  H   LIG    1      -42.818  71.099  22.716  0.00  0.00    +0.166 HD
ATOM      6  C   LIG    1      -41.017  70.139  23.357  0.00  0.00    +0.048 A 
ATOM      7  C   LIG    1      -41.204  68.765  23.158  0.00  0.00    +0.026 A 
ATOM      8  C   LIG    1      -40.161  67.909  23.523  0.00  0.00    +0.002 A 
ATOM      9  C   LIG    1      -38.982  68.408  24.072  0.00  0.00    +0.001 A 
ATOM     10  C   LIG    1      -38.806  69.784  24.269  0.00  0.00    +0.010 A 
ATOM     11  C   LIG    1      -39.835  70.672  23.903  0.00  0.00    +0.008 A 
ATOM     12  C   LIG    1      -40.087  72.041  23.901  0.00  0.00    +0.015 A 
ATOM     13  C   LIG    1      -39.229  73.054  24.368  0.00  0.00    -0.008 A 
ATOM     14  C   LIG    1      -37.902  72.918  24.976  0.00  0.00    +0.141 C 
ATOM     15  N   LIG    1      -37.610  74.308  25.240  0.00  0.00    -0.307 N 
ATOM     16  H   LIG    1      -36.762  74.642  25.672  0.00  0.00    +0.149 HD
ATOM     17  C   LIG    1      -38.589  75.220  24.863  0.00  0.00    +0.245 C 
ATOM     18  O   LIG    1      -38.422  76.422  25.047  0.00  0.00    -0.270 OA
ATOM     19  C   LIG    1      -39.641  74.415  24.299  0.00  0.00    +0.052 A 
ATOM     20  C   LIG    1      -40.921  74.709  23.745  0.00  0.00    +0.022 A 
ATOM     21  C   LIG    1      -41.507  75.967  23.657  0.00  0.00    +0.008 A 
ATOM     22  C   LIG    1      -41.181  77.307  23.960  0.00  0.00    +0.010 A 
ATOM     23  C   LIG    1      -42.112  78.329  23.754  0.00  0.00    +0.001 A 
ATOM     24  C   LIG    1      -43.374  78.040  23.262  0.00  0.00    +0.002 A 
ATOM     25  C   LIG    1      -43.734  76.728  22.953  0.00  0.00    +0.026 A 
ATOM     26  C   LIG    1      -42.788  75.695  23.130  0.00  0.00    +0.052 A 
ENDROOT
BRANCH   1  31
ATOM     27  C   LIG    1      -44.601  70.112  21.949  0.00  0.00    +0.044 C 
ATOM     28  C   LIG    1      -44.913  71.590  21.706  0.00  0.00    +0.097 C 
ATOM     29  C   LIG    1      -44.282  72.199  20.433  0.00  0.00    +0.121 C 
ATOM     30  C   LIG    1      -44.225  73.680  20.795  0.00  0.00    +0.094 C 
ATOM     31  C   LIG    1      -44.120  73.715  22.327  0.00  0.00    +0.223 C 
ATOM     32  O   LIG    1      -44.344  72.364  22.787  0.00  0.00    -0.348 OA
ATOM     33  C   LIG    1      -46.442  71.764  21.785  0.00  0.00    +0.044 C 
BRANCH  29  34
ATOM     34  O   LIG    1      -45.068  71.988  19.254  0.00  0.00    -0.383 OA
ATOM     35  H   LIG    1      -45.959  72.357  19.389  0.00  0.00    +0.210 HD
ENDBRANCH  29  34
BRANCH  29  36
ATOM     36  C   LIG    1      -42.852  71.701  20.112  0.00  0.00    +0.193 C 
BRANCH  36  37
ATOM     37  O   LIG    1      -42.833  70.884  18.941  0.00  0.00    -0.392 OA
ATOM     38  H   LIG    1      -43.768  70.755  18.693  0.00  0.00    +0.210 HD
ENDBRANCH  36  37
ENDBRANCH  29  36
ENDBRANCH   1  31
TORSDOF 4
ENDMDL
MODEL 5
REMARK VINA RESULT:      -7.0      3.036      8.580
REMARK  Name = pdb/CHEMBL370493.pdb
REMARK                            x       y       z     vdW  Elec       q    Type
REMARK                         _______ _______ _______ _____ _____    ______ ____
ROOT
ATOM      1  N   LIG    1      -38.618  74.358  24.773  0.00  0.00    -0.311 N 
ATOM      2  C   LIG    1      -38.636  72.987  24.614  0.00  0.00    +0.077 A 
ATOM      3  C   LIG    1      -37.733  71.969  24.867  0.00  0.00    +0.072 A 
ATOM      4  N   LIG    1      -36.464  71.957  25.366  0.00  0.00    -0.352 N 
ATOM      5  H   LIG    1      -35.954  72.786  25.638  0.00  0.00    +0.166 HD
ATOM      6  C   LIG    1      -35.981  70.656  25.441  0.00  0.00    +0.048 A 
ATOM      7  C   LIG    1      -34.747  70.195  25.919  0.00  0.00    +0.026 A 
ATOM      8  C   LIG    1      -34.509  68.819  25.877  0.00  0.00    +0.002 A 
ATOM      9  C   LIG    1      -35.464  67.940  25.372  0.00  0.00    +0.001 A 
ATOM     10  C   LIG    1      -36.694  68.411  24.896  0.00  0.00    +0.010 A 
ATOM     11  C   LIG    1      -36.967  69.792  24.932  0.00  0.00    +0.008 A 
ATOM     12  C   LIG    1      -37.998  70.666  24.598  0.00  0.00    +0.015 A 
ATOM     13  C   LIG    1      -39.235  70.326  24.021  0.00  0.00    -0.008 A 
ATOM     14  C   LIG    1      -39.720  69.002  23.617  0.00  0.00    +0.141 C 
ATOM     15  N   LIG    1      -41.013  69.368  23.086  0.00  0.00    -0.307 N 
ATOM     16  H   LIG    1      -41.674  68.715  22.692  0.00  0.00    +0.149 HD
ATOM     17  C   LIG    1      -41.333  70.719  23.134  0.00  0.00    +0.245 C 
ATOM     18  O   LIG    1      -42.413  71.117  22.707  0.00  0.00    -0.270 OA
ATOM     19  C   LIG    1      -40.185  71.346  23.736  0.00  0.00    +0.052 A 
ATOM     20  C   LIG    1      -39.851  72.694  24.058  0.00  0.00    +0.022 A 
ATOM     21  C   LIG    1      -40.628  73.817  23.794  0.00  0.00    +0.008 A 
ATOM     22  C   LIG    1      -41.890  74.120  23.240  0.00  0.00    +0.010 A 
ATOM     23  C   LIG    1      -42.305  75.448  23.103  0.00  0.00    +0.001 A 
ATOM     24  C   LIG    1      -41.478  76.487  23.497  0.00  0.00    +0.002 A 
ATOM     25  C   LIG    1      -40.222  76.226  24.047  0.00  0.00    +0.026 A 
ATOM     26  C   LIG    1      -39.809  74.886  24.216  0.00  0.00    +0.052 A 
ENDROOT
BRANCH   1  31
ATOM     27  C   LIG    1      -36.940  75.768  28.843  0.00  0.00    +0.044 C 
ATOM     28  C   LIG    1      -36.823  76.079  27.350  0.00  0.00    +0.097 C 
ATOM     29  C   LIG    1      -37.842  77.106  26.806  0.00  0.00    +0.121 C 
ATOM     30  C   LIG    1      -37.900  76.731  25.329  0.00  0.00    +0.094 C 
ATOM     31  C   LIG    1      -37.555  75.236  25.280  0.00  0.00    +0.223 C 
ATOM     32  O   LIG    1      -37.106  74.872  26.605  0.00  0.00    -0.348 OA
ATOM     33  C   LIG    1      -35.355  76.450  27.063  0.00  0.00    +0.044 C 
BRANCH  29  34
ATOM     34  O   LIG    1      -37.423  78.465  26.976  0.00  0.00    -0.383 OA
ATOM     35  H   LIG    1      -36.486  78.549  26.721  0.00  0.00    +0.210 HD
ENDBRANCH  29  34
BRANCH  29  36
ATOM     36  C   LIG    1      -39.262  76.999  27.412  0.00  0.00    +0.193 C 
BRANCH  36  37
ATOM     37  O   LIG    1      -40.072  78.118  27.050  0.00  0.00    -0.392 OA
ATOM     38  H   LIG    1      -39.940  78.779  27.756  0.00  0.00    +0.210 HD
ENDBRANCH  36  37
ENDBRANCH  29  36
ENDBRANCH   1  31
TORSDOF 4
ENDMDL
MODEL 6
REMARK VINA RESULT:      -6.9     18.922     23.789
REMARK  Name = pdb/CHEMBL370493.pdb
REMARK                            x       y       z     vdW  Elec       q    Type
REMARK                         _______ _______ _______ _____ _____    ______ ____
ROOT
ATOM      1  N   LIG    1      -23.153  79.233  35.628  0.00  0.00    -0.311 N 
ATOM      2  C   LIG    1      -23.474  78.578  34.457  0.00  0.00    +0.077 A 
ATOM      3  C   LIG    1      -22.765  78.199  33.330  0.00  0.00    +0.072 A 
ATOM      4  N   LIG    1      -21.462  78.354  32.960  0.00  0.00    -0.352 N 
ATOM      5  H   LIG    1      -20.766  78.828  33.518  0.00  0.00    +0.166 HD
ATOM      6  C   LIG    1      -21.236  77.773  31.717  0.00  0.00    +0.048 A 
ATOM      7  C   LIG    1      -20.044  77.679  30.987  0.00  0.00    +0.026 A 
ATOM      8  C   LIG    1      -20.093  77.041  29.745  0.00  0.00    +0.002 A 
ATOM      9  C   LIG    1      -21.288  76.524  29.250  0.00  0.00    +0.001 A 
ATOM     10  C   LIG    1      -22.475  76.625  29.988  0.00  0.00    +0.010 A 
ATOM     11  C   LIG    1      -22.456  77.255  31.247  0.00  0.00    +0.008 A 
ATOM     12  C   LIG    1      -23.337  77.559  32.280  0.00  0.00    +0.015 A 
ATOM     13  C   LIG    1      -24.715  77.278  32.320  0.00  0.00    -0.008 A 
ATOM     14  C   LIG    1      -25.545  76.634  31.297  0.00  0.00    +0.141 C 
ATOM     15  N   LIG    1      -26.830  76.690  31.955  0.00  0.00    -0.307 N 
ATOM     16  H   LIG    1      -27.690  76.340  31.560  0.00  0.00    +0.149 HD
ATOM     17  C   LIG    1      -26.847  77.276  33.215  0.00  0.00    +0.245 C 
ATOM     18  O   LIG    1      -27.897  77.362  33.846  0.00  0.00    -0.270 OA
ATOM     19  C   LIG    1      -25.481  77.662  33.457  0.00  0.00    +0.052 A 
ATOM     20  C   LIG    1      -24.816  78.317  34.534  0.00  0.00    +0.022 A 
ATOM     21  C   LIG    1      -25.414  78.813  35.687  0.00  0.00    +0.008 A 
ATOM     22  C   LIG    1      -26.697  78.864  36.272  0.00  0.00    +0.010 A 
ATOM     23  C   LIG    1      -26.900  79.532  37.483  0.00  0.00    +0.001 A 
ATOM     24  C   LIG    1      -25.847  80.165  38.121  0.00  0.00    +0.002 A 
ATOM     25  C   LIG    1      -24.564  80.139  37.572  0.00  0.00    +0.026 A 
ATOM     26  C   LIG    1      -24.346  79.440  36.364  0.00  0.00    +0.052 A 
ENDROOT
BRANCH   1  31
ATOM     27  C   LIG    1      -21.456  81.510  39.275  0.00  0.00    +0.044 C 
ATOM     28  C   LIG    1      -21.061  81.100  37.855  0.00  0.00    +0.097 C 
ATOM     29  C   LIG    1      -21.463  82.095  36.743  0.00  0.00    +0.121 C 
ATOM     30  C   LIG    1      -21.526  81.183  35.522  0.00  0.00    +0.094 C 
ATOM     31  C   LIG    1      -21.870  79.793  36.076  0.00  0.00    +0.223 C 
ATOM     32  O   LIG    1      -21.766  79.885  37.515  0.00  0.00    -0.348 OA
ATOM     33  C   LIG    1      -19.558  80.759  37.869  0.00  0.00    +0.044 C 
BRANCH  29  34
ATOM     34  O   LIG    1      -20.509  83.146  36.550  0.00  0.00    -0.383 OA
ATOM     35  H   LIG    1      -20.716  83.885  37.150  0.00  0.00    +0.210 HD
ENDBRANCH  29  34
BRANCH  29  36
ATOM     36  C   LIG    1      -22.840  82.772  36.941  0.00  0.00    +0.193 C 
BRANCH  36  37
ATOM     37  O   LIG    1      -23.494  83.005  35.693  0.00  0.00    -0.392 OA
ATOM     38  H   LIG    1      -24.437  82.802  35.847  0.00  0.00    +0.210 HD
ENDBRANCH  36  37
ENDBRANCH  29  36
ENDBRANCH   1  31
TORSDOF 4
ENDMDL
MODEL 7
REMARK VINA RESULT:      -6.9     23.166     26.417
REMARK  Name = pdb/CHEMBL370493.pdb
REMARK                            x       y       z     vdW  Elec       q    Type
REMARK                         _______ _______ _______ _____ _____    ______ ____
ROOT
ATOM      1  N   LIG    1      -22.576  88.461  11.634  0.00  0.00    -0.311 N 
ATOM      2  C   LIG    1      -23.640  87.610  11.417  0.00  0.00    +0.077 A 
ATOM      3  C   LIG    1      -23.860  86.259  11.623  0.00  0.00    +0.072 A 
ATOM      4  N   LIG    1      -23.079  85.257  12.117  0.00  0.00    -0.352 N 
ATOM      5  H   LIG    1      -22.124  85.381  12.422  0.00  0.00    +0.166 HD
ATOM      6  C   LIG    1      -23.779  84.056  12.136  0.00  0.00    +0.048 A 
ATOM      7  C   LIG    1      -23.367  82.796  12.589  0.00  0.00    +0.026 A 
ATOM      8  C   LIG    1      -24.276  81.741  12.489  0.00  0.00    +0.002 A 
ATOM      9  C   LIG    1      -25.546  81.936  11.950  0.00  0.00    +0.001 A 
ATOM     10  C   LIG    1      -25.949  83.199  11.498  0.00  0.00    +0.010 A 
ATOM     11  C   LIG    1      -25.057  84.285  11.593  0.00  0.00    +0.008 A 
ATOM     12  C   LIG    1      -25.027  85.646  11.301  0.00  0.00    +0.015 A 
ATOM     13  C   LIG    1      -26.057  86.402  10.714  0.00  0.00    -0.008 A 
ATOM     14  C   LIG    1      -27.375  85.950  10.256  0.00  0.00    +0.141 C 
ATOM     15  N   LIG    1      -27.897  87.196   9.745  0.00  0.00    -0.307 N 
ATOM     16  H   LIG    1      -28.808  87.305   9.326  0.00  0.00    +0.149 HD
ATOM     17  C   LIG    1      -27.058  88.299   9.851  0.00  0.00    +0.245 C 
ATOM     18  O   LIG    1      -27.424  89.399   9.445  0.00  0.00    -0.270 OA
ATOM     19  C   LIG    1      -25.864  87.792  10.475  0.00  0.00    +0.052 A 
ATOM     20  C   LIG    1      -24.621  88.379  10.852  0.00  0.00    +0.022 A 
ATOM     21  C   LIG    1      -24.239  89.699  10.639  0.00  0.00    +0.008 A 
ATOM     22  C   LIG    1      -24.789  90.883  10.103  0.00  0.00    +0.010 A 
ATOM     23  C   LIG    1      -24.023  92.050  10.023  0.00  0.00    +0.001 A 
ATOM     24  C   LIG    1      -22.709  92.058  10.459  0.00  0.00    +0.002 A 
ATOM     25  C   LIG    1      -22.129  90.906  10.992  0.00  0.00    +0.026 A 
ATOM     26  C   LIG    1      -22.907  89.733  11.103  0.00  0.00    +0.052 A 
ENDROOT
BRANCH   1  31
ATOM     27  C   LIG    1      -20.309  84.957  13.622  0.00  0.00    +0.044 C 
ATOM     28  C   LIG    1      -20.150  86.452  13.338  0.00  0.00    +0.097 C 
ATOM     29  C   LIG    1      -20.730  87.395  14.417  0.00  0.00    +0.121 C 
ATOM     30  C   LIG    1      -20.990  88.663  13.610  0.00  0.00    +0.094 C 
ATOM     31  C   LIG    1      -21.238  88.181  12.173  0.00  0.00    +0.223 C 
ATOM     32  O   LIG    1      -20.901  86.776  12.146  0.00  0.00    -0.348 OA
ATOM     33  C   LIG    1      -18.665  86.712  13.020  0.00  0.00    +0.044 C 
BRANCH  29  34
ATOM     34  O   LIG    1      -19.821  87.650  15.495  0.00  0.00    -0.383 OA
ATOM     35  H   LIG    1      -19.838  86.900  16.116  0.00  0.00    +0.210 HD
ENDBRANCH  29  34
BRANCH  29  36
ATOM     36  C   LIG    1      -22.057  86.919  15.055  0.00  0.00    +0.193 C 
BRANCH  36  37
ATOM     37  O   LIG    1      -21.929  86.753  16.467  0.00  0.00    -0.392 OA
ATOM     38  H   LIG    1      -22.632  87.303  16.863  0.00  0.00    +0.210 HD
ENDBRANCH  36  37
ENDBRANCH  29  36
ENDBRANCH   1  31
TORSDOF 4
ENDMDL
MODEL 8
REMARK VINA RESULT:      -6.8      2.717      8.786
REMARK  Name = pdb/CHEMBL370493.pdb
REMARK                            x       y       z     vdW  Elec       q    Type
REMARK                         _______ _______ _______ _____ _____    ______ ____
ROOT
ATOM      1  N   LIG    1      -38.826  76.544  25.194  0.00  0.00    -0.311 N 
ATOM      2  C   LIG    1      -39.328  75.342  24.738  0.00  0.00    +0.077 A 
ATOM      3  C   LIG    1      -38.858  74.041  24.712  0.00  0.00    +0.072 A 
ATOM      4  N   LIG    1      -37.693  73.467  25.129  0.00  0.00    -0.352 N 
ATOM      5  H   LIG    1      -36.929  73.977  25.550  0.00  0.00    +0.166 HD
ATOM      6  C   LIG    1      -37.710  72.098  24.891  0.00  0.00    +0.048 A 
ATOM      7  C   LIG    1      -36.739  71.134  25.190  0.00  0.00    +0.026 A 
ATOM      8  C   LIG    1      -37.008  69.810  24.834  0.00  0.00    +0.002 A 
ATOM      9  C   LIG    1      -38.198  69.465  24.198  0.00  0.00    +0.001 A 
ATOM     10  C   LIG    1      -39.163  70.437  23.902  0.00  0.00    +0.010 A 
ATOM     11  C   LIG    1      -38.924  71.779  24.256  0.00  0.00    +0.008 A 
ATOM     12  C   LIG    1      -39.563  73.013  24.178  0.00  0.00    +0.015 A 
ATOM     13  C   LIG    1      -40.822  73.273  23.605  0.00  0.00    -0.008 A 
ATOM     14  C   LIG    1      -41.736  72.335  22.945  0.00  0.00    +0.141 C 
ATOM     15  N   LIG    1      -42.795  73.246  22.576  0.00  0.00    -0.307 N 
ATOM     16  H   LIG    1      -43.634  72.977  22.083  0.00  0.00    +0.149 HD
ATOM     17  C   LIG    1      -42.612  74.575  22.937  0.00  0.00    +0.245 C 
ATOM     18  O   LIG    1      -43.464  75.416  22.665  0.00  0.00    -0.270 OA
ATOM     19  C   LIG    1      -41.335  74.601  23.602  0.00  0.00    +0.052 A 
ATOM     20  C   LIG    1      -40.550  75.633  24.194  0.00  0.00    +0.022 A 
ATOM     21  C   LIG    1      -40.865  76.987  24.226  0.00  0.00    +0.008 A 
ATOM     22  C   LIG    1      -41.917  77.836  23.819  0.00  0.00    +0.010 A 
ATOM     23  C   LIG    1      -41.825  79.219  24.000  0.00  0.00    +0.001 A 
ATOM     24  C   LIG    1      -40.694  79.778  24.570  0.00  0.00    +0.002 A 
ATOM     25  C   LIG    1      -39.632  78.972  24.982  0.00  0.00    +0.026 A 
ATOM     26  C   LIG    1      -39.731  77.572  24.829  0.00  0.00    +0.052 A 
ENDROOT
BRANCH   1  31
ATOM     27  C   LIG    1      -35.960  74.664  28.295  0.00  0.00    +0.044 C 
ATOM     28  C   LIG    1      -36.172  75.970  27.528  0.00  0.00    +0.097 C 
ATOM     29  C   LIG    1      -37.103  76.997  28.213  0.00  0.00    +0.121 C 
ATOM     30  C   LIG    1      -37.595  77.811  27.020  0.00  0.00    +0.094 C 
ATOM     31  C   LIG    1      -37.535  76.849  25.825  0.00  0.00    +0.223 C 
ATOM     32  O   LIG    1      -36.836  75.668  26.280  0.00  0.00    -0.348 OA
ATOM     33  C   LIG    1      -34.782  76.534  27.173  0.00  0.00    +0.044 C 
BRANCH  29  34
ATOM     34  O   LIG    1      -36.427  77.831  29.161  0.00  0.00    -0.383 OA
ATOM     35  H   LIG    1      -35.482  77.597  29.182  0.00  0.00    +0.210 HD
ENDBRANCH  29  34
BRANCH  29  36
ATOM     36  C   LIG    1      -38.321  76.384  28.945  0.00  0.00    +0.193 C 
BRANCH  36  37
ATOM     37  O   LIG    1      -39.519  77.110  28.665  0.00  0.00    -0.392 OA
ATOM     38  H   LIG    1      -39.308  77.686  27.906  0.00  0.00    +0.210 HD
ENDBRANCH  36  37
ENDBRANCH  29  36
ENDBRANCH   1  31
TORSDOF 4
ENDMDL
MODEL 9
REMARK VINA RESULT:      -6.8     20.034     23.528
REMARK  Name = pdb/CHEMBL370493.pdb
REMARK                            x       y       z     vdW  Elec       q    Type
REMARK                         _______ _______ _______ _____ _____    ______ ____
ROOT
ATOM      1  N   LIG    1      -32.511  94.057  25.752  0.00  0.00    -0.311 N 
ATOM      2  C   LIG    1      -31.864  94.414  24.587  0.00  0.00    +0.077 A 
ATOM      3  C   LIG    1      -31.970  94.033  23.261  0.00  0.00    +0.072 A 
ATOM      4  N   LIG    1      -32.767  93.134  22.615  0.00  0.00    -0.352 N 
ATOM      5  H   LIG    1      -33.455  92.554  23.075  0.00  0.00    +0.166 HD
ATOM      6  C   LIG    1      -32.494  93.130  21.252  0.00  0.00    +0.048 A 
ATOM      7  C   LIG    1      -33.098  92.386  20.230  0.00  0.00    +0.026 A 
ATOM      8  C   LIG    1      -32.625  92.570  18.928  0.00  0.00    +0.002 A 
ATOM      9  C   LIG    1      -31.585  93.458  18.661  0.00  0.00    +0.001 A 
ATOM     10  C   LIG    1      -30.988  94.196  19.690  0.00  0.00    +0.010 A 
ATOM     11  C   LIG    1      -31.448  94.039  21.012  0.00  0.00    +0.008 A 
ATOM     12  C   LIG    1      -31.181  94.542  22.282  0.00  0.00    +0.015 A 
ATOM     13  C   LIG    1      -30.195  95.486  22.622  0.00  0.00    -0.008 A 
ATOM     14  C   LIG    1      -29.216  96.139  21.746  0.00  0.00    +0.141 C 
ATOM     15  N   LIG    1      -28.513  96.941  22.721  0.00  0.00    -0.307 N 
ATOM     16  H   LIG    1      -27.738  97.551  22.508  0.00  0.00    +0.149 HD
ATOM     17  C   LIG    1      -28.959  96.838  24.033  0.00  0.00    +0.245 C 
ATOM     18  O   LIG    1      -28.421  97.487  24.926  0.00  0.00    -0.270 OA
ATOM     19  C   LIG    1      -30.047  95.896  23.977  0.00  0.00    +0.052 A 
ATOM     20  C   LIG    1      -30.920  95.334  24.954  0.00  0.00    +0.022 A 
ATOM     21  C   LIG    1      -30.877  95.571  26.324  0.00  0.00    +0.008 A 
ATOM     22  C   LIG    1      -30.140  96.356  27.237  0.00  0.00    +0.010 A 
ATOM     23  C   LIG    1      -30.387  96.268  28.610  0.00  0.00    +0.001 A 
ATOM     24  C   LIG    1      -31.351  95.400  29.097  0.00  0.00    +0.002 A 
ATOM     25  C   LIG    1      -32.097  94.606  28.225  0.00  0.00    +0.026 A 
ATOM     26  C   LIG    1      -31.874  94.712  26.835  0.00  0.00    +0.052 A 
ENDROOT
BRANCH   1  31
ATOM     27  C   LIG    1      -35.042  92.432  29.262  0.00  0.00    +0.044 C 
ATOM     28  C   LIG    1      -34.740  92.135  27.792  0.00  0.00    +0.097 C 
ATOM     29  C   LIG    1      -33.523  91.216  27.539  0.00  0.00    +0.121 C 
ATOM     30  C   LIG    1      -33.122  91.618  26.123  0.00  0.00    +0.094 C 
ATOM     31  C   LIG    1      -33.582  93.075  25.974  0.00  0.00    +0.223 C 
ATOM     32  O   LIG    1      -34.389  93.375  27.135  0.00  0.00    -0.348 OA
ATOM     33  C   LIG    1      -36.043  91.634  27.140  0.00  0.00    +0.044 C 
BRANCH  29  34
ATOM     34  O   LIG    1      -33.843  89.821  27.606  0.00  0.00    -0.383 OA
ATOM     35  H   LIG    1      -34.798  89.716  27.762  0.00  0.00    +0.210 HD
ENDBRANCH  29  34
BRANCH  29  36
ATOM     36  C   LIG    1      -32.324  91.445  28.490  0.00  0.00    +0.193 C 
BRANCH  36  37
ATOM     37  O   LIG    1      -31.894  90.226  29.095  0.00  0.00    -0.392 OA
ATOM     38  H   LIG    1      -32.261  89.511  28.539  0.00  0.00    +0.210 HD
ENDBRANCH  36  37
ENDBRANCH  29  36
ENDBRANCH   1  31
TORSDOF 4
ENDMDL
