MODEL 1
REMARK VINA RESULT:      -6.9      0.000      0.000
REMARK  Name = pdb/CHEMBL3915638.pdb
REMARK                            x       y       z     vdW  Elec       q    Type
REMARK                         _______ _______ _______ _____ _____    ______ ____
ROOT
ATOM      1  C   LIG    1      -33.995  66.372  20.164  0.00  0.00    +0.323 A 
ATOM      2  N   LIG    1      -33.607  66.734  21.397  0.00  0.00    -0.201 NA
ATOM      3  C   LIG    1      -34.581  67.021  22.286  0.00  0.00    +0.145 A 
ATOM      4  C   LIG    1      -35.922  67.081  21.981  0.00  0.00    +0.105 A 
ATOM      5  C   LIG    1      -36.177  66.824  20.647  0.00  0.00    +0.145 A 
ATOM      6  N   LIG    1      -35.255  66.443  19.724  0.00  0.00    -0.201 NA
ENDROOT
BRANCH   4   7
ATOM      7  N   LIG    1      -36.837  67.476  22.984  0.00  0.00    -0.196 NA
ATOM      8  C   LIG    1      -37.250  68.681  23.126  0.00  0.00    +0.285 C 
BRANCH   8   9
ATOM      9  N   LIG    1      -38.086  69.182  24.083  0.00  0.00    -0.267 N 
ATOM     10  H   LIG    1      -38.960  68.678  24.262  0.00  0.00    +0.157 HD
BRANCH   9  11
ATOM     11  C   LIG    1      -38.146  70.491  24.604  0.00  0.00    +0.061 A 
ATOM     12  C   LIG    1      -37.164  70.983  25.507  0.00  0.00    +0.087 A 
ATOM     13  C   LIG    1      -37.257  72.305  25.982  0.00  0.00    +0.030 A 
ATOM     14  C   LIG    1      -38.279  73.152  25.545  0.00  0.00    +0.014 A 
ATOM     15  C   LIG    1      -39.242  72.693  24.650  0.00  0.00    +0.057 A 
ATOM     16  C   LIG    1      -39.183  71.359  24.217  0.00  0.00    +0.037 A 
BRANCH  12  17
ATOM     17  N   LIG    1      -36.060  70.177  25.936  0.00  0.00    -0.238 N 
ATOM     18  N   LIG    1      -36.251  68.964  26.547  0.00  0.00    -0.175 NA
ATOM     19  C   LIG    1      -35.018  68.501  26.769  0.00  0.00    +0.135 A 
ATOM     20  C   LIG    1      -34.021  69.365  26.304  0.00  0.00    +0.041 A 
ATOM     21  C   LIG    1      -34.710  70.435  25.787  0.00  0.00    +0.114 A 
ENDBRANCH  12  17
BRANCH  15  22
ATOM     22  C   LIG    1      -40.299  73.630  24.118  0.00  0.00    +0.417 C 
ATOM     23  F   LIG    1      -41.261  73.892  25.047  0.00  0.00    -0.166 F 
ATOM     24  F   LIG    1      -40.951  73.125  23.037  0.00  0.00    -0.166 F 
ATOM     25  F   LIG    1      -39.815  74.843  23.734  0.00  0.00    -0.166 F 
ENDBRANCH  15  22
ENDBRANCH   9  11
ENDBRANCH   8   9
BRANCH   8  26
ATOM     26  O   LIG    1      -36.859  69.659  22.277  0.00  0.00    -0.481 OA
ATOM     27  H   LIG    1      -37.072  69.442  21.359  0.00  0.00    +0.295 HD
ENDBRANCH   8  26
ENDBRANCH   4   7
BRANCH   1  28
ATOM     28  O   LIG    1      -33.072  65.871  19.250  0.00  0.00    -0.424 OA
BRANCH  28  32
ATOM     29  C   LIG    1      -29.437  67.978  18.663  0.00  0.00    -0.014 A 
ATOM     30  C   LIG    1      -30.700  68.500  18.313  0.00  0.00    +0.012 A 
ATOM     31  C   LIG    1      -31.890  67.775  18.528  0.00  0.00    +0.047 A 
ATOM     32  C   LIG    1      -31.855  66.490  19.069  0.00  0.00    +0.132 A 
ATOM     33  C   LIG    1      -30.605  65.947  19.352  0.00  0.00    +0.047 A 
ATOM     34  C   LIG    1      -29.437  66.691  19.204  0.00  0.00    +0.012 A 
BRANCH  29  36
ATOM     35  C   LIG    1      -27.766  69.814  19.336  0.00  0.00    +0.124 A 
ATOM     36  C   LIG    1      -28.165  68.738  18.505  0.00  0.00    +0.023 A 
ATOM     37  C   LIG    1      -27.286  68.432  17.448  0.00  0.00    +0.033 A 
ATOM     38  C   LIG    1      -26.111  69.155  17.264  0.00  0.00    +0.060 A 
ATOM     39 CL   LIG    1      -25.033  68.767  15.988  0.00  0.00    -0.082 Cl
ATOM     40  C   LIG    1      -25.836  70.193  18.130  0.00  0.00    +0.133 A 
ATOM     41  N   LIG    1      -26.640  70.539  19.155  0.00  0.00    -0.239 NA
BRANCH  35  42
ATOM     42  N   LIG    1      -28.486  70.240  20.450  0.00  0.00    -0.343 N 
ATOM     43  H   LIG    1      -27.933  70.140  21.294  0.00  0.00    +0.144 HD
ATOM     44  H   LIG    1      -28.733  71.212  20.277  0.00  0.00    +0.144 HD
ENDBRANCH  35  42
ENDBRANCH  29  36
ENDBRANCH  28  32
ENDBRANCH   1  28
TORSDOF 10
ENDMDL
MODEL 2
REMARK VINA RESULT:      -6.5     12.821     16.590
REMARK  Name = pdb/CHEMBL3915638.pdb
REMARK                            x       y       z     vdW  Elec       q    Type
REMARK                         _______ _______ _______ _____ _____    ______ ____
ROOT
ATOM      1  C   LIG    1      -29.999  74.923  31.961  0.00  0.00    +0.323 A 
ATOM      2  N   LIG    1      -29.988  76.094  31.305  0.00  0.00    -0.201 NA
ATOM      3  C   LIG    1      -28.867  76.840  31.401  0.00  0.00    +0.145 A 
ATOM      4  C   LIG    1      -27.797  76.537  32.212  0.00  0.00    +0.105 A 
ATOM      5  C   LIG    1      -27.991  75.378  32.941  0.00  0.00    +0.145 A 
ATOM      6  N   LIG    1      -29.054  74.538  32.824  0.00  0.00    -0.201 NA
ENDROOT
BRANCH   4   7
ATOM      7  N   LIG    1      -26.715  77.444  32.288  0.00  0.00    -0.196 NA
ATOM      8  C   LIG    1      -25.691  77.384  31.520  0.00  0.00    +0.285 C 
BRANCH   8   9
ATOM      9  N   LIG    1      -24.573  78.170  31.538  0.00  0.00    -0.267 N 
ATOM     10  H   LIG    1      -24.157  78.425  30.637  0.00  0.00    +0.157 HD
BRANCH   9  11
ATOM     11  C   LIG    1      -23.658  78.377  32.591  0.00  0.00    +0.061 A 
ATOM     12  C   LIG    1      -22.286  78.023  32.471  0.00  0.00    +0.087 A 
ATOM     13  C   LIG    1      -21.409  78.270  33.544  0.00  0.00    +0.030 A 
ATOM     14  C   LIG    1      -21.861  78.896  34.709  0.00  0.00    +0.014 A 
ATOM     15  C   LIG    1      -23.198  79.264  34.839  0.00  0.00    +0.057 A 
ATOM     16  C   LIG    1      -24.086  78.970  33.793  0.00  0.00    +0.037 A 
BRANCH  12  17
ATOM     17  N   LIG    1      -21.758  77.437  31.275  0.00  0.00    -0.238 N 
ATOM     18  N   LIG    1      -22.432  76.452  30.601  0.00  0.00    -0.175 NA
ATOM     19  C   LIG    1      -21.662  76.183  29.541  0.00  0.00    +0.135 A 
ATOM     20  C   LIG    1      -20.511  76.977  29.491  0.00  0.00    +0.041 A 
ATOM     21  C   LIG    1      -20.588  77.762  30.615  0.00  0.00    +0.114 A 
ENDBRANCH  12  17
BRANCH  15  22
ATOM     22  C   LIG    1      -23.669  80.011  36.063  0.00  0.00    +0.417 C 
ATOM     23  F   LIG    1      -23.274  79.400  37.215  0.00  0.00    -0.166 F 
ATOM     24  F   LIG    1      -25.025  80.099  36.134  0.00  0.00    -0.166 F 
ATOM     25  F   LIG    1      -23.203  81.288  36.141  0.00  0.00    -0.166 F 
ENDBRANCH  15  22
ENDBRANCH   9  11
ENDBRANCH   8   9
BRANCH   8  26
ATOM     26  O   LIG    1      -25.603  76.455  30.541  0.00  0.00    -0.481 OA
ATOM     27  H   LIG    1      -25.084  76.776  29.790  0.00  0.00    +0.295 HD
ENDBRANCH   8  26
ENDBRANCH   4   7
BRANCH   1  28
ATOM     28  O   LIG    1      -31.028  74.008  31.758  0.00  0.00    -0.424 OA
BRANCH  28  32
ATOM     29  C   LIG    1      -34.108  74.893  28.978  0.00  0.00    -0.014 A 
ATOM     30  C   LIG    1      -34.131  75.322  30.323  0.00  0.00    +0.012 A 
ATOM     31  C   LIG    1      -33.087  75.015  31.219  0.00  0.00    +0.047 A 
ATOM     32  C   LIG    1      -32.000  74.241  30.810  0.00  0.00    +0.132 A 
ATOM     33  C   LIG    1      -32.010  73.761  29.504  0.00  0.00    +0.047 A 
ATOM     34  C   LIG    1      -33.007  74.123  28.602  0.00  0.00    +0.012 A 
BRANCH  29  36
ATOM     35  C   LIG    1      -35.150  76.415  27.184  0.00  0.00    +0.124 A 
ATOM     36  C   LIG    1      -35.164  75.248  27.988  0.00  0.00    +0.023 A 
ATOM     37  C   LIG    1      -36.295  74.422  27.835  0.00  0.00    +0.033 A 
ATOM     38  C   LIG    1      -37.308  74.757  26.941  0.00  0.00    +0.060 A 
ATOM     39 CL   LIG    1      -38.673  73.738  26.742  0.00  0.00    -0.082 Cl
ATOM     40  C   LIG    1      -37.189  75.928  26.222  0.00  0.00    +0.133 A 
ATOM     41  N   LIG    1      -36.137  76.763  26.330  0.00  0.00    -0.239 NA
BRANCH  35  42
ATOM     42  N   LIG    1      -34.102  77.333  27.172  0.00  0.00    -0.343 N 
ATOM     43  H   LIG    1      -34.401  78.224  27.553  0.00  0.00    +0.144 HD
ATOM     44  H   LIG    1      -33.355  76.921  27.726  0.00  0.00    +0.144 HD
ENDBRANCH  35  42
ENDBRANCH  29  36
ENDBRANCH  28  32
ENDBRANCH   1  28
TORSDOF 10
ENDMDL
MODEL 3
REMARK VINA RESULT:      -6.5      2.509      4.030
REMARK  Name = pdb/CHEMBL3915638.pdb
REMARK                            x       y       z     vdW  Elec       q    Type
REMARK                         _______ _______ _______ _____ _____    ______ ____
ROOT
ATOM      1  C   LIG    1      -36.734  66.939  20.189  0.00  0.00    +0.323 A 
ATOM      2  N   LIG    1      -37.145  68.153  19.789  0.00  0.00    -0.201 NA
ATOM      3  C   LIG    1      -37.800  68.908  20.696  0.00  0.00    +0.145 A 
ATOM      4  C   LIG    1      -38.173  68.473  21.948  0.00  0.00    +0.105 A 
ATOM      5  C   LIG    1      -37.814  67.160  22.185  0.00  0.00    +0.145 A 
ATOM      6  N   LIG    1      -37.078  66.377  21.351  0.00  0.00    -0.201 NA
ENDROOT
BRANCH   4   7
ATOM      7  N   LIG    1      -38.932  69.333  22.775  0.00  0.00    -0.196 NA
ATOM      8  C   LIG    1      -38.406  70.158  23.603  0.00  0.00    +0.285 C 
BRANCH   8   9
ATOM      9  N   LIG    1      -39.037  70.993  24.482  0.00  0.00    -0.267 N 
ATOM     10  H   LIG    1      -39.439  70.577  25.327  0.00  0.00    +0.157 HD
BRANCH   9  11
ATOM     11  C   LIG    1      -39.575  72.276  24.247  0.00  0.00    +0.061 A 
ATOM     12  C   LIG    1      -40.877  72.454  23.705  0.00  0.00    +0.087 A 
ATOM     13  C   LIG    1      -41.376  73.756  23.509  0.00  0.00    +0.030 A 
ATOM     14  C   LIG    1      -40.624  74.874  23.881  0.00  0.00    +0.014 A 
ATOM     15  C   LIG    1      -39.352  74.719  24.428  0.00  0.00    +0.057 A 
ATOM     16  C   LIG    1      -38.830  73.424  24.573  0.00  0.00    +0.037 A 
BRANCH  12  17
ATOM     17  N   LIG    1      -41.713  71.341  23.366  0.00  0.00    -0.238 N 
ATOM     18  N   LIG    1      -42.135  70.445  24.314  0.00  0.00    -0.175 NA
ATOM     19  C   LIG    1      -42.907  69.584  23.644  0.00  0.00    +0.135 A 
ATOM     20  C   LIG    1      -43.020  69.900  22.286  0.00  0.00    +0.041 A 
ATOM     21  C   LIG    1      -42.240  71.020  22.129  0.00  0.00    +0.114 A 
ENDBRANCH  12  17
BRANCH  15  22
ATOM     22  C   LIG    1      -38.573  75.922  24.902  0.00  0.00    +0.417 C 
ATOM     23  F   LIG    1      -38.877  77.040  24.184  0.00  0.00    -0.166 F 
ATOM     24  F   LIG    1      -37.228  75.756  24.782  0.00  0.00    -0.166 F 
ATOM     25  F   LIG    1      -38.799  76.245  26.205  0.00  0.00    -0.166 F 
ENDBRANCH  15  22
ENDBRANCH   9  11
ENDBRANCH   8   9
BRANCH   8  26
ATOM     26  O   LIG    1      -37.063  70.287  23.706  0.00  0.00    -0.481 OA
ATOM     27  H   LIG    1      -36.807  70.690  24.548  0.00  0.00    +0.295 HD
ENDBRANCH   8  26
ENDBRANCH   4   7
BRANCH   1  28
ATOM     28  O   LIG    1      -35.885  66.180  19.388  0.00  0.00    -0.424 OA
BRANCH  28  32
ATOM     29  C   LIG    1      -31.891  67.423  18.681  0.00  0.00    -0.014 A 
ATOM     30  C   LIG    1      -32.923  67.552  17.727  0.00  0.00    +0.012 A 
ATOM     31  C   LIG    1      -34.242  67.133  17.998  0.00  0.00    +0.047 A 
ATOM     32  C   LIG    1      -34.568  66.542  19.219  0.00  0.00    +0.132 A 
ATOM     33  C   LIG    1      -33.536  66.353  20.134  0.00  0.00    +0.047 A 
ATOM     34  C   LIG    1      -32.251  66.829  19.892  0.00  0.00    +0.012 A 
BRANCH  29  36
ATOM     35  C   LIG    1      -30.155  69.253  18.177  0.00  0.00    +0.124 A 
ATOM     36  C   LIG    1      -30.501  67.906  18.452  0.00  0.00    +0.023 A 
ATOM     37  C   LIG    1      -29.426  66.995  18.456  0.00  0.00    +0.033 A 
ATOM     38  C   LIG    1      -28.126  67.424  18.209  0.00  0.00    +0.060 A 
ATOM     39 CL   LIG    1      -26.817  66.315  18.236  0.00  0.00    -0.082 Cl
ATOM     40  C   LIG    1      -27.914  68.760  17.939  0.00  0.00    +0.133 A 
ATOM     41  N   LIG    1      -28.900  69.679  17.913  0.00  0.00    -0.239 NA
BRANCH  35  42
ATOM     42  N   LIG    1      -31.074  70.300  18.164  0.00  0.00    -0.343 N 
ATOM     43  H   LIG    1      -30.613  71.184  18.348  0.00  0.00    +0.144 HD
ATOM     44  H   LIG    1      -31.507  70.289  17.243  0.00  0.00    +0.144 HD
ENDBRANCH  35  42
ENDBRANCH  29  36
ENDBRANCH  28  32
ENDBRANCH   1  28
TORSDOF 10
ENDMDL
MODEL 4
REMARK VINA RESULT:      -6.5     19.320     22.242
REMARK  Name = pdb/CHEMBL3915638.pdb
REMARK                            x       y       z     vdW  Elec       q    Type
REMARK                         _______ _______ _______ _____ _____    ______ ____
ROOT
ATOM      1  C   LIG    1      -32.892  93.570  24.008  0.00  0.00    +0.323 A 
ATOM      2  N   LIG    1      -31.994  92.621  24.315  0.00  0.00    -0.201 NA
ATOM      3  C   LIG    1      -32.250  91.863  25.402  0.00  0.00    +0.145 A 
ATOM      4  C   LIG    1      -33.298  92.074  26.270  0.00  0.00    +0.105 A 
ATOM      5  C   LIG    1      -34.068  93.167  25.919  0.00  0.00    +0.145 A 
ATOM      6  N   LIG    1      -33.916  93.915  24.794  0.00  0.00    -0.201 NA
ENDROOT
BRANCH   4   7
ATOM      7  N   LIG    1      -33.410  91.260  27.420  0.00  0.00    -0.196 NA
ATOM      8  C   LIG    1      -34.220  90.270  27.506  0.00  0.00    +0.285 C 
BRANCH   8   9
ATOM      9  N   LIG    1      -34.447  89.454  28.578  0.00  0.00    -0.267 N 
ATOM     10  H   LIG    1      -35.045  89.811  29.329  0.00  0.00    +0.157 HD
BRANCH   9  11
ATOM     11  C   LIG    1      -33.691  88.348  29.020  0.00  0.00    +0.061 A 
ATOM     12  C   LIG    1      -34.037  87.015  28.669  0.00  0.00    +0.087 A 
ATOM     13  C   LIG    1      -33.238  85.947  29.120  0.00  0.00    +0.030 A 
ATOM     14  C   LIG    1      -32.085  86.185  29.872  0.00  0.00    +0.014 A 
ATOM     15  C   LIG    1      -31.721  87.486  30.214  0.00  0.00    +0.057 A 
ATOM     16  C   LIG    1      -32.546  88.547  29.813  0.00  0.00    +0.037 A 
BRANCH  12  17
ATOM     17  N   LIG    1      -35.173  86.720  27.847  0.00  0.00    -0.238 N 
ATOM     18  N   LIG    1      -36.361  87.389  27.996  0.00  0.00    -0.175 NA
ATOM     19  C   LIG    1      -37.157  86.876  27.053  0.00  0.00    +0.135 A 
ATOM     20  C   LIG    1      -36.520  85.902  26.276  0.00  0.00    +0.041 A 
ATOM     21  C   LIG    1      -35.258  85.811  26.809  0.00  0.00    +0.114 A 
ENDBRANCH  12  17
BRANCH  15  22
ATOM     22  C   LIG    1      -30.434  87.748  30.959  0.00  0.00    +0.417 C 
ATOM     23  F   LIG    1      -30.226  86.836  31.950  0.00  0.00    -0.166 F 
ATOM     24  F   LIG    1      -30.417  88.967  31.562  0.00  0.00    -0.166 F 
ATOM     25  F   LIG    1      -29.324  87.700  30.172  0.00  0.00    -0.166 F 
ENDBRANCH  15  22
ENDBRANCH   9  11
ENDBRANCH   8   9
BRANCH   8  26
ATOM     26  O   LIG    1      -35.001  89.912  26.461  0.00  0.00    -0.481 OA
ATOM     27  H   LIG    1      -35.862  89.583  26.756  0.00  0.00    +0.295 HD
ENDBRANCH   8  26
ENDBRANCH   4   7
BRANCH   1  28
ATOM     28  O   LIG    1      -32.808  94.261  22.803  0.00  0.00    -0.424 OA
BRANCH  28  32
ATOM     29  C   LIG    1      -33.262  92.206  19.119  0.00  0.00    -0.014 A 
ATOM     30  C   LIG    1      -34.309  92.365  20.052  0.00  0.00    +0.012 A 
ATOM     31  C   LIG    1      -34.124  93.059  21.265  0.00  0.00    +0.047 A 
ATOM     32  C   LIG    1      -32.879  93.591  21.602  0.00  0.00    +0.132 A 
ATOM     33  C   LIG    1      -31.830  93.376  20.713  0.00  0.00    +0.047 A 
ATOM     34  C   LIG    1      -32.030  92.751  19.486  0.00  0.00    +0.012 A 
BRANCH  29  36
ATOM     35  C   LIG    1      -33.687  90.145  17.639  0.00  0.00    +0.124 A 
ATOM     36  C   LIG    1      -33.434  91.530  17.802  0.00  0.00    +0.023 A 
ATOM     37  C   LIG    1      -33.304  92.265  16.608  0.00  0.00    +0.033 A 
ATOM     38  C   LIG    1      -33.426  91.643  15.369  0.00  0.00    +0.060 A 
ATOM     39 CL   LIG    1      -33.287  92.545  13.917  0.00  0.00    -0.082 Cl
ATOM     40  C   LIG    1      -33.659  90.284  15.337  0.00  0.00    +0.133 A 
ATOM     41  N   LIG    1      -33.786  89.524  16.444  0.00  0.00    -0.239 NA
BRANCH  35  42
ATOM     42  N   LIG    1      -33.880  89.264  18.701  0.00  0.00    -0.343 N 
ATOM     43  H   LIG    1      -34.541  89.646  19.369  0.00  0.00    +0.144 HD
ATOM     44  H   LIG    1      -34.219  88.395  18.294  0.00  0.00    +0.144 HD
ENDBRANCH  35  42
ENDBRANCH  29  36
ENDBRANCH  28  32
ENDBRANCH   1  28
TORSDOF 10
ENDMDL
MODEL 5
REMARK VINA RESULT:      -6.4     12.505     16.551
REMARK  Name = pdb/CHEMBL3915638.pdb
REMARK                            x       y       z     vdW  Elec       q    Type
REMARK                         _______ _______ _______ _____ _____    ______ ____
ROOT
ATOM      1  C   LIG    1      -35.912  84.889  27.402  0.00  0.00    +0.323 A 
ATOM      2  N   LIG    1      -36.603  84.505  28.488  0.00  0.00    -0.201 NA
ATOM      3  C   LIG    1      -37.092  83.247  28.490  0.00  0.00    +0.145 A 
ATOM      4  C   LIG    1      -37.032  82.386  27.417  0.00  0.00    +0.105 A 
ATOM      5  C   LIG    1      -36.419  82.950  26.314  0.00  0.00    +0.145 A 
ATOM      6  N   LIG    1      -35.829  84.175  26.276  0.00  0.00    -0.201 NA
ENDROOT
BRANCH   4   7
ATOM      7  N   LIG    1      -37.658  81.122  27.516  0.00  0.00    -0.196 NA
ATOM      8  C   LIG    1      -37.009  80.019  27.588  0.00  0.00    +0.285 C 
BRANCH   8   9
ATOM      9  N   LIG    1      -37.505  78.747  27.634  0.00  0.00    -0.267 N 
ATOM     10  H   LIG    1      -37.346  78.205  28.489  0.00  0.00    +0.157 HD
BRANCH   9  11
ATOM     11  C   LIG    1      -37.867  77.901  26.564  0.00  0.00    +0.061 A 
ATOM     12  C   LIG    1      -37.117  76.737  26.243  0.00  0.00    +0.087 A 
ATOM     13  C   LIG    1      -37.532  75.915  25.178  0.00  0.00    +0.030 A 
ATOM     14  C   LIG    1      -38.694  76.207  24.460  0.00  0.00    +0.014 A 
ATOM     15  C   LIG    1      -39.450  77.335  24.769  0.00  0.00    +0.057 A 
ATOM     16  C   LIG    1      -39.009  78.186  25.794  0.00  0.00    +0.037 A 
BRANCH  12  17
ATOM     17  N   LIG    1      -35.953  76.358  26.988  0.00  0.00    -0.238 N 
ATOM     18  N   LIG    1      -34.868  77.189  27.098  0.00  0.00    -0.175 NA
ATOM     19  C   LIG    1      -34.011  76.522  27.878  0.00  0.00    +0.135 A 
ATOM     20  C   LIG    1      -34.510  75.286  28.299  0.00  0.00    +0.041 A 
ATOM     21  C   LIG    1      -35.748  75.196  27.709  0.00  0.00    +0.114 A 
ENDBRANCH  12  17
BRANCH  15  22
ATOM     22  C   LIG    1      -40.747  77.607  24.046  0.00  0.00    +0.417 C 
ATOM     23  F   LIG    1      -40.756  78.838  23.462  0.00  0.00    -0.166 F 
ATOM     24  F   LIG    1      -41.825  77.579  24.875  0.00  0.00    -0.166 F 
ATOM     25  F   LIG    1      -41.016  76.721  23.047  0.00  0.00    -0.166 F 
ENDBRANCH  15  22
ENDBRANCH   9  11
ENDBRANCH   8   9
BRANCH   8  26
ATOM     26  O   LIG    1      -35.656  80.002  27.616  0.00  0.00    -0.481 OA
ATOM     27  H   LIG    1      -35.286  79.645  26.796  0.00  0.00    +0.295 HD
ENDBRANCH   8  26
ENDBRANCH   4   7
BRANCH   1  28
ATOM     28  O   LIG    1      -35.209  86.090  27.399  0.00  0.00    -0.424 OA
BRANCH  28  32
ATOM     29  C   LIG    1      -32.400  86.859  30.484  0.00  0.00    -0.014 A 
ATOM     30  C   LIG    1      -32.464  85.637  29.781  0.00  0.00    +0.012 A 
ATOM     31  C   LIG    1      -33.407  85.417  28.756  0.00  0.00    +0.047 A 
ATOM     32  C   LIG    1      -34.340  86.399  28.422  0.00  0.00    +0.132 A 
ATOM     33  C   LIG    1      -34.321  87.579  29.160  0.00  0.00    +0.047 A 
ATOM     34  C   LIG    1      -33.346  87.820  30.123  0.00  0.00    +0.012 A 
BRANCH  29  36
ATOM     35  C   LIG    1      -30.094  87.683  31.271  0.00  0.00    +0.124 A 
ATOM     36  C   LIG    1      -31.380  87.148  31.531  0.00  0.00    +0.023 A 
ATOM     37  C   LIG    1      -31.649  86.847  32.881  0.00  0.00    +0.033 A 
ATOM     38  C   LIG    1      -30.695  87.078  33.867  0.00  0.00    +0.060 A 
ATOM     39 CL   LIG    1      -31.033  86.730  35.512  0.00  0.00    -0.082 Cl
ATOM     40  C   LIG    1      -29.471  87.589  33.490  0.00  0.00    +0.133 A 
ATOM     41  N   LIG    1      -29.151  87.890  32.216  0.00  0.00    -0.239 NA
BRANCH  35  42
ATOM     42  N   LIG    1      -29.659  88.073  30.006  0.00  0.00    -0.343 N 
ATOM     43  H   LIG    1      -28.729  88.474  30.055  0.00  0.00    +0.144 HD
ATOM     44  H   LIG    1      -29.677  87.236  29.428  0.00  0.00    +0.144 HD
ENDBRANCH  35  42
ENDBRANCH  29  36
ENDBRANCH  28  32
ENDBRANCH   1  28
TORSDOF 10
ENDMDL
MODEL 6
REMARK VINA RESULT:      -6.4     17.910     20.515
REMARK  Name = pdb/CHEMBL3915638.pdb
REMARK                            x       y       z     vdW  Elec       q    Type
REMARK                         _______ _______ _______ _____ _____    ______ ____
ROOT
ATOM      1  C   LIG    1      -26.115  81.575  37.044  0.00  0.00    +0.323 A 
ATOM      2  N   LIG    1      -27.428  81.435  37.282  0.00  0.00    -0.201 NA
ATOM      3  C   LIG    1      -28.213  82.507  37.043  0.00  0.00    +0.145 A 
ATOM      4  C   LIG    1      -27.743  83.752  36.689  0.00  0.00    +0.105 A 
ATOM      5  C   LIG    1      -26.364  83.800  36.612  0.00  0.00    +0.145 A 
ATOM      6  N   LIG    1      -25.526  82.739  36.753  0.00  0.00    -0.201 NA
ENDROOT
BRANCH   4   7
ATOM      7  N   LIG    1      -28.663  84.817  36.548  0.00  0.00    -0.196 NA
ATOM      8  C   LIG    1      -29.204  85.137  35.431  0.00  0.00    +0.285 C 
BRANCH   8   9
ATOM      9  N   LIG    1      -30.059  86.171  35.171  0.00  0.00    -0.267 N 
ATOM     10  H   LIG    1      -31.059  86.008  35.314  0.00  0.00    +0.157 HD
BRANCH   9  11
ATOM     11  C   LIG    1      -29.845  87.310  34.366  0.00  0.00    +0.061 A 
ATOM     12  C   LIG    1      -30.416  87.428  33.070  0.00  0.00    +0.087 A 
ATOM     13  C   LIG    1      -30.190  88.595  32.315  0.00  0.00    +0.030 A 
ATOM     14  C   LIG    1      -29.447  89.655  32.841  0.00  0.00    +0.014 A 
ATOM     15  C   LIG    1      -28.892  89.563  34.116  0.00  0.00    +0.057 A 
ATOM     16  C   LIG    1      -29.070  88.380  34.848  0.00  0.00    +0.037 A 
BRANCH  12  17
ATOM     17  N   LIG    1      -31.238  86.398  32.509  0.00  0.00    -0.238 N 
ATOM     18  N   LIG    1      -32.221  85.784  33.242  0.00  0.00    -0.175 NA
ATOM     19  C   LIG    1      -32.784  84.920  32.392  0.00  0.00    +0.135 A 
ATOM     20  C   LIG    1      -32.213  84.962  31.116  0.00  0.00    +0.041 A 
ATOM     21  C   LIG    1      -31.219  85.905  31.217  0.00  0.00    +0.114 A 
ENDBRANCH  12  17
BRANCH  15  22
ATOM     22  C   LIG    1      -28.157  90.738  34.714  0.00  0.00    +0.417 C 
ATOM     23  F   LIG    1      -27.811  91.657  33.769  0.00  0.00    -0.166 F 
ATOM     24  F   LIG    1      -26.997  90.374  35.324  0.00  0.00    -0.166 F 
ATOM     25  F   LIG    1      -28.877  91.420  35.648  0.00  0.00    -0.166 F 
ENDBRANCH  15  22
ENDBRANCH   9  11
ENDBRANCH   8   9
BRANCH   8  26
ATOM     26  O   LIG    1      -28.954  84.432  34.304  0.00  0.00    -0.481 OA
ATOM     27  H   LIG    1      -28.008  84.406  34.102  0.00  0.00    +0.295 HD
ENDBRANCH   8  26
ENDBRANCH   4   7
BRANCH   1  28
ATOM     28  O   LIG    1      -25.268  80.470  37.074  0.00  0.00    -0.424 OA
BRANCH  28  32
ATOM     29  C   LIG    1      -24.270  78.461  33.473  0.00  0.00    -0.014 A 
ATOM     30  C   LIG    1      -25.358  78.090  34.292  0.00  0.00    +0.012 A 
ATOM     31  C   LIG    1      -25.665  78.784  35.480  0.00  0.00    +0.047 A 
ATOM     32  C   LIG    1      -24.876  79.852  35.907  0.00  0.00    +0.132 A 
ATOM     33  C   LIG    1      -23.764  80.175  35.137  0.00  0.00    +0.047 A 
ATOM     34  C   LIG    1      -23.502  79.534  33.929  0.00  0.00    +0.012 A 
BRANCH  29  36
ATOM     35  C   LIG    1      -24.919  77.340  31.250  0.00  0.00    +0.124 A 
ATOM     36  C   LIG    1      -23.950  77.788  32.183  0.00  0.00    +0.023 A 
ATOM     37  C   LIG    1      -22.611  77.519  31.840  0.00  0.00    +0.033 A 
ATOM     38  C   LIG    1      -22.296  76.859  30.655  0.00  0.00    +0.060 A 
ATOM     39 CL   LIG    1      -20.663  76.551  30.230  0.00  0.00    -0.082 Cl
ATOM     40  C   LIG    1      -23.328  76.458  29.832  0.00  0.00    +0.133 A 
ATOM     41  N   LIG    1      -24.629  76.680  30.108  0.00  0.00    -0.239 NA
BRANCH  35  42
ATOM     42  N   LIG    1      -26.289  77.546  31.400  0.00  0.00    -0.343 N 
ATOM     43  H   LIG    1      -26.494  77.949  32.307  0.00  0.00    +0.144 HD
ATOM     44  H   LIG    1      -26.569  78.165  30.643  0.00  0.00    +0.144 HD
ENDBRANCH  35  42
ENDBRANCH  29  36
ENDBRANCH  28  32
ENDBRANCH   1  28
TORSDOF 10
ENDMDL
MODEL 7
REMARK VINA RESULT:      -6.4     14.544     17.962
REMARK  Name = pdb/CHEMBL3915638.pdb
REMARK                            x       y       z     vdW  Elec       q    Type
REMARK                         _______ _______ _______ _____ _____    ______ ____
ROOT
ATOM      1  C   LIG    1      -28.387  77.122  32.236  0.00  0.00    +0.323 A 
ATOM      2  N   LIG    1      -27.358  77.060  31.375  0.00  0.00    -0.201 NA
ATOM      3  C   LIG    1      -26.122  76.937  31.904  0.00  0.00    +0.145 A 
ATOM      4  C   LIG    1      -25.843  76.991  33.251  0.00  0.00    +0.105 A 
ATOM      5  C   LIG    1      -26.972  77.197  34.022  0.00  0.00    +0.145 A 
ATOM      6  N   LIG    1      -28.250  77.240  33.560  0.00  0.00    -0.201 NA
ENDROOT
BRANCH   4   7
ATOM      7  N   LIG    1      -24.495  76.934  33.675  0.00  0.00    -0.196 NA
ATOM      8  C   LIG    1      -23.793  77.975  33.932  0.00  0.00    +0.285 C 
BRANCH   8   9
ATOM      9  N   LIG    1      -22.478  78.040  34.296  0.00  0.00    -0.267 N 
ATOM     10  H   LIG    1      -22.264  78.308  35.261  0.00  0.00    +0.157 HD
BRANCH   9  11
ATOM     11  C   LIG    1      -21.341  78.181  33.472  0.00  0.00    +0.061 A 
ATOM     12  C   LIG    1      -20.266  79.044  33.821  0.00  0.00    +0.087 A 
ATOM     13  C   LIG    1      -19.144  79.133  32.975  0.00  0.00    +0.030 A 
ATOM     14  C   LIG    1      -19.056  78.354  31.818  0.00  0.00    +0.014 A 
ATOM     15  C   LIG    1      -20.093  77.492  31.468  0.00  0.00    +0.057 A 
ATOM     16  C   LIG    1      -21.236  77.442  32.280  0.00  0.00    +0.037 A 
BRANCH  12  17
ATOM     17  N   LIG    1      -20.278  79.816  35.027  0.00  0.00    -0.238 N 
ATOM     18  N   LIG    1      -21.209  80.800  35.241  0.00  0.00    -0.175 NA
ATOM     19  C   LIG    1      -20.929  81.268  36.462  0.00  0.00    +0.135 A 
ATOM     20  C   LIG    1      -19.854  80.607  37.064  0.00  0.00    +0.041 A 
ATOM     21  C   LIG    1      -19.445  79.692  36.124  0.00  0.00    +0.114 A 
ENDBRANCH  12  17
BRANCH  15  22
ATOM     22  C   LIG    1      -19.964  76.593  30.262  0.00  0.00    +0.417 C 
ATOM     23  F   LIG    1      -18.696  76.592  29.762  0.00  0.00    -0.166 F 
ATOM     24  F   LIG    1      -20.770  76.975  29.235  0.00  0.00    -0.166 F 
ATOM     25  F   LIG    1      -20.264  75.289  30.513  0.00  0.00    -0.166 F 
ENDBRANCH  15  22
ENDBRANCH   9  11
ENDBRANCH   8   9
BRANCH   8  26
ATOM     26  O   LIG    1      -24.326  79.216  33.851  0.00  0.00    -0.481 OA
ATOM     27  H   LIG    1      -23.685  79.897  34.102  0.00  0.00    +0.295 HD
ENDBRANCH   8  26
ENDBRANCH   4   7
BRANCH   1  28
ATOM     28  O   LIG    1      -29.699  77.050  31.776  0.00  0.00    -0.424 OA
BRANCH  28  32
ATOM     29  C   LIG    1      -31.397  73.408  30.416  0.00  0.00    -0.014 A 
ATOM     30  C   LIG    1      -31.375  74.589  29.644  0.00  0.00    +0.012 A 
ATOM     31  C   LIG    1      -30.796  75.781  30.125  0.00  0.00    +0.047 A 
ATOM     32  C   LIG    1      -30.249  75.843  31.407  0.00  0.00    +0.132 A 
ATOM     33  C   LIG    1      -30.332  74.698  32.194  0.00  0.00    +0.047 A 
ATOM     34  C   LIG    1      -30.841  73.504  31.693  0.00  0.00    +0.012 A 
BRANCH  29  36
ATOM     35  C   LIG    1      -31.157  71.003  29.534  0.00  0.00    +0.124 A 
ATOM     36  C   LIG    1      -31.947  72.115  29.919  0.00  0.00    +0.023 A 
ATOM     37  C   LIG    1      -33.337  71.952  29.764  0.00  0.00    +0.033 A 
ATOM     38  C   LIG    1      -33.865  70.764  29.267  0.00  0.00    +0.060 A 
ATOM     39 CL   LIG    1      -35.561  70.561  29.099  0.00  0.00    -0.082 Cl
ATOM     40  C   LIG    1      -32.994  69.756  28.911  0.00  0.00    +0.133 A 
ATOM     41  N   LIG    1      -31.655  69.854  29.029  0.00  0.00    -0.239 NA
BRANCH  35  42
ATOM     42  N   LIG    1      -29.769  70.965  29.647  0.00  0.00    -0.343 N 
ATOM     43  H   LIG    1      -29.410  71.858  29.967  0.00  0.00    +0.144 HD
ATOM     44  H   LIG    1      -29.556  70.219  30.305  0.00  0.00    +0.144 HD
ENDBRANCH  35  42
ENDBRANCH  29  36
ENDBRANCH  28  32
ENDBRANCH   1  28
TORSDOF 10
ENDMDL
MODEL 8
REMARK VINA RESULT:      -6.3     17.705     20.252
REMARK  Name = pdb/CHEMBL3915638.pdb
REMARK                            x       y       z     vdW  Elec       q    Type
REMARK                         _______ _______ _______ _____ _____    ______ ____
ROOT
ATOM      1  C   LIG    1      -26.251  81.239  37.068  0.00  0.00    +0.323 A 
ATOM      2  N   LIG    1      -27.587  81.170  37.187  0.00  0.00    -0.201 NA
ATOM      3  C   LIG    1      -28.280  82.311  36.990  0.00  0.00    +0.145 A 
ATOM      4  C   LIG    1      -27.706  83.547  36.793  0.00  0.00    +0.105 A 
ATOM      5  C   LIG    1      -26.325  83.506  36.831  0.00  0.00    +0.145 A 
ATOM      6  N   LIG    1      -25.569  82.380  36.937  0.00  0.00    -0.201 NA
ENDROOT
BRANCH   4   7
ATOM      7  N   LIG    1      -28.542  84.682  36.682  0.00  0.00    -0.196 NA
ATOM      8  C   LIG    1      -28.871  85.207  35.560  0.00  0.00    +0.285 C 
BRANCH   8   9
ATOM      9  N   LIG    1      -29.624  86.325  35.338  0.00  0.00    -0.267 N 
ATOM     10  H   LIG    1      -30.330  86.570  36.038  0.00  0.00    +0.157 HD
BRANCH   9  11
ATOM     11  C   LIG    1      -29.871  86.994  34.120  0.00  0.00    +0.061 A 
ATOM     12  C   LIG    1      -29.215  88.210  33.787  0.00  0.00    +0.087 A 
ATOM     13  C   LIG    1      -29.482  88.827  32.550  0.00  0.00    +0.030 A 
ATOM     14  C   LIG    1      -30.351  88.238  31.629  0.00  0.00    +0.014 A 
ATOM     15  C   LIG    1      -30.992  87.038  31.931  0.00  0.00    +0.057 A 
ATOM     16  C   LIG    1      -30.771  86.449  33.186  0.00  0.00    +0.037 A 
BRANCH  12  17
ATOM     17  N   LIG    1      -28.267  88.824  34.669  0.00  0.00    -0.238 N 
ATOM     18  N   LIG    1      -27.195  88.129  35.167  0.00  0.00    -0.175 NA
ATOM     19  C   LIG    1      -26.531  89.021  35.908  0.00  0.00    +0.135 A 
ATOM     20  C   LIG    1      -27.125  90.287  35.897  0.00  0.00    +0.041 A 
ATOM     21  C   LIG    1      -28.239  90.134  35.108  0.00  0.00    +0.114 A 
ENDBRANCH  12  17
BRANCH  15  22
ATOM     22  C   LIG    1      -31.869  86.362  30.906  0.00  0.00    +0.417 C 
ATOM     23  F   LIG    1      -32.082  87.153  29.816  0.00  0.00    -0.166 F 
ATOM     24  F   LIG    1      -33.102  86.055  31.391  0.00  0.00    -0.166 F 
ATOM     25  F   LIG    1      -31.353  85.198  30.423  0.00  0.00    -0.166 F 
ENDBRANCH  15  22
ENDBRANCH   9  11
ENDBRANCH   8   9
BRANCH   8  26
ATOM     26  O   LIG    1      -28.462  84.669  34.388  0.00  0.00    -0.481 OA
ATOM     27  H   LIG    1      -28.659  83.722  34.343  0.00  0.00    +0.295 HD
ENDBRANCH   8  26
ENDBRANCH   4   7
BRANCH   1  28
ATOM     28  O   LIG    1      -25.481  80.080  37.060  0.00  0.00    -0.424 OA
BRANCH  28  32
ATOM     29  C   LIG    1      -24.230  78.318  33.409  0.00  0.00    -0.014 A 
ATOM     30  C   LIG    1      -23.627  79.468  33.961  0.00  0.00    +0.012 A 
ATOM     31  C   LIG    1      -24.064  80.024  35.180  0.00  0.00    +0.047 A 
ATOM     32  C   LIG    1      -25.141  79.469  35.873  0.00  0.00    +0.132 A 
ATOM     33  C   LIG    1      -25.779  78.376  35.295  0.00  0.00    +0.047 A 
ATOM     34  C   LIG    1      -25.303  77.787  34.127  0.00  0.00    +0.012 A 
BRANCH  29  36
ATOM     35  C   LIG    1      -24.585  77.384  31.038  0.00  0.00    +0.124 A 
ATOM     36  C   LIG    1      -23.758  77.669  32.153  0.00  0.00    +0.023 A 
ATOM     37  C   LIG    1      -22.418  77.253  32.034  0.00  0.00    +0.033 A 
ATOM     38  C   LIG    1      -21.969  76.613  30.883  0.00  0.00    +0.060 A 
ATOM     39 CL   LIG    1      -20.330  76.127  30.733  0.00  0.00    -0.082 Cl
ATOM     40  C   LIG    1      -22.872  76.377  29.868  0.00  0.00    +0.133 A 
ATOM     41  N   LIG    1      -24.168  76.743  29.925  0.00  0.00    -0.239 NA
BRANCH  35  42
ATOM     42  N   LIG    1      -25.928  77.748  30.958  0.00  0.00    -0.343 N 
ATOM     43  H   LIG    1      -26.174  78.002  30.007  0.00  0.00    +0.144 HD
ATOM     44  H   LIG    1      -26.462  76.944  31.280  0.00  0.00    +0.144 HD
ENDBRANCH  35  42
ENDBRANCH  29  36
ENDBRANCH  28  32
ENDBRANCH   1  28
TORSDOF 10
ENDMDL
MODEL 9
REMARK VINA RESULT:      -6.3     18.140     20.607
REMARK  Name = pdb/CHEMBL3915638.pdb
REMARK                            x       y       z     vdW  Elec       q    Type
REMARK                         _______ _______ _______ _____ _____    ______ ____
ROOT
ATOM      1  C   LIG    1      -26.245  83.257  37.023  0.00  0.00    +0.323 A 
ATOM      2  N   LIG    1      -26.250  84.334  36.220  0.00  0.00    -0.201 NA
ATOM      3  C   LIG    1      -27.453  84.863  35.912  0.00  0.00    +0.145 A 
ATOM      4  C   LIG    1      -28.662  84.308  36.266  0.00  0.00    +0.105 A 
ATOM      5  C   LIG    1      -28.521  83.127  36.970  0.00  0.00    +0.145 A 
ATOM      6  N   LIG    1      -27.344  82.589  37.387  0.00  0.00    -0.201 NA
ENDROOT
BRANCH   4   7
ATOM      7  N   LIG    1      -29.855  84.915  35.809  0.00  0.00    -0.196 NA
ATOM      8  C   LIG    1      -30.335  84.730  34.635  0.00  0.00    +0.285 C 
BRANCH   8   9
ATOM      9  N   LIG    1      -31.443  85.301  34.075  0.00  0.00    -0.267 N 
ATOM     10  H   LIG    1      -32.359  84.982  34.403  0.00  0.00    +0.157 HD
BRANCH   9  11
ATOM     11  C   LIG    1      -31.558  85.978  32.843  0.00  0.00    +0.061 A 
ATOM     12  C   LIG    1      -30.802  87.147  32.557  0.00  0.00    +0.087 A 
ATOM     13  C   LIG    1      -30.938  87.775  31.304  0.00  0.00    +0.030 A 
ATOM     14  C   LIG    1      -31.775  87.238  30.323  0.00  0.00    +0.014 A 
ATOM     15  C   LIG    1      -32.513  86.085  30.579  0.00  0.00    +0.057 A 
ATOM     16  C   LIG    1      -32.421  85.489  31.846  0.00  0.00    +0.037 A 
BRANCH  12  17
ATOM     17  N   LIG    1      -29.881  87.702  33.505  0.00  0.00    -0.238 N 
ATOM     18  N   LIG    1      -30.314  88.302  34.660  0.00  0.00    -0.175 NA
ATOM     19  C   LIG    1      -29.192  88.661  35.293  0.00  0.00    +0.135 A 
ATOM     20  C   LIG    1      -28.035  88.296  34.596  0.00  0.00    +0.041 A 
ATOM     21  C   LIG    1      -28.500  87.696  33.452  0.00  0.00    +0.114 A 
ENDBRANCH  12  17
BRANCH  15  22
ATOM     22  C   LIG    1      -33.356  85.462  29.493  0.00  0.00    +0.417 C 
ATOM     23  F   LIG    1      -33.306  84.100  29.527  0.00  0.00    -0.166 F 
ATOM     24  F   LIG    1      -32.951  85.819  28.244  0.00  0.00    -0.166 F 
ATOM     25  F   LIG    1      -34.677  85.785  29.567  0.00  0.00    -0.166 F 
ENDBRANCH  15  22
ENDBRANCH   9  11
ENDBRANCH   8   9
BRANCH   8  26
ATOM     26  O   LIG    1      -29.737  83.892  33.758  0.00  0.00    -0.481 OA
ATOM     27  H   LIG    1      -30.083  84.006  32.862  0.00  0.00    +0.295 HD
ENDBRANCH   8  26
ENDBRANCH   4   7
BRANCH   1  28
ATOM     28  O   LIG    1      -25.051  82.771  37.547  0.00  0.00    -0.424 OA
BRANCH  28  32
ATOM     29  C   LIG    1      -22.595  80.286  35.140  0.00  0.00    -0.014 A 
ATOM     30  C   LIG    1      -23.782  79.838  35.757  0.00  0.00    +0.012 A 
ATOM     31  C   LIG    1      -24.579  80.693  36.546  0.00  0.00    +0.047 A 
ATOM     32  C   LIG    1      -24.199  82.016  36.772  0.00  0.00    +0.132 A 
ATOM     33  C   LIG    1      -22.994  82.439  36.219  0.00  0.00    +0.047 A 
ATOM     34  C   LIG    1      -22.245  81.615  35.384  0.00  0.00    +0.012 A 
BRANCH  29  36
ATOM     35  C   LIG    1      -22.279  78.530  33.287  0.00  0.00    +0.124 A 
ATOM     36  C   LIG    1      -21.760  79.429  34.252  0.00  0.00    +0.023 A 
ATOM     37  C   LIG    1      -20.357  79.444  34.372  0.00  0.00    +0.033 A 
ATOM     38  C   LIG    1      -19.563  78.623  33.576  0.00  0.00    +0.060 A 
ATOM     39 CL   LIG    1      -17.854  78.660  33.710  0.00  0.00    -0.082 Cl
ATOM     40  C   LIG    1      -20.184  77.778  32.680  0.00  0.00    +0.133 A 
ATOM     41  N   LIG    1      -21.521  77.712  32.524  0.00  0.00    -0.239 NA
BRANCH  35  42
ATOM     42  N   LIG    1      -23.636  78.399  33.002  0.00  0.00    -0.343 N 
ATOM     43  H   LIG    1      -24.051  79.305  32.810  0.00  0.00    +0.144 HD
ATOM     44  H   LIG    1      -23.701  77.780  32.197  0.00  0.00    +0.144 HD
ENDBRANCH  35  42
ENDBRANCH  29  36
ENDBRANCH  28  32
ENDBRANCH   1  28
TORSDOF 10
ENDMDL
