MODEL 1
REMARK VINA RESULT:      -5.8      0.000      0.000
REMARK  Name = pdb/CHEMBL3949341.pdb
REMARK                            x       y       z     vdW  Elec       q    Type
REMARK                         _______ _______ _______ _____ _____    ______ ____
ROOT
ATOM      1  C   LIG    1      -19.471  87.246  13.495  0.00  0.00    +0.201 A 
ATOM      2  N   LIG    1      -19.010  86.045  12.968  0.00  0.00    -0.102 N 
ATOM      3  N   LIG    1      -18.990  84.830  13.601  0.00  0.00    +0.059 NA
ATOM      4  C   LIG    1      -18.855  83.793  12.820  0.00  0.00    +0.323 C 
ATOM      5  C   LIG    1      -18.617  83.936  11.344  0.00  0.00    +0.152 C 
ATOM      6  C   LIG    1      -18.532  85.159  10.810  0.00  0.00    +0.040 C 
ATOM      7  C   LIG    1      -18.738  86.284  11.632  0.00  0.00    +0.176 A 
ATOM      8  N   LIG    1      -18.766  87.565  11.341  0.00  0.00    -0.231 NA
ATOM      9  C   LIG    1      -19.184  88.167  12.500  0.00  0.00    +0.163 A 
ENDROOT
BRANCH   4  10
ATOM     10  N   LIG    1      -18.976  82.533  13.380  0.00  0.00    -0.215 N 
ATOM     11  C   LIG    1      -19.991  81.562  12.939  0.00  0.00    +0.201 C 
ATOM     12  C   LIG    1      -19.269  80.219  13.118  0.00  0.00    +0.056 C 
ATOM     13  C   LIG    1      -18.425  80.440  14.363  0.00  0.00    +0.048 C 
ATOM     14  C   LIG    1      -17.974  81.893  14.229  0.00  0.00    +0.226 C 
BRANCH  11  15
ATOM     15  C   LIG    1      -21.247  81.695  13.780  0.00  0.00    +0.033 A 
ATOM     16  C   LIG    1      -22.505  81.629  13.170  0.00  0.00    +0.131 A 
ATOM     17  F   LIG    1      -22.596  81.413  11.849  0.00  0.00    -0.205 F 
ATOM     18  C   LIG    1      -23.682  81.783  13.906  0.00  0.00    +0.041 A 
ATOM     19  C   LIG    1      -23.620  81.990  15.284  0.00  0.00    +0.041 A 
ATOM     20  C   LIG    1      -22.381  82.036  15.905  0.00  0.00    +0.124 A 
ATOM     21  F   LIG    1      -22.305  82.222  17.229  0.00  0.00    -0.205 F 
ATOM     22  C   LIG    1      -21.209  81.893  15.172  0.00  0.00    +0.048 A 
ENDBRANCH  11  15
ENDBRANCH   4  10
BRANCH   1  24
ATOM     23  C   LIG    1      -21.182  87.188  15.083  0.00  0.00    +0.285 C 
ATOM     24  N   LIG    1      -19.981  87.442  14.743  0.00  0.00    -0.176 NA
BRANCH  23  28
ATOM     25  C   LIG    1      -22.349  85.045  11.629  0.00  0.00    +0.044 C 
ATOM     26  C   LIG    1      -23.079  85.688  12.796  0.00  0.00    +0.095 C 
ATOM     27  C   LIG    1      -22.654  87.129  13.113  0.00  0.00    +0.145 C 
ATOM     28  N   LIG    1      -22.331  86.717  14.453  0.00  0.00    -0.280 N 
ATOM     29  C   LIG    1      -22.477  85.319  14.157  0.00  0.00    +0.145 C 
BRANCH  26  30
ATOM     30  O   LIG    1      -24.505  85.460  12.643  0.00  0.00    -0.386 OA
ATOM     31  H   LIG    1      -24.615  85.163  11.723  0.00  0.00    +0.210 HD
ENDBRANCH  26  30
ENDBRANCH  23  28
BRANCH  23  32
ATOM     32  O   LIG    1      -21.392  87.371  16.411  0.00  0.00    -0.481 OA
ATOM     33  H   LIG    1      -20.702  87.918  16.804  0.00  0.00    +0.295 HD
ENDBRANCH  23  32
ENDBRANCH   1  24
TORSDOF 6
ENDMDL
MODEL 2
REMARK VINA RESULT:      -5.7      2.258      4.292
REMARK  Name = pdb/CHEMBL3949341.pdb
REMARK                            x       y       z     vdW  Elec       q    Type
REMARK                         _______ _______ _______ _____ _____    ______ ____
ROOT
ATOM      1  C   LIG    1      -22.944  86.276  13.327  0.00  0.00    +0.201 A 
ATOM      2  N   LIG    1      -22.821  84.912  13.091  0.00  0.00    -0.102 N 
ATOM      3  N   LIG    1      -22.525  83.946  14.017  0.00  0.00    +0.059 NA
ATOM      4  C   LIG    1      -22.806  82.722  13.660  0.00  0.00    +0.323 C 
ATOM      5  C   LIG    1      -23.306  82.391  12.282  0.00  0.00    +0.152 C 
ATOM      6  C   LIG    1      -23.462  83.374  11.389  0.00  0.00    +0.040 C 
ATOM      7  C   LIG    1      -23.221  84.705  11.782  0.00  0.00    +0.176 A 
ATOM      8  N   LIG    1      -23.358  85.832  11.121  0.00  0.00    -0.231 NA
ATOM      9  C   LIG    1      -23.152  86.805  12.064  0.00  0.00    +0.163 A 
ENDROOT
BRANCH   4  10
ATOM     10  N   LIG    1      -22.670  81.719  14.603  0.00  0.00    -0.215 N 
ATOM     11  C   LIG    1      -21.655  81.763  15.668  0.00  0.00    +0.201 C 
ATOM     12  C   LIG    1      -22.366  81.066  16.837  0.00  0.00    +0.056 C 
ATOM     13  C   LIG    1      -23.195  79.992  16.151  0.00  0.00    +0.048 C 
ATOM     14  C   LIG    1      -23.658  80.673  14.864  0.00  0.00    +0.226 C 
BRANCH  11  15
ATOM     15  C   LIG    1      -20.389  81.057  15.218  0.00  0.00    +0.033 A 
ATOM     16  C   LIG    1      -19.380  81.779  14.571  0.00  0.00    +0.131 A 
ATOM     17  F   LIG    1      -19.521  83.100  14.382  0.00  0.00    -0.205 F 
ATOM     18  C   LIG    1      -18.218  81.157  14.110  0.00  0.00    +0.041 A 
ATOM     19  C   LIG    1      -18.035  79.789  14.308  0.00  0.00    +0.041 A 
ATOM     20  C   LIG    1      -19.017  79.064  14.967  0.00  0.00    +0.124 A 
ATOM     21  F   LIG    1      -18.850  77.751  15.175  0.00  0.00    -0.205 F 
ATOM     22  C   LIG    1      -20.178  79.680  15.416  0.00  0.00    +0.048 A 
ENDBRANCH  11  15
ENDBRANCH   4  10
BRANCH   1  24
ATOM     23  C   LIG    1      -21.696  87.436  14.924  0.00  0.00    +0.285 C 
ATOM     24  N   LIG    1      -22.784  86.909  14.523  0.00  0.00    -0.176 NA
BRANCH  23  28
ATOM     25  C   LIG    1      -19.445  86.686  11.424  0.00  0.00    +0.044 C 
ATOM     26  C   LIG    1      -19.138  87.242  12.804  0.00  0.00    +0.095 C 
ATOM     27  C   LIG    1      -19.675  86.406  13.975  0.00  0.00    +0.145 C 
ATOM     28  N   LIG    1      -20.396  87.560  14.441  0.00  0.00    -0.280 N 
ATOM     29  C   LIG    1      -20.131  88.320  13.253  0.00  0.00    +0.145 C 
BRANCH  26  30
ATOM     30  O   LIG    1      -17.732  87.600  12.866  0.00  0.00    -0.386 OA
ATOM     31  H   LIG    1      -17.279  86.942  12.310  0.00  0.00    +0.210 HD
ENDBRANCH  26  30
ENDBRANCH  23  28
BRANCH  23  32
ATOM     32  O   LIG    1      -21.846  88.096  16.101  0.00  0.00    -0.481 OA
ATOM     33  H   LIG    1      -21.467  87.597  16.833  0.00  0.00    +0.295 HD
ENDBRANCH  23  32
ENDBRANCH   1  24
TORSDOF 6
ENDMDL
MODEL 3
REMARK VINA RESULT:      -5.7      2.638      3.978
REMARK  Name = pdb/CHEMBL3949341.pdb
REMARK                            x       y       z     vdW  Elec       q    Type
REMARK                         _______ _______ _______ _____ _____    ______ ____
ROOT
ATOM      1  C   LIG    1      -22.810  85.991  13.856  0.00  0.00    +0.201 A 
ATOM      2  N   LIG    1      -22.647  84.663  13.480  0.00  0.00    -0.102 N 
ATOM      3  N   LIG    1      -22.145  83.650  14.255  0.00  0.00    +0.059 NA
ATOM      4  C   LIG    1      -22.408  82.442  13.837  0.00  0.00    +0.323 C 
ATOM      5  C   LIG    1      -23.107  82.187  12.533  0.00  0.00    +0.152 C 
ATOM      6  C   LIG    1      -23.466  83.224  11.769  0.00  0.00    +0.040 C 
ATOM      7  C   LIG    1      -23.244  84.533  12.238  0.00  0.00    +0.176 A 
ATOM      8  N   LIG    1      -23.555  85.696  11.713  0.00  0.00    -0.231 NA
ATOM      9  C   LIG    1      -23.255  86.603  12.695  0.00  0.00    +0.163 A 
ENDROOT
BRANCH   4  10
ATOM     10  N   LIG    1      -22.058  81.379  14.652  0.00  0.00    -0.215 N 
ATOM     11  C   LIG    1      -21.855  80.016  14.135  0.00  0.00    +0.201 C 
ATOM     12  C   LIG    1      -20.743  79.474  15.045  0.00  0.00    +0.056 C 
ATOM     13  C   LIG    1      -21.057  80.106  16.392  0.00  0.00    +0.048 C 
ATOM     14  C   LIG    1      -21.558  81.500  16.020  0.00  0.00    +0.226 C 
BRANCH  11  15
ATOM     15  C   LIG    1      -23.147  79.224  14.217  0.00  0.00    +0.033 A 
ATOM     16  C   LIG    1      -23.310  78.073  13.437  0.00  0.00    +0.131 A 
ATOM     17  F   LIG    1      -22.310  77.656  12.646  0.00  0.00    -0.205 F 
ATOM     18  C   LIG    1      -24.499  77.340  13.458  0.00  0.00    +0.041 A 
ATOM     19  C   LIG    1      -25.549  77.739  14.283  0.00  0.00    +0.041 A 
ATOM     20  C   LIG    1      -25.393  78.865  15.078  0.00  0.00    +0.124 A 
ATOM     21  F   LIG    1      -26.389  79.255  15.885  0.00  0.00    -0.205 F 
ATOM     22  C   LIG    1      -24.216  79.602  15.050  0.00  0.00    +0.048 A 
ENDBRANCH  11  15
ENDBRANCH   4  10
BRANCH   1  24
ATOM     23  C   LIG    1      -21.389  87.109  15.333  0.00  0.00    +0.285 C 
ATOM     24  N   LIG    1      -22.494  86.537  15.064  0.00  0.00    -0.176 NA
BRANCH  23  28
ATOM     25  C   LIG    1      -19.739  86.915  11.445  0.00  0.00    +0.044 C 
ATOM     26  C   LIG    1      -19.223  87.321  12.815  0.00  0.00    +0.095 C 
ATOM     27  C   LIG    1      -19.519  86.322  13.942  0.00  0.00    +0.145 C 
ATOM     28  N   LIG    1      -20.195  87.367  14.663  0.00  0.00    -0.280 N 
ATOM     29  C   LIG    1      -20.168  88.277  13.553  0.00  0.00    +0.145 C 
BRANCH  26  30
ATOM     30  O   LIG    1      -17.843  87.753  12.690  0.00  0.00    -0.386 OA
ATOM     31  H   LIG    1      -17.732  87.976  11.748  0.00  0.00    +0.210 HD
ENDBRANCH  26  30
ENDBRANCH  23  28
BRANCH  23  32
ATOM     32  O   LIG    1      -21.381  87.659  16.574  0.00  0.00    -0.481 OA
ATOM     33  H   LIG    1      -22.009  88.387  16.639  0.00  0.00    +0.295 HD
ENDBRANCH  23  32
ENDBRANCH   1  24
TORSDOF 6
ENDMDL
MODEL 4
REMARK VINA RESULT:      -5.6     17.687     20.415
REMARK  Name = pdb/CHEMBL3949341.pdb
REMARK                            x       y       z     vdW  Elec       q    Type
REMARK                         _______ _______ _______ _____ _____    ______ ____
ROOT
ATOM      1  C   LIG    1      -30.157  70.321  18.461  0.00  0.00    +0.201 A 
ATOM      2  N   LIG    1      -30.186  68.946  18.663  0.00  0.00    -0.102 N 
ATOM      3  N   LIG    1      -31.285  68.132  18.579  0.00  0.00    +0.059 NA
ATOM      4  C   LIG    1      -31.030  66.857  18.455  0.00  0.00    +0.323 C 
ATOM      5  C   LIG    1      -29.630  66.317  18.523  0.00  0.00    +0.152 C 
ATOM      6  C   LIG    1      -28.612  67.161  18.724  0.00  0.00    +0.040 C 
ATOM      7  C   LIG    1      -28.869  68.543  18.797  0.00  0.00    +0.176 A 
ATOM      8  N   LIG    1      -28.049  69.562  18.927  0.00  0.00    -0.231 NA
ATOM      9  C   LIG    1      -28.847  70.663  18.755  0.00  0.00    +0.163 A 
ENDROOT
BRANCH   4  10
ATOM     10  N   LIG    1      -32.089  66.000  18.217  0.00  0.00    -0.215 N 
ATOM     11  C   LIG    1      -33.421  66.477  17.812  0.00  0.00    +0.201 C 
ATOM     12  C   LIG    1      -33.913  65.352  16.889  0.00  0.00    +0.056 C 
ATOM     13  C   LIG    1      -33.341  64.098  17.531  0.00  0.00    +0.048 C 
ATOM     14  C   LIG    1      -31.973  64.553  18.036  0.00  0.00    +0.226 C 
BRANCH  11  15
ATOM     15  C   LIG    1      -34.298  66.689  19.032  0.00  0.00    +0.033 A 
ATOM     16  C   LIG    1      -35.612  67.145  18.875  0.00  0.00    +0.131 A 
ATOM     17  F   LIG    1      -36.102  67.359  17.645  0.00  0.00    -0.205 F 
ATOM     18  C   LIG    1      -36.437  67.387  19.977  0.00  0.00    +0.041 A 
ATOM     19  C   LIG    1      -35.961  67.157  21.267  0.00  0.00    +0.041 A 
ATOM     20  C   LIG    1      -34.668  66.684  21.436  0.00  0.00    +0.124 A 
ATOM     21  F   LIG    1      -34.201  66.446  22.669  0.00  0.00    -0.205 F 
ATOM     22  C   LIG    1      -33.843  66.453  20.343  0.00  0.00    +0.048 A 
ENDBRANCH  11  15
ENDBRANCH   4  10
BRANCH   1  24
ATOM     23  C   LIG    1      -31.682  71.278  16.974  0.00  0.00    +0.285 C 
ATOM     24  N   LIG    1      -31.217  71.118  18.149  0.00  0.00    -0.176 NA
BRANCH  23  28
ATOM     25  C   LIG    1      -29.396  68.286  15.048  0.00  0.00    +0.044 C 
ATOM     26  C   LIG    1      -30.284  69.429  14.585  0.00  0.00    +0.095 C 
ATOM     27  C   LIG    1      -29.998  70.783  15.251  0.00  0.00    +0.145 C 
ATOM     28  N   LIG    1      -31.366  70.831  15.693  0.00  0.00    -0.280 N 
ATOM     29  C   LIG    1      -31.634  69.473  15.310  0.00  0.00    +0.145 C 
BRANCH  26  30
ATOM     30  O   LIG    1      -30.335  69.428  13.134  0.00  0.00    -0.386 OA
ATOM     31  H   LIG    1      -29.409  69.335  12.849  0.00  0.00    +0.210 HD
ENDBRANCH  26  30
ENDBRANCH  23  28
BRANCH  23  32
ATOM     32  O   LIG    1      -32.807  72.036  16.963  0.00  0.00    -0.481 OA
ATOM     33  H   LIG    1      -32.613  72.950  16.726  0.00  0.00    +0.295 HD
ENDBRANCH  23  32
ENDBRANCH   1  24
TORSDOF 6
ENDMDL
MODEL 5
REMARK VINA RESULT:      -5.6     19.545     21.798
REMARK  Name = pdb/CHEMBL3949341.pdb
REMARK                            x       y       z     vdW  Elec       q    Type
REMARK                         _______ _______ _______ _____ _____    ______ ____
ROOT
ATOM      1  C   LIG    1      -23.825  74.951  31.625  0.00  0.00    +0.201 A 
ATOM      2  N   LIG    1      -22.608  75.056  32.288  0.00  0.00    -0.102 N 
ATOM      3  N   LIG    1      -21.639  76.002  32.071  0.00  0.00    +0.059 NA
ATOM      4  C   LIG    1      -20.757  76.129  33.025  0.00  0.00    +0.323 C 
ATOM      5  C   LIG    1      -20.740  75.216  34.218  0.00  0.00    +0.152 C 
ATOM      6  C   LIG    1      -21.647  74.238  34.307  0.00  0.00    +0.040 C 
ATOM      7  C   LIG    1      -22.641  74.130  33.315  0.00  0.00    +0.176 A 
ATOM      8  N   LIG    1      -23.661  73.309  33.210  0.00  0.00    -0.231 NA
ATOM      9  C   LIG    1      -24.376  73.791  32.144  0.00  0.00    +0.163 A 
ENDROOT
BRANCH   4  10
ATOM     10  N   LIG    1      -19.843  77.164  32.936  0.00  0.00    -0.215 N 
ATOM     11  C   LIG    1      -19.052  77.626  34.088  0.00  0.00    +0.201 C 
ATOM     12  C   LIG    1      -17.727  78.048  33.435  0.00  0.00    +0.056 C 
ATOM     13  C   LIG    1      -18.164  78.624  32.098  0.00  0.00    +0.048 C 
ATOM     14  C   LIG    1      -19.325  77.720  31.687  0.00  0.00    +0.226 C 
BRANCH  11  15
ATOM     15  C   LIG    1      -19.767  78.760  34.798  0.00  0.00    +0.033 A 
ATOM     16  C   LIG    1      -19.185  79.356  35.923  0.00  0.00    +0.131 A 
ATOM     17  F   LIG    1      -17.980  78.946  36.346  0.00  0.00    -0.205 F 
ATOM     18  C   LIG    1      -19.830  80.377  36.624  0.00  0.00    +0.041 A 
ATOM     19  C   LIG    1      -21.076  80.836  36.197  0.00  0.00    +0.041 A 
ATOM     20  C   LIG    1      -21.655  80.269  35.071  0.00  0.00    +0.124 A 
ATOM     21  F   LIG    1      -22.846  80.708  34.642  0.00  0.00    -0.205 F 
ATOM     22  C   LIG    1      -21.019  79.247  34.379  0.00  0.00    +0.048 A 
ENDBRANCH  11  15
ENDBRANCH   4  10
BRANCH   1  24
ATOM     23  C   LIG    1      -24.812  76.905  30.813  0.00  0.00    +0.285 C 
ATOM     24  N   LIG    1      -24.279  75.763  30.629  0.00  0.00    -0.176 NA
BRANCH  23  28
ATOM     25  C   LIG    1      -24.084  77.189  34.969  0.00  0.00    +0.044 C 
ATOM     26  C   LIG    1      -24.909  77.974  33.963  0.00  0.00    +0.095 C 
ATOM     27  C   LIG    1      -25.805  77.122  33.053  0.00  0.00    +0.145 C 
ATOM     28  N   LIG    1      -25.152  77.697  31.907  0.00  0.00    -0.280 N 
ATOM     29  C   LIG    1      -24.129  78.329  32.692  0.00  0.00    +0.145 C 
BRANCH  26  30
ATOM     30  O   LIG    1      -25.558  79.079  34.646  0.00  0.00    -0.386 OA
ATOM     31  H   LIG    1      -26.091  78.664  35.347  0.00  0.00    +0.210 HD
ENDBRANCH  26  30
ENDBRANCH  23  28
BRANCH  23  32
ATOM     32  O   LIG    1      -25.072  77.546  29.645  0.00  0.00    -0.481 OA
ATOM     33  H   LIG    1      -25.566  76.984  29.038  0.00  0.00    +0.295 HD
ENDBRANCH  23  32
ENDBRANCH   1  24
TORSDOF 6
ENDMDL
MODEL 6
REMARK VINA RESULT:      -5.5     19.403     22.567
REMARK  Name = pdb/CHEMBL3949341.pdb
REMARK                            x       y       z     vdW  Elec       q    Type
REMARK                         _______ _______ _______ _____ _____    ______ ____
ROOT
ATOM      1  C   LIG    1      -34.553  79.823  28.072  0.00  0.00    +0.201 A 
ATOM      2  N   LIG    1      -35.775  79.169  28.181  0.00  0.00    -0.102 N 
ATOM      3  N   LIG    1      -36.349  78.349  27.244  0.00  0.00    +0.059 NA
ATOM      4  C   LIG    1      -37.303  77.575  27.687  0.00  0.00    +0.323 C 
ATOM      5  C   LIG    1      -37.813  77.669  29.097  0.00  0.00    +0.152 C 
ATOM      6  C   LIG    1      -37.284  78.576  29.925  0.00  0.00    +0.040 C 
ATOM      7  C   LIG    1      -36.213  79.374  29.478  0.00  0.00    +0.176 A 
ATOM      8  N   LIG    1      -35.496  80.277  30.107  0.00  0.00    -0.231 NA
ATOM      9  C   LIG    1      -34.490  80.584  29.228  0.00  0.00    +0.163 A 
ENDROOT
BRANCH   4  10
ATOM     10  N   LIG    1      -37.820  76.620  26.829  0.00  0.00    -0.215 N 
ATOM     11  C   LIG    1      -38.210  76.927  25.443  0.00  0.00    +0.201 C 
ATOM     12  C   LIG    1      -37.876  75.622  24.705  0.00  0.00    +0.056 C 
ATOM     13  C   LIG    1      -38.205  74.548  25.730  0.00  0.00    +0.048 C 
ATOM     14  C   LIG    1      -37.770  75.176  27.052  0.00  0.00    +0.226 C 
BRANCH  11  15
ATOM     15  C   LIG    1      -39.680  77.301  25.380  0.00  0.00    +0.033 A 
ATOM     16  C   LIG    1      -40.257  77.654  24.155  0.00  0.00    +0.131 A 
ATOM     17  F   LIG    1      -39.519  77.625  23.036  0.00  0.00    -0.205 F 
ATOM     18  C   LIG    1      -41.597  78.040  24.064  0.00  0.00    +0.041 A 
ATOM     19  C   LIG    1      -42.394  78.062  25.208  0.00  0.00    +0.041 A 
ATOM     20  C   LIG    1      -41.841  77.694  26.425  0.00  0.00    +0.124 A 
ATOM     21  F   LIG    1      -42.597  77.698  27.531  0.00  0.00    -0.205 F 
ATOM     22  C   LIG    1      -40.506  77.320  26.519  0.00  0.00    +0.048 A 
ENDBRANCH  11  15
ENDBRANCH   4  10
BRANCH   1  24
ATOM     23  C   LIG    1      -32.917  78.806  26.752  0.00  0.00    +0.285 C 
ATOM     24  N   LIG    1      -33.701  79.776  27.009  0.00  0.00    -0.176 NA
BRANCH  23  28
ATOM     25  C   LIG    1      -34.466  76.034  29.544  0.00  0.00    +0.044 C 
ATOM     26  C   LIG    1      -33.207  76.122  28.698  0.00  0.00    +0.095 C 
ATOM     27  C   LIG    1      -32.472  77.468  28.767  0.00  0.00    +0.145 C 
ATOM     28  N   LIG    1      -32.595  77.585  27.339  0.00  0.00    -0.280 N 
ATOM     29  C   LIG    1      -33.492  76.468  27.232  0.00  0.00    +0.145 C 
BRANCH  26  30
ATOM     30  O   LIG    1      -32.398  74.939  28.932  0.00  0.00    -0.386 OA
ATOM     31  H   LIG    1      -31.589  75.079  28.410  0.00  0.00    +0.210 HD
ENDBRANCH  26  30
ENDBRANCH  23  28
BRANCH  23  32
ATOM     32  O   LIG    1      -32.261  78.972  25.576  0.00  0.00    -0.481 OA
ATOM     33  H   LIG    1      -31.581  79.652  25.645  0.00  0.00    +0.295 HD
ENDBRANCH  23  32
ENDBRANCH   1  24
TORSDOF 6
ENDMDL
MODEL 7
REMARK VINA RESULT:      -5.4      2.027      3.131
REMARK  Name = pdb/CHEMBL3949341.pdb
REMARK                            x       y       z     vdW  Elec       q    Type
REMARK                         _______ _______ _______ _____ _____    ______ ____
ROOT
ATOM      1  C   LIG    1      -21.526  86.979  10.879  0.00  0.00    +0.201 A 
ATOM      2  N   LIG    1      -21.678  85.643  11.229  0.00  0.00    -0.102 N 
ATOM      3  N   LIG    1      -20.724  84.831  11.786  0.00  0.00    +0.059 NA
ATOM      4  C   LIG    1      -21.174  83.744  12.351  0.00  0.00    +0.323 C 
ATOM      5  C   LIG    1      -22.624  83.356  12.286  0.00  0.00    +0.152 C 
ATOM      6  C   LIG    1      -23.482  84.139  11.623  0.00  0.00    +0.040 C 
ATOM      7  C   LIG    1      -23.019  85.345  11.063  0.00  0.00    +0.176 A 
ATOM      8  N   LIG    1      -23.664  86.298  10.428  0.00  0.00    -0.231 NA
ATOM      9  C   LIG    1      -22.735  87.295  10.280  0.00  0.00    +0.163 A 
ENDROOT
BRANCH   4  10
ATOM     10  N   LIG    1      -20.281  82.958  13.059  0.00  0.00    -0.215 N 
ATOM     11  C   LIG    1      -20.434  81.500  13.186  0.00  0.00    +0.201 C 
ATOM     12  C   LIG    1      -18.978  81.012  13.218  0.00  0.00    +0.056 C 
ATOM     13  C   LIG    1      -18.258  82.114  13.980  0.00  0.00    +0.048 C 
ATOM     14  C   LIG    1      -18.955  83.387  13.502  0.00  0.00    +0.226 C 
BRANCH  11  15
ATOM     15  C   LIG    1      -21.217  81.159  14.440  0.00  0.00    +0.033 A 
ATOM     16  C   LIG    1      -21.695  79.857  14.632  0.00  0.00    +0.131 A 
ATOM     17  F   LIG    1      -21.427  78.908  13.723  0.00  0.00    -0.205 F 
ATOM     18  C   LIG    1      -22.450  79.515  15.756  0.00  0.00    +0.041 A 
ATOM     19  C   LIG    1      -22.729  80.477  16.726  0.00  0.00    +0.041 A 
ATOM     20  C   LIG    1      -22.244  81.766  16.560  0.00  0.00    +0.124 A 
ATOM     21  F   LIG    1      -22.493  82.697  17.490  0.00  0.00    -0.205 F 
ATOM     22  C   LIG    1      -21.501  82.110  15.438  0.00  0.00    +0.048 A 
ENDBRANCH  11  15
ENDBRANCH   4  10
BRANCH   1  24
ATOM     23  C   LIG    1      -20.002  88.250  12.109  0.00  0.00    +0.285 C 
ATOM     24  N   LIG    1      -20.398  87.731  11.016  0.00  0.00    -0.176 NA
BRANCH  23  28
ATOM     25  C   LIG    1      -22.470  86.112  14.796  0.00  0.00    +0.044 C 
ATOM     26  C   LIG    1      -21.656  87.392  14.868  0.00  0.00    +0.095 C 
ATOM     27  C   LIG    1      -21.874  88.366  13.700  0.00  0.00    +0.145 C 
ATOM     28  N   LIG    1      -20.464  88.316  13.422  0.00  0.00    -0.280 N 
ATOM     29  C   LIG    1      -20.230  87.228  14.330  0.00  0.00    +0.145 C 
BRANCH  26  30
ATOM     30  O   LIG    1      -21.778  87.954  16.201  0.00  0.00    -0.386 OA
ATOM     31  H   LIG    1      -22.477  88.628  16.127  0.00  0.00    +0.210 HD
ENDBRANCH  26  30
ENDBRANCH  23  28
BRANCH  23  32
ATOM     32  O   LIG    1      -18.793  88.853  11.986  0.00  0.00    -0.481 OA
ATOM     33  H   LIG    1      -18.093  88.322  12.382  0.00  0.00    +0.295 HD
ENDBRANCH  23  32
ENDBRANCH   1  24
TORSDOF 6
ENDMDL
MODEL 8
REMARK VINA RESULT:      -5.4     19.591     22.798
REMARK  Name = pdb/CHEMBL3949341.pdb
REMARK                            x       y       z     vdW  Elec       q    Type
REMARK                         _______ _______ _______ _____ _____    ______ ____
ROOT
ATOM      1  C   LIG    1      -34.575  79.493  28.204  0.00  0.00    +0.201 A 
ATOM      2  N   LIG    1      -35.837  78.911  28.231  0.00  0.00    -0.102 N 
ATOM      3  N   LIG    1      -36.431  78.201  27.220  0.00  0.00    +0.059 NA
ATOM      4  C   LIG    1      -37.442  77.457  27.577  0.00  0.00    +0.323 C 
ATOM      5  C   LIG    1      -37.988  77.477  28.977  0.00  0.00    +0.152 C 
ATOM      6  C   LIG    1      -37.430  78.283  29.885  0.00  0.00    +0.040 C 
ATOM      7  C   LIG    1      -36.300  79.044  29.528  0.00  0.00    +0.176 A 
ATOM      8  N   LIG    1      -35.548  79.850  30.243  0.00  0.00    -0.231 NA
ATOM      9  C   LIG    1      -34.500  80.159  29.416  0.00  0.00    +0.163 A 
ENDROOT
BRANCH   4  10
ATOM     10  N   LIG    1      -37.990  76.604  26.635  0.00  0.00    -0.215 N 
ATOM     11  C   LIG    1      -38.978  75.569  26.981  0.00  0.00    +0.201 C 
ATOM     12  C   LIG    1      -39.867  75.524  25.728  0.00  0.00    +0.056 C 
ATOM     13  C   LIG    1      -38.884  75.773  24.595  0.00  0.00    +0.048 C 
ATOM     14  C   LIG    1      -37.914  76.793  25.187  0.00  0.00    +0.226 C 
BRANCH  11  15
ATOM     15  C   LIG    1      -38.282  74.255  27.280  0.00  0.00    +0.033 A 
ATOM     16  C   LIG    1      -39.039  73.114  27.569  0.00  0.00    +0.131 A 
ATOM     17  F   LIG    1      -40.379  73.179  27.544  0.00  0.00    -0.205 F 
ATOM     18  C   LIG    1      -38.433  71.896  27.886  0.00  0.00    +0.041 A 
ATOM     19  C   LIG    1      -37.043  71.794  27.901  0.00  0.00    +0.041 A 
ATOM     20  C   LIG    1      -36.279  72.911  27.596  0.00  0.00    +0.124 A 
ATOM     21  F   LIG    1      -34.942  72.825  27.595  0.00  0.00    -0.205 F 
ATOM     22  C   LIG    1      -36.881  74.126  27.291  0.00  0.00    +0.048 A 
ENDBRANCH  11  15
ENDBRANCH   4  10
BRANCH   1  24
ATOM     23  C   LIG    1      -32.946  78.487  26.867  0.00  0.00    +0.285 C 
ATOM     24  N   LIG    1      -33.695  79.474  27.163  0.00  0.00    -0.176 NA
BRANCH  23  28
ATOM     25  C   LIG    1      -34.563  75.723  29.627  0.00  0.00    +0.044 C 
ATOM     26  C   LIG    1      -33.347  75.750  28.717  0.00  0.00    +0.095 C 
ATOM     27  C   LIG    1      -32.504  77.031  28.798  0.00  0.00    +0.145 C 
ATOM     28  N   LIG    1      -32.692  77.220  27.385  0.00  0.00    -0.280 N 
ATOM     29  C   LIG    1      -33.680  76.182  27.284  0.00  0.00    +0.145 C 
BRANCH  26  30
ATOM     30  O   LIG    1      -32.625  74.498  28.857  0.00  0.00    -0.386 OA
ATOM     31  H   LIG    1      -32.352  74.469  29.791  0.00  0.00    +0.210 HD
ENDBRANCH  26  30
ENDBRANCH  23  28
BRANCH  23  32
ATOM     32  O   LIG    1      -32.250  78.695  25.720  0.00  0.00    -0.481 OA
ATOM     33  H   LIG    1      -31.315  78.844  25.899  0.00  0.00    +0.295 HD
ENDBRANCH  23  32
ENDBRANCH   1  24
TORSDOF 6
ENDMDL
MODEL 9
REMARK VINA RESULT:      -5.3      2.408      5.334
REMARK  Name = pdb/CHEMBL3949341.pdb
REMARK                            x       y       z     vdW  Elec       q    Type
REMARK                         _______ _______ _______ _____ _____    ______ ____
ROOT
ATOM      1  C   LIG    1      -20.492  81.195  15.581  0.00  0.00    +0.201 A 
ATOM      2  N   LIG    1      -19.985  81.584  14.347  0.00  0.00    -0.102 N 
ATOM      3  N   LIG    1      -19.911  82.864  13.862  0.00  0.00    +0.059 NA
ATOM      4  C   LIG    1      -19.092  83.037  12.859  0.00  0.00    +0.323 C 
ATOM      5  C   LIG    1      -18.377  81.886  12.211  0.00  0.00    +0.152 C 
ATOM      6  C   LIG    1      -18.587  80.645  12.664  0.00  0.00    +0.040 C 
ATOM      7  C   LIG    1      -19.420  80.454  13.783  0.00  0.00    +0.176 A 
ATOM      8  N   LIG    1      -19.730  79.362  14.444  0.00  0.00    -0.231 NA
ATOM      9  C   LIG    1      -20.424  79.812  15.537  0.00  0.00    +0.163 A 
ENDROOT
BRANCH   4  10
ATOM     10  N   LIG    1      -18.860  84.328  12.420  0.00  0.00    -0.215 N 
ATOM     11  C   LIG    1      -18.944  85.497  13.312  0.00  0.00    +0.201 C 
ATOM     12  C   LIG    1      -17.865  86.430  12.742  0.00  0.00    +0.056 C 
ATOM     13  C   LIG    1      -17.943  86.180  11.245  0.00  0.00    +0.048 C 
ATOM     14  C   LIG    1      -18.227  84.682  11.151  0.00  0.00    +0.226 C 
BRANCH  11  15
ATOM     15  C   LIG    1      -20.341  86.088  13.275  0.00  0.00    +0.033 A 
ATOM     16  C   LIG    1      -20.740  86.994  14.264  0.00  0.00    +0.131 A 
ATOM     17  F   LIG    1      -19.875  87.363  15.220  0.00  0.00    -0.205 F 
ATOM     18  C   LIG    1      -22.030  87.531  14.284  0.00  0.00    +0.041 A 
ATOM     19  C   LIG    1      -22.945  87.181  13.293  0.00  0.00    +0.041 A 
ATOM     20  C   LIG    1      -22.556  86.300  12.293  0.00  0.00    +0.124 A 
ATOM     21  F   LIG    1      -23.421  85.963  11.328  0.00  0.00    -0.205 F 
ATOM     22  C   LIG    1      -21.278  85.757  12.279  0.00  0.00    +0.048 A 
ENDBRANCH  11  15
ENDBRANCH   4  10
BRANCH   1  24
ATOM     23  C   LIG    1      -22.198  82.491  16.509  0.00  0.00    +0.285 C 
ATOM     24  N   LIG    1      -21.019  82.013  16.536  0.00  0.00    -0.176 NA
BRANCH  23  28
ATOM     25  C   LIG    1      -23.216  81.122  12.641  0.00  0.00    +0.044 C 
ATOM     26  C   LIG    1      -23.953  81.844  13.756  0.00  0.00    +0.095 C 
ATOM     27  C   LIG    1      -23.214  83.056  14.342  0.00  0.00    +0.145 C 
ATOM     28  N   LIG    1      -23.287  82.446  15.643  0.00  0.00    -0.280 N 
ATOM     29  C   LIG    1      -23.755  81.190  15.129  0.00  0.00    +0.145 C 
BRANCH  26  30
ATOM     30  O   LIG    1      -25.327  82.070  13.345  0.00  0.00    -0.386 OA
ATOM     31  H   LIG    1      -25.430  83.038  13.332  0.00  0.00    +0.210 HD
ENDBRANCH  26  30
ENDBRANCH  23  28
BRANCH  23  32
ATOM     32  O   LIG    1      -22.500  83.183  17.638  0.00  0.00    -0.481 OA
ATOM     33  H   LIG    1      -21.745  83.695  17.949  0.00  0.00    +0.295 HD
ENDBRANCH  23  32
ENDBRANCH   1  24
TORSDOF 6
ENDMDL
