MODEL 1
REMARK VINA RESULT:      -6.8      0.000      0.000
REMARK  Name = pdb/CHEMBL3954486.pdb
REMARK                            x       y       z     vdW  Elec       q    Type
REMARK                         _______ _______ _______ _____ _____    ______ ____
ROOT
ATOM      1  C   LIG    1      -22.796  82.838  15.372  0.00  0.00    +0.149 A 
ATOM      2  N   LIG    1      -23.793  82.306  14.647  0.00  0.00    -0.160 NA
ATOM      3  N   LIG    1      -23.737  80.970  14.890  0.00  0.00    -0.218 N 
ATOM      4  C   LIG    1      -22.588  80.620  15.611  0.00  0.00    +0.129 A 
ATOM      5  C   LIG    1      -21.999  81.819  15.942  0.00  0.00    +0.078 A 
ENDROOT
BRANCH   3   6
ATOM      6  C   LIG    1      -24.769  80.124  14.388  0.00  0.00    +0.067 A 
ATOM      7  C   LIG    1      -25.381  79.165  15.201  0.00  0.00    +0.028 A 
ATOM      8  C   LIG    1      -26.375  78.333  14.674  0.00  0.00    +0.002 A 
ATOM      9  C   LIG    1      -26.771  78.470  13.344  0.00  0.00    +0.000 A 
ATOM     10  C   LIG    1      -26.196  79.455  12.546  0.00  0.00    +0.002 A 
ATOM     11  C   LIG    1      -25.207  80.292  13.068  0.00  0.00    +0.028 A 
ENDBRANCH   3   6
BRANCH   4  12
ATOM     12  N   LIG    1      -22.097  79.336  15.898  0.00  0.00    -0.266 N 
ATOM     13  H   LIG    1      -22.204  78.989  16.844  0.00  0.00    +0.157 HD
ATOM     14  C   LIG    1      -21.500  78.479  14.910  0.00  0.00    +0.251 C 
ATOM     15  O   LIG    1      -21.446  78.808  13.735  0.00  0.00    -0.270 OA
BRANCH  14  16
ATOM     16  C   LIG    1      -20.972  77.155  15.314  0.00  0.00    +0.056 A 
ATOM     17  C   LIG    1      -19.629  76.887  15.553  0.00  0.00    +0.054 A 
ATOM     18 CL   LIG    1      -18.397  78.086  15.549  0.00  0.00    -0.083 Cl
ATOM     19  C   LIG    1      -19.219  75.573  15.767  0.00  0.00    +0.041 A 
ATOM     20  C   LIG    1      -20.140  74.513  15.756  0.00  0.00    +0.052 A 
ATOM     21 CL   LIG    1      -19.428  72.937  15.874  0.00  0.00    -0.083 Cl
ATOM     22  C   LIG    1      -21.526  74.744  15.589  0.00  0.00    +0.022 A 
ATOM     23  C   LIG    1      -21.901  76.088  15.355  0.00  0.00    +0.026 A 
BRANCH  22  24
ATOM     24  C   LIG    1      -22.559  73.677  15.678  0.00  0.00    +0.107 A 
ATOM     25  C   LIG    1      -23.247  73.335  16.846  0.00  0.00    +0.149 A 
ATOM     26  F   LIG    1      -23.048  73.989  18.000  0.00  0.00    -0.203 F 
ATOM     27  C   LIG    1      -24.166  72.289  16.837  0.00  0.00    +0.042 A 
ATOM     28  C   LIG    1      -24.412  71.611  15.651  0.00  0.00    +0.023 A 
ATOM     29  C   LIG    1      -23.703  71.997  14.530  0.00  0.00    +0.111 A 
ATOM     30  N   LIG    1      -22.772  72.978  14.533  0.00  0.00    -0.252 NA
ENDBRANCH  22  24
ENDBRANCH  14  16
ENDBRANCH   4  12
BRANCH   1  32
ATOM     31  N   LIG    1      -22.082  84.933  14.539  0.00  0.00    -0.246 NA
ATOM     32  C   LIG    1      -22.574  84.280  15.522  0.00  0.00    +0.236 C 
BRANCH  31  36
ATOM     33  C   LIG    1      -21.299  88.546  12.567  0.00  0.00    +0.115 C 
ATOM     34  C   LIG    1      -20.181  88.020  13.461  0.00  0.00    +0.033 C 
ATOM     35  C   LIG    1      -20.446  86.578  13.887  0.00  0.00    +0.029 C 
ATOM     36  C   LIG    1      -21.838  86.368  14.509  0.00  0.00    +0.109 C 
ATOM     37  C   LIG    1      -22.951  87.020  13.676  0.00  0.00    +0.029 C 
ATOM     38  C   LIG    1      -22.636  88.463  13.296  0.00  0.00    +0.033 C 
BRANCH  33  39
ATOM     39  O   LIG    1      -21.031  89.889  12.189  0.00  0.00    -0.392 OA
ATOM     40  H   LIG    1      -20.421  89.884  11.433  0.00  0.00    +0.210 HD
ENDBRANCH  33  39
ENDBRANCH  31  36
BRANCH  32  41
ATOM     41  O   LIG    1      -22.896  84.804  16.720  0.00  0.00    -0.491 OA
ATOM     42  H   LIG    1      -22.490  85.666  16.857  0.00  0.00    +0.294 HD
ENDBRANCH  32  41
ENDBRANCH   1  32
TORSDOF 8
ENDMDL
MODEL 2
REMARK VINA RESULT:      -6.8     18.378     19.973
REMARK  Name = pdb/CHEMBL3954486.pdb
REMARK                            x       y       z     vdW  Elec       q    Type
REMARK                         _______ _______ _______ _____ _____    ______ ____
ROOT
ATOM      1  C   LIG    1      -31.262  87.125  30.551  0.00  0.00    +0.149 A 
ATOM      2  N   LIG    1      -32.290  87.914  30.203  0.00  0.00    -0.160 NA
ATOM      3  N   LIG    1      -33.283  87.065  29.830  0.00  0.00    -0.218 N 
ATOM      4  C   LIG    1      -32.831  85.741  29.749  0.00  0.00    +0.129 A 
ATOM      5  C   LIG    1      -31.544  85.776  30.236  0.00  0.00    +0.078 A 
ENDROOT
BRANCH   3   6
ATOM      6  C   LIG    1      -34.579  87.585  29.548  0.00  0.00    +0.067 A 
ATOM      7  C   LIG    1      -35.673  87.293  30.368  0.00  0.00    +0.028 A 
ATOM      8  C   LIG    1      -36.939  87.799  30.053  0.00  0.00    +0.002 A 
ATOM      9  C   LIG    1      -37.110  88.610  28.932  0.00  0.00    +0.000 A 
ATOM     10  C   LIG    1      -36.015  88.939  28.139  0.00  0.00    +0.002 A 
ATOM     11  C   LIG    1      -34.747  88.441  28.452  0.00  0.00    +0.028 A 
ENDBRANCH   3   6
BRANCH   4  12
ATOM     12  N   LIG    1      -33.505  84.621  29.236  0.00  0.00    -0.266 N 
ATOM     13  H   LIG    1      -33.352  84.380  28.264  0.00  0.00    +0.157 HD
ATOM     14  C   LIG    1      -34.357  83.779  30.031  0.00  0.00    +0.251 C 
ATOM     15  O   LIG    1      -34.489  83.964  31.232  0.00  0.00    -0.270 OA
BRANCH  14  16
ATOM     16  C   LIG    1      -35.061  82.641  29.395  0.00  0.00    +0.056 A 
ATOM     17  C   LIG    1      -36.444  82.525  29.309  0.00  0.00    +0.054 A 
ATOM     18 CL   LIG    1      -37.542  83.750  29.808  0.00  0.00    -0.083 Cl
ATOM     19  C   LIG    1      -37.004  81.340  28.838  0.00  0.00    +0.041 A 
ATOM     20  C   LIG    1      -36.198  80.263  28.437  0.00  0.00    +0.052 A 
ATOM     21 CL   LIG    1      -37.069  78.818  28.038  0.00  0.00    -0.083 Cl
ATOM     22  C   LIG    1      -34.786  80.360  28.438  0.00  0.00    +0.022 A 
ATOM     23  C   LIG    1      -34.254  81.570  28.941  0.00  0.00    +0.026 A 
BRANCH  22  24
ATOM     24  C   LIG    1      -33.884  79.296  27.922  0.00  0.00    +0.107 A 
ATOM     25  C   LIG    1      -33.618  78.093  28.582  0.00  0.00    +0.149 A 
ATOM     26  F   LIG    1      -34.204  77.782  29.748  0.00  0.00    -0.203 F 
ATOM     27  C   LIG    1      -32.722  77.177  28.036  0.00  0.00    +0.042 A 
ATOM     28  C   LIG    1      -32.121  77.459  26.818  0.00  0.00    +0.023 A 
ATOM     29  C   LIG    1      -32.425  78.662  26.212  0.00  0.00    +0.111 A 
ATOM     30  N   LIG    1      -33.255  79.583  26.752  0.00  0.00    -0.252 NA
ENDBRANCH  22  24
ENDBRANCH  14  16
ENDBRANCH   4  12
BRANCH   1  32
ATOM     31  N   LIG    1      -29.924  87.639  32.432  0.00  0.00    -0.246 NA
ATOM     32  C   LIG    1      -30.021  87.618  31.157  0.00  0.00    +0.236 C 
BRANCH  31  36
ATOM     33  C   LIG    1      -27.865  88.412  35.997  0.00  0.00    +0.115 C 
ATOM     34  C   LIG    1      -28.174  89.629  35.132  0.00  0.00    +0.033 C 
ATOM     35  C   LIG    1      -29.170  89.281  34.026  0.00  0.00    +0.029 C 
ATOM     36  C   LIG    1      -28.753  88.059  33.188  0.00  0.00    +0.109 C 
ATOM     37  C   LIG    1      -28.309  86.878  34.065  0.00  0.00    +0.029 C 
ATOM     38  C   LIG    1      -27.304  87.285  35.138  0.00  0.00    +0.033 C 
BRANCH  33  39
ATOM     39  O   LIG    1      -26.935  88.761  37.013  0.00  0.00    -0.392 OA
ATOM     40  H   LIG    1      -27.346  89.417  37.601  0.00  0.00    +0.210 HD
ENDBRANCH  33  39
ENDBRANCH  31  36
BRANCH  32  41
ATOM     41  O   LIG    1      -29.072  88.037  30.299  0.00  0.00    -0.491 OA
ATOM     42  H   LIG    1      -29.348  87.940  29.381  0.00  0.00    +0.294 HD
ENDBRANCH  32  41
ENDBRANCH   1  32
TORSDOF 8
ENDMDL
MODEL 3
REMARK VINA RESULT:      -6.8     17.858     19.224
REMARK  Name = pdb/CHEMBL3954486.pdb
REMARK                            x       y       z     vdW  Elec       q    Type
REMARK                         _______ _______ _______ _____ _____    ______ ____
ROOT
ATOM      1  C   LIG    1      -37.450  79.912  27.551  0.00  0.00    +0.149 A 
ATOM      2  N   LIG    1      -36.536  79.177  28.203  0.00  0.00    -0.160 NA
ATOM      3  N   LIG    1      -36.688  77.913  27.729  0.00  0.00    -0.218 N 
ATOM      4  C   LIG    1      -37.826  77.795  26.920  0.00  0.00    +0.129 A 
ATOM      5  C   LIG    1      -38.299  79.080  26.786  0.00  0.00    +0.078 A 
ENDROOT
BRANCH   3   6
ATOM      6  C   LIG    1      -35.754  76.905  28.108  0.00  0.00    +0.067 A 
ATOM      7  C   LIG    1      -35.835  76.270  29.350  0.00  0.00    +0.028 A 
ATOM      8  C   LIG    1      -34.889  75.301  29.703  0.00  0.00    +0.002 A 
ATOM      9  C   LIG    1      -33.876  74.952  28.811  0.00  0.00    +0.000 A 
ATOM     10  C   LIG    1      -33.821  75.550  27.556  0.00  0.00    +0.002 A 
ATOM     11  C   LIG    1      -34.765  76.515  27.195  0.00  0.00    +0.028 A 
ENDBRANCH   3   6
BRANCH   4  12
ATOM     12  N   LIG    1      -38.406  76.627  26.397  0.00  0.00    -0.266 N 
ATOM     13  H   LIG    1      -39.175  76.211  26.909  0.00  0.00    +0.157 HD
ATOM     14  C   LIG    1      -37.995  76.028  25.157  0.00  0.00    +0.251 C 
ATOM     15  O   LIG    1      -37.147  76.552  24.450  0.00  0.00    -0.270 OA
BRANCH  14  16
ATOM     16  C   LIG    1      -38.636  74.771  24.703  0.00  0.00    +0.056 A 
ATOM     17  C   LIG    1      -39.886  74.704  24.099  0.00  0.00    +0.054 A 
ATOM     18 CL   LIG    1      -40.816  76.082  23.662  0.00  0.00    -0.083 Cl
ATOM     19  C   LIG    1      -40.465  73.460  23.860  0.00  0.00    +0.041 A 
ATOM     20  C   LIG    1      -39.806  72.270  24.210  0.00  0.00    +0.052 A 
ATOM     21 CL   LIG    1      -40.747  70.832  23.991  0.00  0.00    -0.083 Cl
ATOM     22  C   LIG    1      -38.503  72.287  24.761  0.00  0.00    +0.022 A 
ATOM     23  C   LIG    1      -37.955  73.568  25.007  0.00  0.00    +0.026 A 
BRANCH  22  24
ATOM     24  C   LIG    1      -37.711  71.060  25.048  0.00  0.00    +0.107 A 
ATOM     25  C   LIG    1      -37.356  70.628  26.329  0.00  0.00    +0.149 A 
ATOM     26  F   LIG    1      -37.746  71.286  27.431  0.00  0.00    -0.203 F 
ATOM     27  C   LIG    1      -36.574  69.487  26.492  0.00  0.00    +0.042 A 
ATOM     28  C   LIG    1      -36.178  68.769  25.372  0.00  0.00    +0.023 A 
ATOM     29  C   LIG    1      -36.563  69.245  24.133  0.00  0.00    +0.111 A 
ATOM     30  N   LIG    1      -37.280  70.377  23.956  0.00  0.00    -0.252 NA
ENDBRANCH  22  24
ENDBRANCH  14  16
ENDBRANCH   4  12
BRANCH   1  32
ATOM     31  N   LIG    1      -37.334  82.074  26.601  0.00  0.00    -0.246 NA
ATOM     32  C   LIG    1      -37.547  81.372  27.649  0.00  0.00    +0.236 C 
BRANCH  31  36
ATOM     33  C   LIG    1      -36.313  85.791  24.962  0.00  0.00    +0.115 C 
ATOM     34  C   LIG    1      -35.866  85.554  26.400  0.00  0.00    +0.033 C 
ATOM     35  C   LIG    1      -36.022  84.086  26.792  0.00  0.00    +0.029 C 
ATOM     36  C   LIG    1      -37.429  83.524  26.517  0.00  0.00    +0.109 C 
ATOM     37  C   LIG    1      -37.934  83.885  25.112  0.00  0.00    +0.029 C 
ATOM     38  C   LIG    1      -37.765  85.365  24.786  0.00  0.00    +0.033 C 
BRANCH  33  39
ATOM     39  O   LIG    1      -36.162  87.163  24.624  0.00  0.00    -0.392 OA
ATOM     40  H   LIG    1      -36.252  87.695  25.433  0.00  0.00    +0.210 HD
ENDBRANCH  33  39
ENDBRANCH  31  36
BRANCH  32  41
ATOM     41  O   LIG    1      -37.837  81.863  28.868  0.00  0.00    -0.491 OA
ATOM     42  H   LIG    1      -37.463  81.324  29.572  0.00  0.00    +0.294 HD
ENDBRANCH  32  41
ENDBRANCH   1  32
TORSDOF 8
ENDMDL
MODEL 4
REMARK VINA RESULT:      -6.8     18.420     21.174
REMARK  Name = pdb/CHEMBL3954486.pdb
REMARK                            x       y       z     vdW  Elec       q    Type
REMARK                         _______ _______ _______ _____ _____    ______ ____
ROOT
ATOM      1  C   LIG    1      -38.474  71.459  24.236  0.00  0.00    +0.149 A 
ATOM      2  N   LIG    1      -39.580  72.172  23.977  0.00  0.00    -0.160 NA
ATOM      3  N   LIG    1      -39.263  73.454  24.299  0.00  0.00    -0.218 N 
ATOM      4  C   LIG    1      -38.024  73.535  24.948  0.00  0.00    +0.129 A 
ATOM      5  C   LIG    1      -37.507  72.262  24.884  0.00  0.00    +0.078 A 
ENDROOT
BRANCH   3   6
ATOM      6  C   LIG    1      -40.180  74.500  23.991  0.00  0.00    +0.067 A 
ATOM      7  C   LIG    1      -39.803  75.844  24.072  0.00  0.00    +0.028 A 
ATOM      8  C   LIG    1      -40.732  76.850  23.785  0.00  0.00    +0.002 A 
ATOM      9  C   LIG    1      -42.029  76.517  23.400  0.00  0.00    +0.000 A 
ATOM     10  C   LIG    1      -42.394  75.180  23.274  0.00  0.00    +0.002 A 
ATOM     11  C   LIG    1      -41.470  74.171  23.554  0.00  0.00    +0.028 A 
ENDBRANCH   3   6
BRANCH   4  12
ATOM     12  N   LIG    1      -37.443  74.647  25.579  0.00  0.00    -0.266 N 
ATOM     13  H   LIG    1      -36.892  75.279  25.010  0.00  0.00    +0.157 HD
ATOM     14  C   LIG    1      -37.631  74.955  26.970  0.00  0.00    +0.251 C 
ATOM     15  O   LIG    1      -38.373  74.285  27.672  0.00  0.00    -0.270 OA
BRANCH  14  16
ATOM     16  C   LIG    1      -36.944  76.128  27.560  0.00  0.00    +0.056 A 
ATOM     17  C   LIG    1      -37.417  77.432  27.483  0.00  0.00    +0.054 A 
ATOM     18 CL   LIG    1      -38.939  77.863  26.810  0.00  0.00    -0.083 Cl
ATOM     19  C   LIG    1      -36.613  78.480  27.929  0.00  0.00    +0.041 A 
ATOM     20  C   LIG    1      -35.338  78.241  28.465  0.00  0.00    +0.052 A 
ATOM     21 CL   LIG    1      -34.421  79.671  28.811  0.00  0.00    -0.083 Cl
ATOM     22  C   LIG    1      -34.844  76.926  28.630  0.00  0.00    +0.022 A 
ATOM     23  C   LIG    1      -35.678  75.890  28.148  0.00  0.00    +0.026 A 
BRANCH  22  24
ATOM     24  C   LIG    1      -33.550  76.606  29.291  0.00  0.00    +0.107 A 
ATOM     25  C   LIG    1      -32.307  76.618  28.650  0.00  0.00    +0.149 A 
ATOM     26  F   LIG    1      -32.181  76.966  27.361  0.00  0.00    -0.203 F 
ATOM     27  C   LIG    1      -31.156  76.260  29.347  0.00  0.00    +0.042 A 
ATOM     28  C   LIG    1      -31.252  75.921  30.689  0.00  0.00    +0.023 A 
ATOM     29  C   LIG    1      -32.507  75.930  31.267  0.00  0.00    +0.111 A 
ATOM     30  N   LIG    1      -33.640  76.228  30.593  0.00  0.00    -0.252 NA
ENDBRANCH  22  24
ENDBRANCH  14  16
ENDBRANCH   4  12
BRANCH   1  32
ATOM     31  N   LIG    1      -37.177  69.624  23.497  0.00  0.00    -0.246 NA
ATOM     32  C   LIG    1      -38.318  70.040  23.900  0.00  0.00    +0.236 C 
BRANCH  31  36
ATOM     33  C   LIG    1      -34.702  66.680  21.838  0.00  0.00    +0.115 C 
ATOM     34  C   LIG    1      -36.039  66.895  21.138  0.00  0.00    +0.033 C 
ATOM     35  C   LIG    1      -36.721  68.170  21.630  0.00  0.00    +0.029 C 
ATOM     36  C   LIG    1      -36.845  68.247  23.163  0.00  0.00    +0.109 C 
ATOM     37  C   LIG    1      -35.528  67.893  23.870  0.00  0.00    +0.029 C 
ATOM     38  C   LIG    1      -34.905  66.603  23.347  0.00  0.00    +0.033 C 
BRANCH  33  39
ATOM     39  O   LIG    1      -34.091  65.487  21.366  0.00  0.00    -0.392 OA
ATOM     40  H   LIG    1      -33.601  65.077  22.098  0.00  0.00    +0.210 HD
ENDBRANCH  33  39
ENDBRANCH  31  36
BRANCH  32  41
ATOM     41  O   LIG    1      -39.422  69.280  24.026  0.00  0.00    -0.491 OA
ATOM     42  H   LIG    1      -40.220  69.813  24.097  0.00  0.00    +0.294 HD
ENDBRANCH  32  41
ENDBRANCH   1  32
TORSDOF 8
ENDMDL
MODEL 5
REMARK VINA RESULT:      -6.5      4.007      6.805
REMARK  Name = pdb/CHEMBL3954486.pdb
REMARK                            x       y       z     vdW  Elec       q    Type
REMARK                         _______ _______ _______ _____ _____    ______ ____
ROOT
ATOM      1  C   LIG    1      -22.922  82.084  14.985  0.00  0.00    +0.149 A 
ATOM      2  N   LIG    1      -22.227  81.014  15.402  0.00  0.00    -0.160 NA
ATOM      3  N   LIG    1      -22.748  79.961  14.719  0.00  0.00    -0.218 N 
ATOM      4  C   LIG    1      -23.905  80.320  14.013  0.00  0.00    +0.129 A 
ATOM      5  C   LIG    1      -24.001  81.685  14.163  0.00  0.00    +0.078 A 
ENDROOT
BRANCH   3   6
ATOM      6  C   LIG    1      -22.122  78.685  14.816  0.00  0.00    +0.067 A 
ATOM      7  C   LIG    1      -20.766  78.516  14.520  0.00  0.00    +0.028 A 
ATOM      8  C   LIG    1      -20.185  77.247  14.602  0.00  0.00    +0.002 A 
ATOM      9  C   LIG    1      -20.949  76.150  14.998  0.00  0.00    +0.000 A 
ATOM     10  C   LIG    1      -22.287  76.323  15.337  0.00  0.00    +0.002 A 
ATOM     11  C   LIG    1      -22.873  77.590  15.262  0.00  0.00    +0.028 A 
ENDBRANCH   3   6
BRANCH   4  12
ATOM     12  N   LIG    1      -24.810  79.483  13.341  0.00  0.00    -0.266 N 
ATOM     13  H   LIG    1      -24.642  79.297  12.359  0.00  0.00    +0.157 HD
ATOM     14  C   LIG    1      -25.925  78.845  13.986  0.00  0.00    +0.251 C 
ATOM     15  O   LIG    1      -26.107  78.952  15.189  0.00  0.00    -0.270 OA
BRANCH  14  16
ATOM     16  C   LIG    1      -26.853  78.011  13.187  0.00  0.00    +0.056 A 
ATOM     17  C   LIG    1      -26.694  76.646  12.975  0.00  0.00    +0.054 A 
ATOM     18 CL   LIG    1      -25.471  75.696  13.721  0.00  0.00    -0.083 Cl
ATOM     19  C   LIG    1      -27.531  75.990  12.075  0.00  0.00    +0.041 A 
ATOM     20  C   LIG    1      -28.541  76.680  11.385  0.00  0.00    +0.052 A 
ATOM     21 CL   LIG    1      -29.371  75.739  10.190  0.00  0.00    -0.083 Cl
ATOM     22  C   LIG    1      -28.788  78.053  11.622  0.00  0.00    +0.022 A 
ATOM     23  C   LIG    1      -27.906  78.689  12.527  0.00  0.00    +0.026 A 
BRANCH  22  24
ATOM     24  C   LIG    1      -29.911  78.809  11.006  0.00  0.00    +0.107 A 
ATOM     25  C   LIG    1      -29.930  79.265   9.685  0.00  0.00    +0.149 A 
ATOM     26  F   LIG    1      -28.921  79.014   8.836  0.00  0.00    -0.203 F 
ATOM     27  C   LIG    1      -31.012  80.004   9.213  0.00  0.00    +0.042 A 
ATOM     28  C   LIG    1      -32.083  80.256  10.060  0.00  0.00    +0.023 A 
ATOM     29  C   LIG    1      -32.007  79.777  11.353  0.00  0.00    +0.111 A 
ATOM     30  N   LIG    1      -30.943  79.100  11.841  0.00  0.00    -0.252 NA
ENDBRANCH  22  24
ENDBRANCH  14  16
ENDBRANCH   4  12
BRANCH   1  32
ATOM     31  N   LIG    1      -22.299  84.298  14.435  0.00  0.00    -0.246 NA
ATOM     32  C   LIG    1      -22.599  83.465  15.358  0.00  0.00    +0.236 C 
BRANCH  31  36
ATOM     33  C   LIG    1      -21.159  88.092  13.073  0.00  0.00    +0.115 C 
ATOM     34  C   LIG    1      -20.166  87.390  13.993  0.00  0.00    +0.033 C 
ATOM     35  C   LIG    1      -20.535  85.921  14.186  0.00  0.00    +0.029 C 
ATOM     36  C   LIG    1      -21.994  85.708  14.630  0.00  0.00    +0.109 C 
ATOM     37  C   LIG    1      -22.983  86.527  13.786  0.00  0.00    +0.029 C 
ATOM     38  C   LIG    1      -22.568  87.988  13.644  0.00  0.00    +0.033 C 
BRANCH  33  39
ATOM     39  O   LIG    1      -20.796  89.457  12.914  0.00  0.00    -0.392 OA
ATOM     40  H   LIG    1      -20.585  89.827  13.787  0.00  0.00    +0.210 HD
ENDBRANCH  33  39
ENDBRANCH  31  36
BRANCH  32  41
ATOM     41  O   LIG    1      -22.625  83.741  16.675  0.00  0.00    -0.491 OA
ATOM     42  H   LIG    1      -21.886  83.338  17.143  0.00  0.00    +0.294 HD
ENDBRANCH  32  41
ENDBRANCH   1  32
TORSDOF 8
ENDMDL
MODEL 6
REMARK VINA RESULT:      -6.5     18.586     20.201
REMARK  Name = pdb/CHEMBL3954486.pdb
REMARK                            x       y       z     vdW  Elec       q    Type
REMARK                         _______ _______ _______ _____ _____    ______ ____
ROOT
ATOM      1  C   LIG    1      -36.105  71.595  26.822  0.00  0.00    +0.149 A 
ATOM      2  N   LIG    1      -37.083  72.440  26.461  0.00  0.00    -0.160 NA
ATOM      3  N   LIG    1      -37.573  71.944  25.295  0.00  0.00    -0.218 N 
ATOM      4  C   LIG    1      -36.783  70.896  24.803  0.00  0.00    +0.129 A 
ATOM      5  C   LIG    1      -35.859  70.656  25.794  0.00  0.00    +0.078 A 
ENDROOT
BRANCH   3   6
ATOM      6  C   LIG    1      -38.739  72.528  24.720  0.00  0.00    +0.067 A 
ATOM      7  C   LIG    1      -38.908  73.915  24.671  0.00  0.00    +0.028 A 
ATOM      8  C   LIG    1      -40.075  74.458  24.121  0.00  0.00    +0.002 A 
ATOM      9  C   LIG    1      -41.062  73.621  23.605  0.00  0.00    +0.000 A 
ATOM     10  C   LIG    1      -40.876  72.242  23.612  0.00  0.00    +0.002 A 
ATOM     11  C   LIG    1      -39.711  71.693  24.154  0.00  0.00    +0.028 A 
ENDBRANCH   3   6
BRANCH   4  12
ATOM     12  N   LIG    1      -36.864  70.255  23.557  0.00  0.00    -0.266 N 
ATOM     13  H   LIG    1      -36.505  70.748  22.747  0.00  0.00    +0.157 HD
ATOM     14  C   LIG    1      -37.384  68.926  23.383  0.00  0.00    +0.251 C 
ATOM     15  O   LIG    1      -37.728  68.251  24.341  0.00  0.00    -0.270 OA
BRANCH  14  16
ATOM     16  C   LIG    1      -37.469  68.345  22.023  0.00  0.00    +0.056 A 
ATOM     17  C   LIG    1      -38.572  68.471  21.186  0.00  0.00    +0.054 A 
ATOM     18 CL   LIG    1      -39.948  69.434  21.551  0.00  0.00    -0.083 Cl
ATOM     19  C   LIG    1      -38.614  67.750  19.994  0.00  0.00    +0.041 A 
ATOM     20  C   LIG    1      -37.557  66.906  19.617  0.00  0.00    +0.052 A 
ATOM     21 CL   LIG    1      -37.856  65.968  18.191  0.00  0.00    -0.083 Cl
ATOM     22  C   LIG    1      -36.383  66.802  20.400  0.00  0.00    +0.022 A 
ATOM     23  C   LIG    1      -36.385  67.533  21.611  0.00  0.00    +0.026 A 
BRANCH  22  24
ATOM     24  C   LIG    1      -35.188  66.013  19.997  0.00  0.00    +0.107 A 
ATOM     25  C   LIG    1      -35.093  64.621  20.078  0.00  0.00    +0.149 A 
ATOM     26  F   LIG    1      -36.118  63.866  20.502  0.00  0.00    -0.203 F 
ATOM     27  C   LIG    1      -33.913  63.976  19.717  0.00  0.00    +0.042 A 
ATOM     28  C   LIG    1      -32.844  64.728  19.248  0.00  0.00    +0.023 A 
ATOM     29  C   LIG    1      -32.999  66.100  19.189  0.00  0.00    +0.111 A 
ATOM     30  N   LIG    1      -34.121  66.744  19.582  0.00  0.00    -0.252 NA
ENDBRANCH  22  24
ENDBRANCH  14  16
ENDBRANCH   4  12
BRANCH   1  32
ATOM     31  N   LIG    1      -34.120  71.795  28.092  0.00  0.00    -0.246 NA
ATOM     32  C   LIG    1      -35.393  71.667  28.101  0.00  0.00    +0.236 C 
BRANCH  31  36
ATOM     33  C   LIG    1      -30.397  72.083  29.991  0.00  0.00    +0.115 C 
ATOM     34  C   LIG    1      -31.187  70.808  30.267  0.00  0.00    +0.033 C 
ATOM     35  C   LIG    1      -32.369  70.672  29.309  0.00  0.00    +0.029 C 
ATOM     36  C   LIG    1      -33.270  71.920  29.267  0.00  0.00    +0.109 C 
ATOM     37  C   LIG    1      -32.460  73.217  29.128  0.00  0.00    +0.029 C 
ATOM     38  C   LIG    1      -31.305  73.301  30.120  0.00  0.00    +0.033 C 
BRANCH  33  39
ATOM     39  O   LIG    1      -29.308  72.187  30.897  0.00  0.00    -0.392 OA
ATOM     40  H   LIG    1      -28.893  71.313  30.987  0.00  0.00    +0.210 HD
ENDBRANCH  33  39
ENDBRANCH  31  36
BRANCH  32  41
ATOM     41  O   LIG    1      -36.155  71.568  29.206  0.00  0.00    -0.491 OA
ATOM     42  H   LIG    1      -36.567  70.701  29.283  0.00  0.00    +0.294 HD
ENDBRANCH  32  41
ENDBRANCH   1  32
TORSDOF 8
ENDMDL
MODEL 7
REMARK VINA RESULT:      -6.4     17.557     20.915
REMARK  Name = pdb/CHEMBL3954486.pdb
REMARK                            x       y       z     vdW  Elec       q    Type
REMARK                         _______ _______ _______ _____ _____    ______ ____
ROOT
ATOM      1  C   LIG    1      -37.136  69.897  24.567  0.00  0.00    +0.149 A 
ATOM      2  N   LIG    1      -38.105  70.763  24.233  0.00  0.00    -0.160 NA
ATOM      3  N   LIG    1      -37.832  71.894  24.934  0.00  0.00    -0.218 N 
ATOM      4  C   LIG    1      -36.804  71.692  25.866  0.00  0.00    +0.129 A 
ATOM      5  C   LIG    1      -36.341  70.421  25.612  0.00  0.00    +0.078 A 
ENDROOT
BRANCH   3   6
ATOM      6  C   LIG    1      -38.592  73.073  24.685  0.00  0.00    +0.067 A 
ATOM      7  C   LIG    1      -38.076  74.343  24.964  0.00  0.00    +0.028 A 
ATOM      8  C   LIG    1      -38.854  75.481  24.730  0.00  0.00    +0.002 A 
ATOM      9  C   LIG    1      -40.138  75.356  24.201  0.00  0.00    +0.000 A 
ATOM     10  C   LIG    1      -40.637  74.097  23.881  0.00  0.00    +0.002 A 
ATOM     11  C   LIG    1      -39.862  72.956  24.107  0.00  0.00    +0.028 A 
ENDBRANCH   3   6
BRANCH   4  12
ATOM     12  N   LIG    1      -36.364  72.560  26.879  0.00  0.00    -0.266 N 
ATOM     13  H   LIG    1      -36.979  73.317  27.153  0.00  0.00    +0.157 HD
ATOM     14  C   LIG    1      -35.116  72.397  27.572  0.00  0.00    +0.251 C 
ATOM     15  O   LIG    1      -34.390  71.439  27.353  0.00  0.00    -0.270 OA
BRANCH  14  16
ATOM     16  C   LIG    1      -34.714  73.387  28.599  0.00  0.00    +0.056 A 
ATOM     17  C   LIG    1      -34.653  73.120  29.962  0.00  0.00    +0.054 A 
ATOM     18 CL   LIG    1      -34.901  71.562  30.646  0.00  0.00    -0.083 Cl
ATOM     19  C   LIG    1      -34.423  74.164  30.855  0.00  0.00    +0.041 A 
ATOM     20  C   LIG    1      -34.241  75.481  30.404  0.00  0.00    +0.052 A 
ATOM     21 CL   LIG    1      -34.133  76.667  31.663  0.00  0.00    -0.083 Cl
ATOM     22  C   LIG    1      -34.223  75.789  29.023  0.00  0.00    +0.022 A 
ATOM     23  C   LIG    1      -34.479  74.708  28.148  0.00  0.00    +0.026 A 
BRANCH  22  24
ATOM     24  C   LIG    1      -33.926  77.143  28.483  0.00  0.00    +0.107 A 
ATOM     25  C   LIG    1      -32.669  77.559  28.032  0.00  0.00    +0.149 A 
ATOM     26  F   LIG    1      -31.614  76.731  28.018  0.00  0.00    -0.203 F 
ATOM     27  C   LIG    1      -32.482  78.864  27.584  0.00  0.00    +0.042 A 
ATOM     28  C   LIG    1      -33.561  79.736  27.561  0.00  0.00    +0.023 A 
ATOM     29  C   LIG    1      -34.778  79.266  28.016  0.00  0.00    +0.111 A 
ATOM     30  N   LIG    1      -34.965  78.017  28.500  0.00  0.00    -0.252 NA
ENDBRANCH  22  24
ENDBRANCH  14  16
ENDBRANCH   4  12
BRANCH   1  32
ATOM     31  N   LIG    1      -36.359  68.527  22.802  0.00  0.00    -0.246 NA
ATOM     32  C   LIG    1      -36.956  68.587  23.932  0.00  0.00    +0.236 C 
BRANCH  31  36
ATOM     33  C   LIG    1      -34.442  66.384  19.756  0.00  0.00    +0.115 C 
ATOM     34  C   LIG    1      -35.955  66.513  19.626  0.00  0.00    +0.033 C 
ATOM     35  C   LIG    1      -36.508  67.546  20.606  0.00  0.00    +0.029 C 
ATOM     36  C   LIG    1      -36.065  67.309  22.061  0.00  0.00    +0.109 C 
ATOM     37  C   LIG    1      -34.557  67.040  22.173  0.00  0.00    +0.029 C 
ATOM     38  C   LIG    1      -34.070  65.989  21.181  0.00  0.00    +0.033 C 
BRANCH  33  39
ATOM     39  O   LIG    1      -33.955  65.415  18.838  0.00  0.00    -0.392 OA
ATOM     40  H   LIG    1      -34.638  64.735  18.710  0.00  0.00    +0.210 HD
ENDBRANCH  33  39
ENDBRANCH  31  36
BRANCH  32  41
ATOM     41  O   LIG    1      -37.465  67.534  24.599  0.00  0.00    -0.491 OA
ATOM     42  H   LIG    1      -38.150  67.799  25.221  0.00  0.00    +0.294 HD
ENDBRANCH  32  41
ENDBRANCH   1  32
TORSDOF 8
ENDMDL
MODEL 8
REMARK VINA RESULT:      -6.4     17.381     21.411
REMARK  Name = pdb/CHEMBL3954486.pdb
REMARK                            x       y       z     vdW  Elec       q    Type
REMARK                         _______ _______ _______ _____ _____    ______ ____
ROOT
ATOM      1  C   LIG    1      -37.447  70.099  24.681  0.00  0.00    +0.149 A 
ATOM      2  N   LIG    1      -36.901  69.047  25.311  0.00  0.00    -0.160 NA
ATOM      3  N   LIG    1      -35.971  69.575  26.149  0.00  0.00    -0.218 N 
ATOM      4  C   LIG    1      -35.780  70.944  25.917  0.00  0.00    +0.129 A 
ATOM      5  C   LIG    1      -36.743  71.284  24.995  0.00  0.00    +0.078 A 
ENDROOT
BRANCH   3   6
ATOM      6  C   LIG    1      -35.311  68.728  27.086  0.00  0.00    +0.067 A 
ATOM      7  C   LIG    1      -34.450  67.710  26.665  0.00  0.00    +0.028 A 
ATOM      8  C   LIG    1      -33.835  66.880  27.608  0.00  0.00    +0.002 A 
ATOM      9  C   LIG    1      -34.062  67.076  28.970  0.00  0.00    +0.000 A 
ATOM     10  C   LIG    1      -34.883  68.117  29.393  0.00  0.00    +0.002 A 
ATOM     11  C   LIG    1      -35.496  68.953  28.456  0.00  0.00    +0.028 A 
ENDBRANCH   3   6
BRANCH   4  12
ATOM     12  N   LIG    1      -34.795  71.789  26.453  0.00  0.00    -0.266 N 
ATOM     13  H   LIG    1      -33.924  71.883  25.944  0.00  0.00    +0.157 HD
ATOM     14  C   LIG    1      -34.980  72.557  27.654  0.00  0.00    +0.251 C 
ATOM     15  O   LIG    1      -36.049  72.561  28.244  0.00  0.00    -0.270 OA
BRANCH  14  16
ATOM     16  C   LIG    1      -33.869  73.391  28.168  0.00  0.00    +0.056 A 
ATOM     17  C   LIG    1      -32.826  72.910  28.952  0.00  0.00    +0.054 A 
ATOM     18 CL   LIG    1      -32.597  71.248  29.327  0.00  0.00    -0.083 Cl
ATOM     19  C   LIG    1      -31.923  73.807  29.517  0.00  0.00    +0.041 A 
ATOM     20  C   LIG    1      -32.040  75.189  29.303  0.00  0.00    +0.052 A 
ATOM     21 CL   LIG    1      -30.931  76.158  30.217  0.00  0.00    -0.083 Cl
ATOM     22  C   LIG    1      -33.041  75.720  28.455  0.00  0.00    +0.022 A 
ATOM     23  C   LIG    1      -33.950  74.781  27.914  0.00  0.00    +0.026 A 
BRANCH  22  24
ATOM     24  C   LIG    1      -33.145  77.162  28.102  0.00  0.00    +0.107 A 
ATOM     25  C   LIG    1      -32.435  77.779  27.069  0.00  0.00    +0.149 A 
ATOM     26  F   LIG    1      -31.608  77.089  26.269  0.00  0.00    -0.203 F 
ATOM     27  C   LIG    1      -32.569  79.147  26.845  0.00  0.00    +0.042 A 
ATOM     28  C   LIG    1      -33.438  79.883  27.639  0.00  0.00    +0.023 A 
ATOM     29  C   LIG    1      -34.114  79.216  28.643  0.00  0.00    +0.111 A 
ATOM     30  N   LIG    1      -33.958  77.899  28.904  0.00  0.00    -0.252 NA
ENDBRANCH  22  24
ENDBRANCH  14  16
ENDBRANCH   4  12
BRANCH   1  32
ATOM     31  N   LIG    1      -39.669  70.644  24.083  0.00  0.00    -0.246 NA
ATOM     32  C   LIG    1      -38.602  70.004  23.783  0.00  0.00    +0.236 C 
BRANCH  31  36
ATOM     33  C   LIG    1      -43.684  71.658  23.452  0.00  0.00    +0.115 C 
ATOM     34  C   LIG    1      -43.382  70.166  23.542  0.00  0.00    +0.033 C 
ATOM     35  C   LIG    1      -41.968  69.920  24.062  0.00  0.00    +0.029 C 
ATOM     36  C   LIG    1      -40.885  70.689  23.283  0.00  0.00    +0.109 C 
ATOM     37  C   LIG    1      -41.258  72.164  23.073  0.00  0.00    +0.029 C 
ATOM     38  C   LIG    1      -42.675  72.344  22.538  0.00  0.00    +0.033 C 
BRANCH  33  39
ATOM     39  O   LIG    1      -45.003  71.860  22.962  0.00  0.00    -0.392 OA
ATOM     40  H   LIG    1      -45.221  72.804  23.034  0.00  0.00    +0.210 HD
ENDBRANCH  33  39
ENDBRANCH  31  36
BRANCH  32  41
ATOM     41  O   LIG    1      -38.446  69.216  22.703  0.00  0.00    -0.491 OA
ATOM     42  H   LIG    1      -37.736  69.526  22.131  0.00  0.00    +0.294 HD
ENDBRANCH  32  41
ENDBRANCH   1  32
TORSDOF 8
ENDMDL
MODEL 9
REMARK VINA RESULT:      -6.4     16.624     19.626
REMARK  Name = pdb/CHEMBL3954486.pdb
REMARK                            x       y       z     vdW  Elec       q    Type
REMARK                         _______ _______ _______ _____ _____    ______ ____
ROOT
ATOM      1  C   LIG    1      -28.304  76.007  31.777  0.00  0.00    +0.149 A 
ATOM      2  N   LIG    1      -28.704  74.808  32.230  0.00  0.00    -0.160 NA
ATOM      3  N   LIG    1      -29.964  74.646  31.749  0.00  0.00    -0.218 N 
ATOM      4  C   LIG    1      -30.448  75.818  31.154  0.00  0.00    +0.129 A 
ATOM      5  C   LIG    1      -29.377  76.681  31.149  0.00  0.00    +0.078 A 
ENDROOT
BRANCH   3   6
ATOM      6  C   LIG    1      -30.623  73.394  31.921  0.00  0.00    +0.067 A 
ATOM      7  C   LIG    1      -31.043  72.961  33.182  0.00  0.00    +0.028 A 
ATOM      8  C   LIG    1      -31.667  71.717  33.323  0.00  0.00    +0.002 A 
ATOM      9  C   LIG    1      -31.889  70.914  32.205  0.00  0.00    +0.000 A 
ATOM     10  C   LIG    1      -31.513  71.362  30.943  0.00  0.00    +0.002 A 
ATOM     11  C   LIG    1      -30.894  72.606  30.795  0.00  0.00    +0.028 A 
ENDBRANCH   3   6
BRANCH   4  12
ATOM     12  N   LIG    1      -31.750  76.093  30.705  0.00  0.00    -0.266 N 
ATOM     13  H   LIG    1      -32.488  76.146  31.398  0.00  0.00    +0.157 HD
ATOM     14  C   LIG    1      -32.075  76.348  29.328  0.00  0.00    +0.251 C 
ATOM     15  O   LIG    1      -31.205  76.402  28.472  0.00  0.00    -0.270 OA
BRANCH  14  16
ATOM     16  C   LIG    1      -33.484  76.589  28.940  0.00  0.00    +0.056 A 
ATOM     17  C   LIG    1      -34.328  75.617  28.415  0.00  0.00    +0.054 A 
ATOM     18 CL   LIG    1      -33.904  73.958  28.264  0.00  0.00    -0.083 Cl
ATOM     19  C   LIG    1      -35.582  75.987  27.933  0.00  0.00    +0.041 A 
ATOM     20  C   LIG    1      -36.014  77.322  27.977  0.00  0.00    +0.052 A 
ATOM     21 CL   LIG    1      -37.526  77.618  27.183  0.00  0.00    -0.083 Cl
ATOM     22  C   LIG    1      -35.220  78.333  28.567  0.00  0.00    +0.022 A 
ATOM     23  C   LIG    1      -33.947  77.924  29.028  0.00  0.00    +0.026 A 
BRANCH  22  24
ATOM     24  C   LIG    1      -35.669  79.740  28.742  0.00  0.00    +0.107 A 
ATOM     25  C   LIG    1      -35.165  80.829  28.024  0.00  0.00    +0.149 A 
ATOM     26  F   LIG    1      -34.237  80.676  27.068  0.00  0.00    -0.203 F 
ATOM     27  C   LIG    1      -35.621  82.117  28.292  0.00  0.00    +0.042 A 
ATOM     28  C   LIG    1      -36.601  82.304  29.257  0.00  0.00    +0.023 A 
ATOM     29  C   LIG    1      -37.061  81.189  29.931  0.00  0.00    +0.111 A 
ATOM     30  N   LIG    1      -36.594  79.938  29.717  0.00  0.00    -0.252 NA
ENDBRANCH  22  24
ENDBRANCH  14  16
ENDBRANCH   4  12
BRANCH   1  32
ATOM     31  N   LIG    1      -26.005  76.033  31.226  0.00  0.00    -0.246 NA
ATOM     32  C   LIG    1      -26.944  76.530  31.939  0.00  0.00    +0.236 C 
BRANCH  31  36
ATOM     33  C   LIG    1      -22.246  76.543  29.449  0.00  0.00    +0.115 C 
ATOM     34  C   LIG    1      -22.307  75.543  30.598  0.00  0.00    +0.033 C 
ATOM     35  C   LIG    1      -23.752  75.216  30.970  0.00  0.00    +0.029 C 
ATOM     36  C   LIG    1      -24.614  76.464  31.234  0.00  0.00    +0.109 C 
ATOM     37  C   LIG    1      -24.443  77.531  30.142  0.00  0.00    +0.029 C 
ATOM     38  C   LIG    1      -22.980  77.824  29.828  0.00  0.00    +0.033 C 
BRANCH  33  39
ATOM     39  O   LIG    1      -20.892  76.833  29.126  0.00  0.00    -0.392 OA
ATOM     40  H   LIG    1      -20.695  77.744  29.400  0.00  0.00    +0.210 HD
ENDBRANCH  33  39
ENDBRANCH  31  36
BRANCH  32  41
ATOM     41  O   LIG    1      -26.791  77.499  32.861  0.00  0.00    -0.491 OA
ATOM     42  H   LIG    1      -26.193  77.233  33.567  0.00  0.00    +0.294 HD
ENDBRANCH  32  41
ENDBRANCH   1  32
TORSDOF 8
ENDMDL
