MODEL 1
REMARK VINA RESULT:      -6.4      0.000      0.000
REMARK  Name = pdb/CHEMBL3921687.pdb
REMARK                            x       y       z     vdW  Elec       q    Type
REMARK                         _______ _______ _______ _____ _____    ______ ____
ROOT
ATOM      1  C   LIG    1      -30.726  74.775  30.975  0.00  0.00    +0.197 C 
ATOM      2  O   LIG    1      -30.694  73.575  30.680  0.00  0.00    -0.287 OA
ENDROOT
BRANCH   1  11
ATOM      3  N   LIG    1      -32.920  77.095  29.088  0.00  0.00    -0.336 N 
ATOM      4  C   LIG    1      -33.742  76.801  30.174  0.00  0.00    +0.089 A 
ATOM      5  C   LIG    1      -35.000  77.242  30.618  0.00  0.00    +0.165 A 
ATOM      6  F   LIG    1      -35.655  78.273  30.082  0.00  0.00    -0.202 F 
ATOM      7  C   LIG    1      -35.546  76.636  31.739  0.00  0.00    +0.151 A 
ATOM      8  N   LIG    1      -34.948  75.668  32.452  0.00  0.00    -0.260 NA
ATOM      9  C   LIG    1      -33.706  75.286  32.085  0.00  0.00    +0.121 A 
ATOM     10  C   LIG    1      -33.068  75.840  30.955  0.00  0.00    +0.032 A 
ATOM     11  C   LIG    1      -31.756  75.652  30.408  0.00  0.00    +0.049 A 
ATOM     12  C   LIG    1      -31.678  76.514  29.334  0.00  0.00    +0.099 A 
BRANCH   3  14
ATOM     13  C   LIG    1      -33.569  79.214  28.006  0.00  0.00    +0.036 C 
ATOM     14  C   LIG    1      -33.265  77.714  27.773  0.00  0.00    +0.063 C 
ATOM     15  C   LIG    1      -34.542  77.083  27.147  0.00  0.00    +0.036 C 
BRANCH  14  16
ATOM     16  C   LIG    1      -32.173  77.613  26.680  0.00  0.00    +0.183 C 
BRANCH  16  17
ATOM     17  O   LIG    1      -32.353  78.573  25.645  0.00  0.00    -0.393 OA
ATOM     18  H   LIG    1      -33.077  79.164  25.921  0.00  0.00    +0.209 HD
ENDBRANCH  16  17
ENDBRANCH  14  16
ENDBRANCH   3  14
ENDBRANCH   1  11
BRANCH   1  19
ATOM     19  C   LIG    1      -29.665  75.238  31.899  0.00  0.00    +0.042 A 
ATOM     20  C   LIG    1      -28.650  76.073  31.399  0.00  0.00    +0.042 A 
ATOM     21  C   LIG    1      -27.693  76.609  32.258  0.00  0.00    +0.086 A 
ATOM     22  C   LIG    1      -27.749  76.225  33.594  0.00  0.00    +0.138 A 
ATOM     23  N   LIG    1      -28.727  75.453  34.123  0.00  0.00    -0.260 NA
ATOM     24  C   LIG    1      -29.678  75.002  33.266  0.00  0.00    +0.122 A 
BRANCH  21  25
ATOM     25  N   LIG    1      -26.736  77.525  31.807  0.00  0.00    -0.216 NA
ATOM     26  C   LIG    1      -25.706  77.101  31.143  0.00  0.00    +0.192 C 
BRANCH  26  27
ATOM     27  O   LIG    1      -25.432  75.801  30.897  0.00  0.00    -0.495 OA
ATOM     28  H   LIG    1      -25.987  75.206  31.421  0.00  0.00    +0.293 HD
ENDBRANCH  26  27
BRANCH  26  29
ATOM     29  C   LIG    1      -24.670  78.029  30.560  0.00  0.00    +0.130 C 
BRANCH  29  30
ATOM     30  C   LIG    1      -23.270  77.472  30.634  0.00  0.00    -0.038 A 
ATOM     31  C   LIG    1      -22.624  77.019  29.473  0.00  0.00    +0.005 A 
ATOM     32  C   LIG    1      -21.333  76.490  29.541  0.00  0.00    +0.020 A 
ATOM     33  C   LIG    1      -20.684  76.404  30.769  0.00  0.00    +0.041 A 
ATOM     34 CL   LIG    1      -19.098  75.745  30.853  0.00  0.00    -0.084 Cl
ATOM     35  C   LIG    1      -21.313  76.847  31.931  0.00  0.00    +0.020 A 
ATOM     36  C   LIG    1      -22.603  77.379  31.864  0.00  0.00    +0.005 A 
ENDBRANCH  29  30
ENDBRANCH  26  29
ENDBRANCH  21  25
ENDBRANCH   1  19
TORSDOF 9
ENDMDL
MODEL 2
REMARK VINA RESULT:      -6.3      6.472     11.323
REMARK  Name = pdb/CHEMBL3921687.pdb
REMARK                            x       y       z     vdW  Elec       q    Type
REMARK                         _______ _______ _______ _____ _____    ______ ____
ROOT
ATOM      1  C   LIG    1      -34.011  71.598  29.077  0.00  0.00    +0.197 C 
ATOM      2  O   LIG    1      -34.220  71.080  30.180  0.00  0.00    -0.287 OA
ENDROOT
BRANCH   1  11
ATOM      3  N   LIG    1      -33.283  75.176  28.424  0.00  0.00    -0.336 N 
ATOM      4  C   LIG    1      -32.291  74.885  29.359  0.00  0.00    +0.089 A 
ATOM      5  C   LIG    1      -31.208  75.589  29.912  0.00  0.00    +0.165 A 
ATOM      6  F   LIG    1      -30.793  76.777  29.469  0.00  0.00    -0.202 F 
ATOM      7  C   LIG    1      -30.469  74.972  30.909  0.00  0.00    +0.151 A 
ATOM      8  N   LIG    1      -30.696  73.732  31.372  0.00  0.00    -0.260 NA
ATOM      9  C   LIG    1      -31.684  73.012  30.798  0.00  0.00    +0.121 A 
ATOM     10  C   LIG    1      -32.495  73.555  29.779  0.00  0.00    +0.032 A 
ATOM     11  C   LIG    1      -33.544  72.985  28.984  0.00  0.00    +0.049 A 
ATOM     12  C   LIG    1      -33.920  73.979  28.104  0.00  0.00    +0.099 A 
BRANCH   3  14
ATOM     13  C   LIG    1      -35.117  76.271  27.191  0.00  0.00    +0.036 C 
ATOM     14  C   LIG    1      -33.791  76.500  27.955  0.00  0.00    +0.063 C 
ATOM     15  C   LIG    1      -32.807  77.185  26.964  0.00  0.00    +0.036 C 
BRANCH  14  16
ATOM     16  C   LIG    1      -34.055  77.545  29.067  0.00  0.00    +0.183 C 
BRANCH  16  17
ATOM     17  O   LIG    1      -33.195  78.674  28.963  0.00  0.00    -0.393 OA
ATOM     18  H   LIG    1      -33.226  78.977  28.037  0.00  0.00    +0.209 HD
ENDBRANCH  16  17
ENDBRANCH  14  16
ENDBRANCH   3  14
ENDBRANCH   1  11
BRANCH   1  19
ATOM     19  C   LIG    1      -34.280  70.738  27.902  0.00  0.00    +0.042 A 
ATOM     20  C   LIG    1      -35.295  71.116  27.005  0.00  0.00    +0.042 A 
ATOM     21  C   LIG    1      -35.510  70.387  25.837  0.00  0.00    +0.086 A 
ATOM     22  C   LIG    1      -34.734  69.248  25.645  0.00  0.00    +0.138 A 
ATOM     23  N   LIG    1      -33.724  68.869  26.464  0.00  0.00    -0.260 NA
ATOM     24  C   LIG    1      -33.503  69.640  27.557  0.00  0.00    +0.122 A 
BRANCH  21  25
ATOM     25  N   LIG    1      -36.440  70.800  24.877  0.00  0.00    -0.216 NA
ATOM     26  C   LIG    1      -37.704  70.794  25.166  0.00  0.00    +0.192 C 
BRANCH  26  27
ATOM     27  O   LIG    1      -38.225  70.346  26.329  0.00  0.00    -0.495 OA
ATOM     28  H   LIG    1      -38.167  69.383  26.408  0.00  0.00    +0.293 HD
ENDBRANCH  26  27
BRANCH  26  29
ATOM     29  C   LIG    1      -38.762  71.293  24.215  0.00  0.00    +0.130 C 
BRANCH  29  30
ATOM     30  C   LIG    1      -39.036  72.770  24.358  0.00  0.00    -0.038 A 
ATOM     31  C   LIG    1      -40.244  73.316  23.897  0.00  0.00    +0.005 A 
ATOM     32  C   LIG    1      -40.493  74.685  24.015  0.00  0.00    +0.020 A 
ATOM     33  C   LIG    1      -39.535  75.516  24.588  0.00  0.00    +0.041 A 
ATOM     34 CL   LIG    1      -39.841  77.203  24.726  0.00  0.00    -0.084 Cl
ATOM     35  C   LIG    1      -38.331  74.990  25.049  0.00  0.00    +0.020 A 
ATOM     36  C   LIG    1      -38.081  73.620  24.934  0.00  0.00    +0.005 A 
ENDBRANCH  29  30
ENDBRANCH  26  29
ENDBRANCH  21  25
ENDBRANCH   1  19
TORSDOF 9
ENDMDL
MODEL 3
REMARK VINA RESULT:      -6.3     17.967     21.338
REMARK  Name = pdb/CHEMBL3921687.pdb
REMARK                            x       y       z     vdW  Elec       q    Type
REMARK                         _______ _______ _______ _____ _____    ______ ____
ROOT
ATOM      1  C   LIG    1      -18.002  83.346  13.037  0.00  0.00    +0.197 C 
ATOM      2  O   LIG    1      -17.171  83.187  12.135  0.00  0.00    -0.287 OA
ENDROOT
BRANCH   1  11
ATOM      3  N   LIG    1      -20.587  85.990  13.333  0.00  0.00    -0.336 N 
ATOM      4  C   LIG    1      -19.540  86.725  12.779  0.00  0.00    +0.089 A 
ATOM      5  C   LIG    1      -19.383  88.043  12.320  0.00  0.00    +0.165 A 
ATOM      6  F   LIG    1      -20.394  88.903  12.178  0.00  0.00    -0.202 F 
ATOM      7  C   LIG    1      -18.125  88.443  11.898  0.00  0.00    +0.151 A 
ATOM      8  N   LIG    1      -17.041  87.650  11.871  0.00  0.00    -0.260 NA
ATOM      9  C   LIG    1      -17.190  86.359  12.236  0.00  0.00    +0.121 A 
ATOM     10  C   LIG    1      -18.431  85.859  12.686  0.00  0.00    +0.032 A 
ATOM     11  C   LIG    1      -18.853  84.541  13.060  0.00  0.00    +0.049 A 
ATOM     12  C   LIG    1      -20.198  84.653  13.347  0.00  0.00    +0.099 A 
BRANCH   3  14
ATOM     13  C   LIG    1      -22.430  85.288  14.815  0.00  0.00    +0.036 C 
ATOM     14  C   LIG    1      -21.831  86.467  14.010  0.00  0.00    +0.063 C 
ATOM     15  C   LIG    1      -22.915  86.917  12.989  0.00  0.00    +0.036 C 
BRANCH  14  16
ATOM     16  C   LIG    1      -21.648  87.661  14.977  0.00  0.00    +0.183 C 
BRANCH  16  17
ATOM     17  O   LIG    1      -21.185  87.253  16.260  0.00  0.00    -0.393 OA
ATOM     18  H   LIG    1      -20.574  86.506  16.122  0.00  0.00    +0.209 HD
ENDBRANCH  16  17
ENDBRANCH  14  16
ENDBRANCH   3  14
ENDBRANCH   1  11
BRANCH   1  19
ATOM     19  C   LIG    1      -18.051  82.278  14.062  0.00  0.00    +0.042 A 
ATOM     20  C   LIG    1      -19.304  81.866  14.548  0.00  0.00    +0.042 A 
ATOM     21  C   LIG    1      -19.396  80.798  15.439  0.00  0.00    +0.086 A 
ATOM     22  C   LIG    1      -18.205  80.222  15.868  0.00  0.00    +0.138 A 
ATOM     23  N   LIG    1      -16.982  80.565  15.399  0.00  0.00    -0.260 NA
ATOM     24  C   LIG    1      -16.938  81.566  14.485  0.00  0.00    +0.122 A 
BRANCH  21  25
ATOM     25  N   LIG    1      -20.635  80.298  15.857  0.00  0.00    -0.216 NA
ATOM     26  C   LIG    1      -21.498  81.098  16.402  0.00  0.00    +0.192 C 
BRANCH  26  27
ATOM     27  O   LIG    1      -21.273  82.403  16.670  0.00  0.00    -0.495 OA
ATOM     28  H   LIG    1      -20.456  82.537  17.171  0.00  0.00    +0.293 HD
ENDBRANCH  26  27
BRANCH  26  29
ATOM     29  C   LIG    1      -22.879  80.655  16.810  0.00  0.00    +0.130 C 
BRANCH  29  30
ATOM     30  C   LIG    1      -23.775  80.353  15.634  0.00  0.00    -0.038 A 
ATOM     31  C   LIG    1      -23.931  81.291  14.601  0.00  0.00    +0.005 A 
ATOM     32  C   LIG    1      -24.771  81.020  13.519  0.00  0.00    +0.020 A 
ATOM     33  C   LIG    1      -25.465  79.815  13.467  0.00  0.00    +0.041 A 
ATOM     34 CL   LIG    1      -26.505  79.486  12.137  0.00  0.00    -0.084 Cl
ATOM     35  C   LIG    1      -25.323  78.875  14.485  0.00  0.00    +0.020 A 
ATOM     36  C   LIG    1      -24.481  79.143  15.567  0.00  0.00    +0.005 A 
ENDBRANCH  29  30
ENDBRANCH  26  29
ENDBRANCH  21  25
ENDBRANCH   1  19
TORSDOF 9
ENDMDL
MODEL 4
REMARK VINA RESULT:      -6.3     16.265     19.246
REMARK  Name = pdb/CHEMBL3921687.pdb
REMARK                            x       y       z     vdW  Elec       q    Type
REMARK                         _______ _______ _______ _____ _____    ______ ____
ROOT
ATOM      1  C   LIG    1      -22.427  81.994  16.026  0.00  0.00    +0.197 C 
ATOM      2  O   LIG    1      -22.377  82.068  17.259  0.00  0.00    -0.287 OA
ENDROOT
BRANCH   1  11
ATOM      3  N   LIG    1      -21.426  85.057  14.190  0.00  0.00    -0.336 N 
ATOM      4  C   LIG    1      -20.529  84.137  13.649  0.00  0.00    +0.089 A 
ATOM      5  C   LIG    1      -19.553  84.175  12.640  0.00  0.00    +0.165 A 
ATOM      6  F   LIG    1      -19.392  85.201  11.802  0.00  0.00    -0.202 F 
ATOM      7  C   LIG    1      -18.778  83.043  12.438  0.00  0.00    +0.151 A 
ATOM      8  N   LIG    1      -18.908  81.896  13.125  0.00  0.00    -0.260 NA
ATOM      9  C   LIG    1      -19.893  81.817  14.046  0.00  0.00    +0.121 A 
ATOM     10  C   LIG    1      -20.730  82.917  14.326  0.00  0.00    +0.032 A 
ATOM     11  C   LIG    1      -21.862  83.062  15.194  0.00  0.00    +0.049 A 
ATOM     12  C   LIG    1      -22.313  84.351  14.998  0.00  0.00    +0.099 A 
BRANCH   3  14
ATOM     13  C   LIG    1      -21.934  87.011  12.771  0.00  0.00    +0.036 C 
ATOM     14  C   LIG    1      -21.398  86.550  14.149  0.00  0.00    +0.063 C 
ATOM     15  C   LIG    1      -19.954  87.112  14.286  0.00  0.00    +0.036 C 
BRANCH  14  16
ATOM     16  C   LIG    1      -22.227  87.263  15.246  0.00  0.00    +0.183 C 
BRANCH  16  17
ATOM     17  O   LIG    1      -21.497  87.422  16.457  0.00  0.00    -0.393 OA
ATOM     18  H   LIG    1      -21.629  86.612  16.983  0.00  0.00    +0.209 HD
ENDBRANCH  16  17
ENDBRANCH  14  16
ENDBRANCH   3  14
ENDBRANCH   1  11
BRANCH   1  19
ATOM     19  C   LIG    1      -23.096  80.791  15.480  0.00  0.00    +0.042 A 
ATOM     20  C   LIG    1      -22.447  79.548  15.587  0.00  0.00    +0.042 A 
ATOM     21  C   LIG    1      -23.087  78.381  15.175  0.00  0.00    +0.086 A 
ATOM     22  C   LIG    1      -24.346  78.515  14.597  0.00  0.00    +0.138 A 
ATOM     23  N   LIG    1      -25.021  79.686  14.507  0.00  0.00    -0.260 NA
ATOM     24  C   LIG    1      -24.390  80.791  14.978  0.00  0.00    +0.122 A 
BRANCH  21  25
ATOM     25  N   LIG    1      -22.509  77.122  15.366  0.00  0.00    -0.216 NA
ATOM     26  C   LIG    1      -21.842  76.570  14.401  0.00  0.00    +0.192 C 
BRANCH  26  27
ATOM     27  O   LIG    1      -21.708  77.092  13.162  0.00  0.00    -0.495 OA
ATOM     28  H   LIG    1      -22.505  77.561  12.876  0.00  0.00    +0.293 HD
ENDBRANCH  26  27
BRANCH  26  29
ATOM     29  C   LIG    1      -21.127  75.251  14.550  0.00  0.00    +0.130 C 
BRANCH  29  30
ATOM     30  C   LIG    1      -21.474  74.533  15.831  0.00  0.00    -0.038 A 
ATOM     31  C   LIG    1      -20.461  74.113  16.707  0.00  0.00    +0.005 A 
ATOM     32  C   LIG    1      -20.778  73.435  17.885  0.00  0.00    +0.020 A 
ATOM     33  C   LIG    1      -22.109  73.167  18.192  0.00  0.00    +0.041 A 
ATOM     34 CL   LIG    1      -22.499  72.325  19.640  0.00  0.00    -0.084 Cl
ATOM     35  C   LIG    1      -23.126  73.575  17.332  0.00  0.00    +0.020 A 
ATOM     36  C   LIG    1      -22.810  74.256  16.154  0.00  0.00    +0.005 A 
ENDBRANCH  29  30
ENDBRANCH  26  29
ENDBRANCH  21  25
ENDBRANCH   1  19
TORSDOF 9
ENDMDL
MODEL 5
REMARK VINA RESULT:      -6.0      7.257     12.008
REMARK  Name = pdb/CHEMBL3921687.pdb
REMARK                            x       y       z     vdW  Elec       q    Type
REMARK                         _______ _______ _______ _____ _____    ______ ____
ROOT
ATOM      1  C   LIG    1      -36.774  79.559  29.491  0.00  0.00    +0.197 C 
ATOM      2  O   LIG    1      -36.781  80.235  30.526  0.00  0.00    -0.287 OA
ENDROOT
BRANCH   1  11
ATOM      3  N   LIG    1      -34.431  76.692  29.270  0.00  0.00    -0.336 N 
ATOM      4  C   LIG    1      -33.768  77.619  28.468  0.00  0.00    +0.089 A 
ATOM      5  C   LIG    1      -32.535  77.651  27.795  0.00  0.00    +0.165 A 
ATOM      6  F   LIG    1      -31.585  76.728  27.947  0.00  0.00    -0.202 F 
ATOM      7  C   LIG    1      -32.251  78.754  27.004  0.00  0.00    +0.151 A 
ATOM      8  N   LIG    1      -33.061  79.814  26.852  0.00  0.00    -0.260 NA
ATOM      9  C   LIG    1      -34.216  79.835  27.553  0.00  0.00    +0.121 A 
ATOM     10  C   LIG    1      -34.596  78.757  28.380  0.00  0.00    +0.032 A 
ATOM     11  C   LIG    1      -35.716  78.571  29.256  0.00  0.00    +0.049 A 
ATOM     12  C   LIG    1      -35.516  77.343  29.852  0.00  0.00    +0.099 A 
BRANCH   3  14
ATOM     13  C   LIG    1      -35.402  74.627  30.207  0.00  0.00    +0.036 C 
ATOM     14  C   LIG    1      -34.232  75.216  29.383  0.00  0.00    +0.063 C 
ATOM     15  C   LIG    1      -32.920  74.860  30.139  0.00  0.00    +0.036 C 
BRANCH  14  16
ATOM     16  C   LIG    1      -34.159  74.447  28.041  0.00  0.00    +0.183 C 
BRANCH  16  17
ATOM     17  O   LIG    1      -35.319  74.646  27.241  0.00  0.00    -0.393 OA
ATOM     18  H   LIG    1      -35.576  75.582  27.331  0.00  0.00    +0.209 HD
ENDBRANCH  16  17
ENDBRANCH  14  16
ENDBRANCH   3  14
ENDBRANCH   1  11
BRANCH   1  19
ATOM     19  C   LIG    1      -37.871  79.835  28.535  0.00  0.00    +0.042 A 
ATOM     20  C   LIG    1      -37.916  79.112  27.330  0.00  0.00    +0.042 A 
ATOM     21  C   LIG    1      -38.986  79.272  26.452  0.00  0.00    +0.086 A 
ATOM     22  C   LIG    1      -39.949  80.218  26.787  0.00  0.00    +0.138 A 
ATOM     23  N   LIG    1      -39.963  80.909  27.952  0.00  0.00    -0.260 NA
ATOM     24  C   LIG    1      -38.938  80.678  28.810  0.00  0.00    +0.122 A 
BRANCH  21  25
ATOM     25  N   LIG    1      -39.110  78.490  25.298  0.00  0.00    -0.216 NA
ATOM     26  C   LIG    1      -39.868  77.438  25.316  0.00  0.00    +0.192 C 
BRANCH  26  27
ATOM     27  O   LIG    1      -40.520  76.979  26.406  0.00  0.00    -0.495 OA
ATOM     28  H   LIG    1      -40.563  76.012  26.425  0.00  0.00    +0.293 HD
ENDBRANCH  26  27
BRANCH  26  29
ATOM     29  C   LIG    1      -40.113  76.586  24.096  0.00  0.00    +0.130 C 
BRANCH  29  30
ATOM     30  C   LIG    1      -39.683  75.152  24.281  0.00  0.00    -0.038 A 
ATOM     31  C   LIG    1      -38.434  74.853  24.847  0.00  0.00    +0.005 A 
ATOM     32  C   LIG    1      -38.026  73.527  25.005  0.00  0.00    +0.020 A 
ATOM     33  C   LIG    1      -38.862  72.493  24.593  0.00  0.00    +0.041 A 
ATOM     34 CL   LIG    1      -38.356  70.860  24.782  0.00  0.00    -0.084 Cl
ATOM     35  C   LIG    1      -40.104  72.773  24.027  0.00  0.00    +0.020 A 
ATOM     36  C   LIG    1      -40.513  74.099  23.871  0.00  0.00    +0.005 A 
ENDBRANCH  29  30
ENDBRANCH  26  29
ENDBRANCH  21  25
ENDBRANCH   1  19
TORSDOF 9
ENDMDL
MODEL 6
REMARK VINA RESULT:      -5.9      7.046      9.769
REMARK  Name = pdb/CHEMBL3921687.pdb
REMARK                            x       y       z     vdW  Elec       q    Type
REMARK                         _______ _______ _______ _____ _____    ______ ____
ROOT
ATOM      1  C   LIG    1      -35.107  81.423  29.364  0.00  0.00    +0.197 C 
ATOM      2  O   LIG    1      -35.866  81.799  28.463  0.00  0.00    -0.287 OA
ENDROOT
BRANCH   1  11
ATOM      3  N   LIG    1      -34.263  77.874  30.036  0.00  0.00    -0.336 N 
ATOM      4  C   LIG    1      -33.589  78.067  28.831  0.00  0.00    +0.089 A 
ATOM      5  C   LIG    1      -32.728  77.292  28.037  0.00  0.00    +0.165 A 
ATOM      6  F   LIG    1      -32.215  76.123  28.424  0.00  0.00    -0.202 F 
ATOM      7  C   LIG    1      -32.310  77.816  26.823  0.00  0.00    +0.151 A 
ATOM      8  N   LIG    1      -32.650  79.029  26.358  0.00  0.00    -0.260 NA
ATOM      9  C   LIG    1      -33.414  79.819  27.143  0.00  0.00    +0.121 A 
ATOM     10  C   LIG    1      -33.893  79.373  28.393  0.00  0.00    +0.032 A 
ATOM     11  C   LIG    1      -34.651  80.030  29.417  0.00  0.00    +0.049 A 
ATOM     12  C   LIG    1      -34.761  79.110  30.440  0.00  0.00    +0.099 A 
BRANCH   3  14
ATOM     13  C   LIG    1      -35.280  75.652  29.698  0.00  0.00    +0.036 C 
ATOM     14  C   LIG    1      -34.625  76.602  30.730  0.00  0.00    +0.063 C 
ATOM     15  C   LIG    1      -35.668  76.830  31.862  0.00  0.00    +0.036 C 
BRANCH  14  16
ATOM     16  C   LIG    1      -33.449  75.846  31.396  0.00  0.00    +0.183 C 
BRANCH  16  17
ATOM     17  O   LIG    1      -32.380  76.715  31.752  0.00  0.00    -0.393 OA
ATOM     18  H   LIG    1      -31.985  76.367  32.572  0.00  0.00    +0.209 HD
ENDBRANCH  16  17
ENDBRANCH  14  16
ENDBRANCH   3  14
ENDBRANCH   1  11
BRANCH   1  19
ATOM     19  C   LIG    1      -34.728  82.453  30.358  0.00  0.00    +0.042 A 
ATOM     20  C   LIG    1      -33.881  83.501  29.956  0.00  0.00    +0.042 A 
ATOM     21  C   LIG    1      -33.583  84.542  30.834  0.00  0.00    +0.086 A 
ATOM     22  C   LIG    1      -34.095  84.453  32.124  0.00  0.00    +0.138 A 
ATOM     23  N   LIG    1      -34.940  83.481  32.542  0.00  0.00    -0.260 NA
ATOM     24  C   LIG    1      -35.259  82.520  31.638  0.00  0.00    +0.122 A 
BRANCH  21  25
ATOM     25  N   LIG    1      -32.831  85.650  30.428  0.00  0.00    -0.216 NA
ATOM     26  C   LIG    1      -31.545  85.649  30.599  0.00  0.00    +0.192 C 
BRANCH  26  27
ATOM     27  O   LIG    1      -30.853  84.667  31.217  0.00  0.00    -0.495 OA
ATOM     28  H   LIG    1      -29.896  84.800  31.153  0.00  0.00    +0.293 HD
ENDBRANCH  26  27
BRANCH  26  29
ATOM     29  C   LIG    1      -30.657  86.770  30.123  0.00  0.00    +0.130 C 
BRANCH  29  30
ATOM     30  C   LIG    1      -30.555  87.905  31.112  0.00  0.00    -0.038 A 
ATOM     31  C   LIG    1      -29.493  87.956  32.028  0.00  0.00    +0.005 A 
ATOM     32  C   LIG    1      -29.405  88.997  32.954  0.00  0.00    +0.020 A 
ATOM     33  C   LIG    1      -30.382  89.989  32.974  0.00  0.00    +0.041 A 
ATOM     34 CL   LIG    1      -30.276  91.267  34.121  0.00  0.00    -0.084 Cl
ATOM     35  C   LIG    1      -31.443  89.952  32.074  0.00  0.00    +0.020 A 
ATOM     36  C   LIG    1      -31.531  88.912  31.145  0.00  0.00    +0.005 A 
ENDBRANCH  29  30
ENDBRANCH  26  29
ENDBRANCH  21  25
ENDBRANCH   1  19
TORSDOF 9
ENDMDL
MODEL 7
REMARK VINA RESULT:      -5.9     14.390     16.937
REMARK  Name = pdb/CHEMBL3921687.pdb
REMARK                            x       y       z     vdW  Elec       q    Type
REMARK                         _______ _______ _______ _____ _____    ______ ____
ROOT
ATOM      1  C   LIG    1      -26.105  73.679  13.518  0.00  0.00    +0.197 C 
ATOM      2  O   LIG    1      -25.400  73.289  12.581  0.00  0.00    -0.287 OA
ENDROOT
BRANCH   1  11
ATOM      3  N   LIG    1      -27.018  71.666  16.498  0.00  0.00    -0.336 N 
ATOM      4  C   LIG    1      -25.633  71.727  16.651  0.00  0.00    +0.089 A 
ATOM      5  C   LIG    1      -24.721  71.298  17.629  0.00  0.00    +0.165 A 
ATOM      6  F   LIG    1      -25.083  70.821  18.821  0.00  0.00    -0.202 F 
ATOM      7  C   LIG    1      -23.368  71.471  17.381  0.00  0.00    +0.151 A 
ATOM      8  N   LIG    1      -22.861  72.046  16.278  0.00  0.00    -0.260 NA
ATOM      9  C   LIG    1      -23.726  72.533  15.362  0.00  0.00    +0.121 A 
ATOM     10  C   LIG    1      -25.121  72.400  15.523  0.00  0.00    +0.032 A 
ATOM     11  C   LIG    1      -26.225  72.877  14.741  0.00  0.00    +0.049 A 
ATOM     12  C   LIG    1      -27.357  72.494  15.431  0.00  0.00    +0.099 A 
BRANCH   3  14
ATOM     13  C   LIG    1      -27.528  69.300  16.969  0.00  0.00    +0.036 C 
ATOM     14  C   LIG    1      -28.009  70.760  17.151  0.00  0.00    +0.063 C 
ATOM     15  C   LIG    1      -29.415  70.860  16.493  0.00  0.00    +0.036 C 
BRANCH  14  16
ATOM     16  C   LIG    1      -28.240  71.001  18.663  0.00  0.00    +0.183 C 
BRANCH  16  17
ATOM     17  O   LIG    1      -29.226  71.998  18.906  0.00  0.00    -0.393 OA
ATOM     18  H   LIG    1      -29.461  71.948  19.851  0.00  0.00    +0.209 HD
ENDBRANCH  16  17
ENDBRANCH  14  16
ENDBRANCH   3  14
ENDBRANCH   1  11
BRANCH   1  19
ATOM     19  C   LIG    1      -26.808  74.965  13.304  0.00  0.00    +0.042 A 
ATOM     20  C   LIG    1      -26.114  76.163  13.545  0.00  0.00    +0.042 A 
ATOM     21  C   LIG    1      -26.709  77.391  13.260  0.00  0.00    +0.086 A 
ATOM     22  C   LIG    1      -28.023  77.372  12.803  0.00  0.00    +0.138 A 
ATOM     23  N   LIG    1      -28.714  76.241  12.524  0.00  0.00    -0.260 NA
ATOM     24  C   LIG    1      -28.079  75.065  12.754  0.00  0.00    +0.122 A 
BRANCH  21  25
ATOM     25  N   LIG    1      -26.005  78.593  13.391  0.00  0.00    -0.216 NA
ATOM     26  C   LIG    1      -25.867  79.130  14.563  0.00  0.00    +0.192 C 
BRANCH  26  27
ATOM     27  O   LIG    1      -26.417  78.648  15.699  0.00  0.00    -0.495 OA
ATOM     28  H   LIG    1      -25.747  78.414  16.358  0.00  0.00    +0.293 HD
ENDBRANCH  26  27
BRANCH  26  29
ATOM     29  C   LIG    1      -25.061  80.383  14.799  0.00  0.00    +0.130 C 
BRANCH  29  30
ATOM     30  C   LIG    1      -23.645  80.101  15.234  0.00  0.00    -0.038 A 
ATOM     31  C   LIG    1      -22.980  78.949  14.786  0.00  0.00    +0.005 A 
ATOM     32  C   LIG    1      -21.674  78.678  15.199  0.00  0.00    +0.020 A 
ATOM     33  C   LIG    1      -21.028  79.553  16.068  0.00  0.00    +0.041 A 
ATOM     34 CL   LIG    1      -19.422  79.214  16.583  0.00  0.00    -0.084 Cl
ATOM     35  C   LIG    1      -21.674  80.699  16.524  0.00  0.00    +0.020 A 
ATOM     36  C   LIG    1      -22.980  80.973  16.109  0.00  0.00    +0.005 A 
ENDBRANCH  29  30
ENDBRANCH  26  29
ENDBRANCH  21  25
ENDBRANCH   1  19
TORSDOF 9
ENDMDL
MODEL 8
REMARK VINA RESULT:      -5.9      7.569     10.544
REMARK  Name = pdb/CHEMBL3921687.pdb
REMARK                            x       y       z     vdW  Elec       q    Type
REMARK                         _______ _______ _______ _____ _____    ______ ____
ROOT
ATOM      1  C   LIG    1      -35.034  80.966  29.264  0.00  0.00    +0.197 C 
ATOM      2  O   LIG    1      -34.515  81.305  30.333  0.00  0.00    -0.287 OA
ENDROOT
BRANCH   1  11
ATOM      3  N   LIG    1      -35.518  77.364  28.521  0.00  0.00    -0.336 N 
ATOM      4  C   LIG    1      -34.321  77.600  27.846  0.00  0.00    +0.089 A 
ATOM      5  C   LIG    1      -33.403  76.805  27.140  0.00  0.00    +0.165 A 
ATOM      6  F   LIG    1      -33.445  75.472  27.114  0.00  0.00    -0.202 F 
ATOM      7  C   LIG    1      -32.337  77.434  26.517  0.00  0.00    +0.151 A 
ATOM      8  N   LIG    1      -32.100  78.756  26.559  0.00  0.00    -0.260 NA
ATOM      9  C   LIG    1      -32.929  79.526  27.297  0.00  0.00    +0.121 A 
ATOM     10  C   LIG    1      -34.045  78.978  27.964  0.00  0.00    +0.032 A 
ATOM     11  C   LIG    1      -35.017  79.561  28.842  0.00  0.00    +0.049 A 
ATOM     12  C   LIG    1      -35.830  78.518  29.236  0.00  0.00    +0.099 A 
BRANCH   3  14
ATOM     13  C   LIG    1      -37.805  76.622  29.069  0.00  0.00    +0.036 C 
ATOM     14  C   LIG    1      -36.469  76.219  28.400  0.00  0.00    +0.063 C 
ATOM     15  C   LIG    1      -35.955  74.951  29.141  0.00  0.00    +0.036 C 
BRANCH  14  16
ATOM     16  C   LIG    1      -36.779  75.758  26.955  0.00  0.00    +0.183 C 
BRANCH  16  17
ATOM     17  O   LIG    1      -37.014  76.854  26.077  0.00  0.00    -0.393 OA
ATOM     18  H   LIG    1      -36.151  77.119  25.709  0.00  0.00    +0.209 HD
ENDBRANCH  16  17
ENDBRANCH  14  16
ENDBRANCH   3  14
ENDBRANCH   1  11
BRANCH   1  19
ATOM     19  C   LIG    1      -35.636  82.059  28.466  0.00  0.00    +0.042 A 
ATOM     20  C   LIG    1      -35.517  83.380  28.931  0.00  0.00    +0.042 A 
ATOM     21  C   LIG    1      -35.982  84.443  28.159  0.00  0.00    +0.086 A 
ATOM     22  C   LIG    1      -36.623  84.130  26.965  0.00  0.00    +0.138 A 
ATOM     23  N   LIG    1      -36.728  82.877  26.464  0.00  0.00    -0.260 NA
ATOM     24  C   LIG    1      -36.205  81.874  27.214  0.00  0.00    +0.122 A 
BRANCH  21  25
ATOM     25  N   LIG    1      -35.783  85.773  28.547  0.00  0.00    -0.216 NA
ATOM     26  C   LIG    1      -34.790  86.443  28.051  0.00  0.00    +0.192 C 
BRANCH  26  27
ATOM     27  O   LIG    1      -33.861  85.933  27.213  0.00  0.00    -0.495 OA
ATOM     28  H   LIG    1      -33.623  85.023  27.442  0.00  0.00    +0.293 HD
ENDBRANCH  26  27
BRANCH  26  29
ATOM     29  C   LIG    1      -34.550  87.899  28.360  0.00  0.00    +0.130 C 
BRANCH  29  30
ATOM     30  C   LIG    1      -33.432  88.116  29.349  0.00  0.00    -0.038 A 
ATOM     31  C   LIG    1      -32.707  89.318  29.349  0.00  0.00    +0.005 A 
ATOM     32  C   LIG    1      -31.662  89.516  30.253  0.00  0.00    +0.020 A 
ATOM     33  C   LIG    1      -31.330  88.512  31.157  0.00  0.00    +0.041 A 
ATOM     34 CL   LIG    1      -30.037  88.753  32.266  0.00  0.00    -0.084 Cl
ATOM     35  C   LIG    1      -32.038  87.312  31.169  0.00  0.00    +0.020 A 
ATOM     36  C   LIG    1      -33.086  87.114  30.267  0.00  0.00    +0.005 A 
ENDBRANCH  29  30
ENDBRANCH  26  29
ENDBRANCH  21  25
ENDBRANCH   1  19
TORSDOF 9
ENDMDL
MODEL 9
REMARK VINA RESULT:      -5.8     13.421     17.011
REMARK  Name = pdb/CHEMBL3921687.pdb
REMARK                            x       y       z     vdW  Elec       q    Type
REMARK                         _______ _______ _______ _____ _____    ______ ____
ROOT
ATOM      1  C   LIG    1      -33.564  66.199  17.903  0.00  0.00    +0.197 C 
ATOM      2  O   LIG    1      -33.429  65.016  17.573  0.00  0.00    -0.287 OA
ENDROOT
BRANCH   1  11
ATOM      3  N   LIG    1      -31.048  68.898  17.525  0.00  0.00    -0.336 N 
ATOM      4  C   LIG    1      -30.287  67.938  18.191  0.00  0.00    +0.089 A 
ATOM      5  C   LIG    1      -28.942  67.830  18.581  0.00  0.00    +0.165 A 
ATOM      6  F   LIG    1      -27.989  68.682  18.200  0.00  0.00    -0.202 F 
ATOM      7  C   LIG    1      -28.564  66.722  19.323  0.00  0.00    +0.151 A 
ATOM      8  N   LIG    1      -29.389  65.724  19.679  0.00  0.00    -0.260 NA
ATOM      9  C   LIG    1      -30.668  65.773  19.247  0.00  0.00    +0.121 A 
ATOM     10  C   LIG    1      -31.148  66.863  18.490  0.00  0.00    +0.032 A 
ATOM     11  C   LIG    1      -32.418  67.115  17.873  0.00  0.00    +0.049 A 
ATOM     12  C   LIG    1      -32.274  68.317  17.211  0.00  0.00    +0.099 A 
BRANCH   3  14
ATOM     13  C   LIG    1      -29.931  70.526  16.047  0.00  0.00    +0.036 C 
ATOM     14  C   LIG    1      -30.782  70.355  17.328  0.00  0.00    +0.063 C 
ATOM     15  C   LIG    1      -29.962  70.963  18.502  0.00  0.00    +0.036 C 
BRANCH  14  16
ATOM     16  C   LIG    1      -32.037  71.250  17.190  0.00  0.00    +0.183 C 
BRANCH  16  17
ATOM     17  O   LIG    1      -32.339  71.554  15.833  0.00  0.00    -0.393 OA
ATOM     18  H   LIG    1      -31.490  71.630  15.359  0.00  0.00    +0.209 HD
ENDBRANCH  16  17
ENDBRANCH  14  16
ENDBRANCH   3  14
ENDBRANCH   1  11
BRANCH   1  19
ATOM     19  C   LIG    1      -34.925  66.596  18.334  0.00  0.00    +0.042 A 
ATOM     20  C   LIG    1      -35.213  66.640  19.709  0.00  0.00    +0.042 A 
ATOM     21  C   LIG    1      -36.449  67.104  20.155  0.00  0.00    +0.086 A 
ATOM     22  C   LIG    1      -37.389  67.443  19.187  0.00  0.00    +0.138 A 
ATOM     23  N   LIG    1      -37.142  67.448  17.856  0.00  0.00    -0.260 NA
ATOM     24  C   LIG    1      -35.905  67.052  17.464  0.00  0.00    +0.122 A 
BRANCH  21  25
ATOM     25  N   LIG    1      -36.725  67.258  21.518  0.00  0.00    -0.216 NA
ATOM     26  C   LIG    1      -36.893  68.448  22.007  0.00  0.00    +0.192 C 
BRANCH  26  27
ATOM     27  O   LIG    1      -36.756  69.594  21.304  0.00  0.00    -0.495 OA
ATOM     28  H   LIG    1      -36.828  69.447  20.350  0.00  0.00    +0.293 HD
ENDBRANCH  26  27
BRANCH  26  29
ATOM     29  C   LIG    1      -37.266  68.695  23.446  0.00  0.00    +0.130 C 
BRANCH  29  30
ATOM     30  C   LIG    1      -38.227  69.845  23.619  0.00  0.00    -0.038 A 
ATOM     31  C   LIG    1      -39.510  69.788  23.053  0.00  0.00    +0.005 A 
ATOM     32  C   LIG    1      -40.397  70.857  23.198  0.00  0.00    +0.020 A 
ATOM     33  C   LIG    1      -40.004  71.991  23.904  0.00  0.00    +0.041 A 
ATOM     34 CL   LIG    1      -41.094  73.310  24.075  0.00  0.00    -0.084 Cl
ATOM     35  C   LIG    1      -38.733  72.064  24.469  0.00  0.00    +0.020 A 
ATOM     36  C   LIG    1      -37.846  70.994  24.327  0.00  0.00    +0.005 A 
ENDBRANCH  29  30
ENDBRANCH  26  29
ENDBRANCH  21  25
ENDBRANCH   1  19
TORSDOF 9
ENDMDL
