MODEL 1
REMARK VINA RESULT:      -6.2      0.000      0.000
REMARK  Name = pdb/CHEMBL254050.pdb
REMARK                            x       y       z     vdW  Elec       q    Type
REMARK                         _______ _______ _______ _____ _____    ______ ____
ROOT
ATOM      1  C   LIG    1      -38.976  72.015  24.333  0.00  0.00    +0.041 A 
ATOM      2  C   LIG    1      -39.873  71.133  23.671  0.00  0.00    -0.038 A 
ATOM      3  C   LIG    1      -39.588  69.698  23.312  0.00  0.00    +0.044 C 
ATOM      4  C   LIG    1      -41.117  71.653  23.232  0.00  0.00    +0.005 A 
ATOM      5  C   LIG    1      -41.434  73.003  23.371  0.00  0.00    +0.015 A 
ATOM      6  C   LIG    1      -40.518  73.870  23.951  0.00  0.00    +0.014 A 
ATOM      7  C   LIG    1      -39.303  73.361  24.411  0.00  0.00    +0.028 A 
ENDROOT
BRANCH   1  14
ATOM      8  C   LIG    1      -35.298  69.898  29.875  0.00  0.00    +0.109 C 
ATOM      9  C   LIG    1      -36.457  70.860  29.945  0.00  0.00    +0.213 C 
ATOM     10  N   LIG    1      -36.508  71.830  28.940  0.00  0.00    -0.299 N 
ATOM     11  C   LIG    1      -37.833  72.305  28.546  0.00  0.00    +0.126 C 
ATOM     12  C   LIG    1      -38.332  71.459  27.351  0.00  0.00    +0.127 C 
ATOM     13  N   LIG    1      -37.366  71.481  26.226  0.00  0.00    -0.295 N 
ATOM     14  C   LIG    1      -37.605  71.558  24.822  0.00  0.00    +0.247 C 
ATOM     15  O   LIG    1      -36.739  71.322  23.992  0.00  0.00    -0.270 OA
ATOM     16  C   LIG    1      -35.984  71.108  26.638  0.00  0.00    +0.127 C 
ATOM     17  C   LIG    1      -35.526  71.940  27.853  0.00  0.00    +0.126 C 
ATOM     18  O   LIG    1      -37.326  70.753  30.809  0.00  0.00    -0.276 OA
ENDBRANCH   1  14
BRANCH   6  19
ATOM     19  S   LIG    1      -40.764  75.633  24.003  0.00  0.00    -0.081 S 
BRANCH  19  20
ATOM     20  C   LIG    1      -39.319  76.110  24.855  0.00  0.00    +0.071 A 
ATOM     21  S   LIG    1      -39.274  76.241  26.558  0.00  0.00    -0.045 S 
ATOM     22  C   LIG    1      -37.635  76.778  26.479  0.00  0.00    +0.164 A 
ATOM     23  N   LIG    1      -37.145  76.841  25.257  0.00  0.00    -0.232 NA
ATOM     24  C   LIG    1      -38.097  76.465  24.332  0.00  0.00    +0.135 A 
BRANCH  22  25
ATOM     25  N   LIG    1      -36.984  77.064  27.624  0.00  0.00    -0.279 N 
ATOM     26  H   LIG    1      -37.513  77.095  28.487  0.00  0.00    +0.155 HD
BRANCH  25  27
ATOM     27  C   LIG    1      -35.628  76.882  27.887  0.00  0.00    +0.126 A 
ATOM     28  N   LIG    1      -34.796  77.799  27.348  0.00  0.00    -0.225 NA
ATOM     29  C   LIG    1      -33.469  77.649  27.560  0.00  0.00    +0.108 A 
ATOM     30 BR   LIG    1      -32.313  78.991  26.877  0.00  0.00    -0.029 Br
ATOM     31  C   LIG    1      -32.910  76.585  28.249  0.00  0.00    +0.035 A 
ATOM     32  C   LIG    1      -33.768  75.639  28.784  0.00  0.00    +0.006 A 
ATOM     33  C   LIG    1      -35.140  75.801  28.618  0.00  0.00    +0.044 A 
ENDBRANCH  25  27
ENDBRANCH  22  25
ENDBRANCH  19  20
ENDBRANCH   6  19
TORSDOF 5
ENDMDL
MODEL 2
REMARK VINA RESULT:      -6.2      1.286      1.454
REMARK  Name = pdb/CHEMBL254050.pdb
REMARK                            x       y       z     vdW  Elec       q    Type
REMARK                         _______ _______ _______ _____ _____    ______ ____
ROOT
ATOM      1  C   LIG    1      -38.757  71.905  24.374  0.00  0.00    +0.041 A 
ATOM      2  C   LIG    1      -39.750  71.114  23.735  0.00  0.00    -0.038 A 
ATOM      3  C   LIG    1      -39.590  69.677  23.313  0.00  0.00    +0.044 C 
ATOM      4  C   LIG    1      -40.975  71.737  23.385  0.00  0.00    +0.005 A 
ATOM      5  C   LIG    1      -41.185  73.100  23.587  0.00  0.00    +0.015 A 
ATOM      6  C   LIG    1      -40.178  73.878  24.143  0.00  0.00    +0.014 A 
ATOM      7  C   LIG    1      -38.981  73.267  24.516  0.00  0.00    +0.028 A 
ENDROOT
BRANCH   1  14
ATOM      8  C   LIG    1      -34.621  70.178  29.725  0.00  0.00    +0.109 C 
ATOM      9  C   LIG    1      -35.627  71.300  29.761  0.00  0.00    +0.213 C 
ATOM     10  N   LIG    1      -35.700  72.094  28.613  0.00  0.00    -0.299 N 
ATOM     11  C   LIG    1      -36.997  72.691  28.302  0.00  0.00    +0.126 C 
ATOM     12  C   LIG    1      -37.764  71.748  27.345  0.00  0.00    +0.127 C 
ATOM     13  N   LIG    1      -36.973  71.448  26.126  0.00  0.00    -0.295 N 
ATOM     14  C   LIG    1      -37.399  71.334  24.770  0.00  0.00    +0.247 C 
ATOM     15  O   LIG    1      -36.697  70.843  23.897  0.00  0.00    -0.270 OA
ATOM     16  C   LIG    1      -35.604  70.944  26.430  0.00  0.00    +0.127 C 
ATOM     17  C   LIG    1      -34.877  71.882  27.414  0.00  0.00    +0.126 C 
ATOM     18  O   LIG    1      -36.371  71.462  30.728  0.00  0.00    -0.276 OA
ENDBRANCH   1  14
BRANCH   6  19
ATOM     19  S   LIG    1      -40.292  75.651  24.267  0.00  0.00    -0.081 S 
BRANCH  19  20
ATOM     20  C   LIG    1      -38.836  75.979  25.169  0.00  0.00    +0.071 A 
ATOM     21  S   LIG    1      -38.801  75.948  26.876  0.00  0.00    -0.045 S 
ATOM     22  C   LIG    1      -37.139  76.415  26.857  0.00  0.00    +0.164 A 
ATOM     23  N   LIG    1      -36.635  76.570  25.650  0.00  0.00    -0.232 NA
ATOM     24  C   LIG    1      -37.594  76.327  24.688  0.00  0.00    +0.135 A 
BRANCH  22  25
ATOM     25  N   LIG    1      -36.487  76.562  28.028  0.00  0.00    -0.279 N 
ATOM     26  H   LIG    1      -36.954  76.279  28.881  0.00  0.00    +0.155 HD
BRANCH  25  27
ATOM     27  C   LIG    1      -35.108  76.621  28.220  0.00  0.00    +0.126 A 
ATOM     28  N   LIG    1      -34.530  75.491  28.680  0.00  0.00    -0.225 NA
ATOM     29  C   LIG    1      -33.195  75.511  28.901  0.00  0.00    +0.108 A 
ATOM     30 BR   LIG    1      -32.374  73.893  29.461  0.00  0.00    -0.029 Br
ATOM     31  C   LIG    1      -32.399  76.632  28.735  0.00  0.00    +0.035 A 
ATOM     32  C   LIG    1      -33.003  77.793  28.280  0.00  0.00    +0.006 A 
ATOM     33  C   LIG    1      -34.367  77.779  28.001  0.00  0.00    +0.044 A 
ENDBRANCH  25  27
ENDBRANCH  22  25
ENDBRANCH  19  20
ENDBRANCH   6  19
TORSDOF 5
ENDMDL
MODEL 3
REMARK VINA RESULT:      -6.1      3.234      6.912
REMARK  Name = pdb/CHEMBL254050.pdb
REMARK                            x       y       z     vdW  Elec       q    Type
REMARK                         _______ _______ _______ _____ _____    ______ ____
ROOT
ATOM      1  C   LIG    1      -33.356  72.003  29.504  0.00  0.00    +0.041 A 
ATOM      2  C   LIG    1      -31.948  71.809  29.502  0.00  0.00    -0.038 A 
ATOM      3  C   LIG    1      -31.246  70.476  29.518  0.00  0.00    +0.044 C 
ATOM      4  C   LIG    1      -31.117  72.955  29.572  0.00  0.00    +0.005 A 
ATOM      5  C   LIG    1      -31.650  74.235  29.714  0.00  0.00    +0.015 A 
ATOM      6  C   LIG    1      -33.025  74.406  29.791  0.00  0.00    +0.014 A 
ATOM      7  C   LIG    1      -33.851  73.286  29.695  0.00  0.00    +0.028 A 
ENDROOT
BRANCH   1  14
ATOM      8  C   LIG    1      -36.100  67.010  25.471  0.00  0.00    +0.109 C 
ATOM      9  C   LIG    1      -35.643  68.353  24.962  0.00  0.00    +0.213 C 
ATOM     10  N   LIG    1      -35.969  69.453  25.760  0.00  0.00    -0.299 N 
ATOM     11  C   LIG    1      -35.053  70.591  25.726  0.00  0.00    +0.126 C 
ATOM     12  C   LIG    1      -34.023  70.436  26.871  0.00  0.00    +0.127 C 
ATOM     13  N   LIG    1      -34.690  70.286  28.187  0.00  0.00    -0.295 N 
ATOM     14  C   LIG    1      -34.335  70.834  29.455  0.00  0.00    +0.247 C 
ATOM     15  O   LIG    1      -34.822  70.438  30.504  0.00  0.00    -0.270 OA
ATOM     16  C   LIG    1      -35.711  69.201  28.202  0.00  0.00    +0.127 C 
ATOM     17  C   LIG    1      -36.701  69.359  27.031  0.00  0.00    +0.126 C 
ATOM     18  O   LIG    1      -34.977  68.455  23.932  0.00  0.00    -0.276 OA
ENDBRANCH   1  14
BRANCH   6  19
ATOM     19  S   LIG    1      -33.780  75.977  30.154  0.00  0.00    -0.081 S 
BRANCH  19  20
ATOM     20  C   LIG    1      -35.016  76.004  28.925  0.00  0.00    +0.071 A 
ATOM     21  S   LIG    1      -34.645  76.225  27.272  0.00  0.00    -0.045 S 
ATOM     22  C   LIG    1      -36.327  76.183  26.883  0.00  0.00    +0.164 A 
ATOM     23  N   LIG    1      -37.118  76.000  27.920  0.00  0.00    -0.232 NA
ATOM     24  C   LIG    1      -36.380  75.900  29.082  0.00  0.00    +0.135 A 
BRANCH  22  25
ATOM     25  N   LIG    1      -36.703  76.313  25.594  0.00  0.00    -0.279 N 
ATOM     26  H   LIG    1      -35.987  76.326  24.880  0.00  0.00    +0.155 HD
BRANCH  25  27
ATOM     27  C   LIG    1      -37.940  75.980  25.044  0.00  0.00    +0.126 A 
ATOM     28  N   LIG    1      -38.202  74.660  24.941  0.00  0.00    -0.225 NA
ATOM     29  C   LIG    1      -39.382  74.292  24.392  0.00  0.00    +0.108 A 
ATOM     30 BR   LIG    1      -39.783  72.437  24.333  0.00  0.00    -0.029 Br
ATOM     31  C   LIG    1      -40.311  75.184  23.882  0.00  0.00    +0.035 A 
ATOM     32  C   LIG    1      -40.027  76.537  23.976  0.00  0.00    +0.006 A 
ATOM     33  C   LIG    1      -38.839  76.937  24.580  0.00  0.00    +0.044 A 
ENDBRANCH  25  27
ENDBRANCH  22  25
ENDBRANCH  19  20
ENDBRANCH   6  19
TORSDOF 5
ENDMDL
MODEL 4
REMARK VINA RESULT:      -6.1      2.418      3.016
REMARK  Name = pdb/CHEMBL254050.pdb
REMARK                            x       y       z     vdW  Elec       q    Type
REMARK                         _______ _______ _______ _____ _____    ______ ____
ROOT
ATOM      1  C   LIG    1      -41.246  72.650  24.886  0.00  0.00    +0.041 A 
ATOM      2  C   LIG    1      -41.709  72.663  23.542  0.00  0.00    -0.038 A 
ATOM      3  C   LIG    1      -41.795  71.465  22.632  0.00  0.00    +0.044 C 
ATOM      4  C   LIG    1      -42.049  73.913  22.966  0.00  0.00    +0.005 A 
ATOM      5  C   LIG    1      -41.868  75.109  23.658  0.00  0.00    +0.015 A 
ATOM      6  C   LIG    1      -41.342  75.090  24.943  0.00  0.00    +0.014 A 
ATOM      7  C   LIG    1      -41.032  73.862  25.528  0.00  0.00    +0.028 A 
ENDROOT
BRANCH   1  14
ATOM      8  C   LIG    1      -35.860  68.601  26.709  0.00  0.00    +0.109 C 
ATOM      9  C   LIG    1      -35.890  69.463  25.472  0.00  0.00    +0.213 C 
ATOM     10  N   LIG    1      -37.094  69.472  24.762  0.00  0.00    -0.299 N 
ATOM     11  C   LIG    1      -37.424  70.696  24.035  0.00  0.00    +0.126 C 
ATOM     12  C   LIG    1      -38.292  71.598  24.944  0.00  0.00    +0.127 C 
ATOM     13  N   LIG    1      -39.499  70.885  25.428  0.00  0.00    -0.295 N 
ATOM     14  C   LIG    1      -40.834  71.360  25.588  0.00  0.00    +0.247 C 
ATOM     15  O   LIG    1      -41.680  70.748  26.224  0.00  0.00    -0.270 OA
ATOM     16  C   LIG    1      -39.184  69.579  26.072  0.00  0.00    +0.127 C 
ATOM     17  C   LIG    1      -38.289  68.715  25.160  0.00  0.00    +0.126 C 
ATOM     18  O   LIG    1      -34.924  70.154  25.150  0.00  0.00    -0.276 OA
ENDBRANCH   1  14
BRANCH   6  19
ATOM     19  S   LIG    1      -40.910  76.574  25.826  0.00  0.00    -0.081 S 
BRANCH  19  20
ATOM     20  C   LIG    1      -39.172  76.433  25.812  0.00  0.00    +0.071 A 
ATOM     21  S   LIG    1      -38.291  75.952  27.194  0.00  0.00    -0.045 S 
ATOM     22  C   LIG    1      -36.810  76.152  26.327  0.00  0.00    +0.164 A 
ATOM     23  N   LIG    1      -36.964  76.539  25.077  0.00  0.00    -0.232 NA
ATOM     24  C   LIG    1      -38.301  76.702  24.780  0.00  0.00    +0.135 A 
BRANCH  22  25
ATOM     25  N   LIG    1      -35.646  75.889  26.953  0.00  0.00    -0.279 N 
ATOM     26  H   LIG    1      -35.272  74.949  26.905  0.00  0.00    +0.155 HD
BRANCH  25  27
ATOM     27  C   LIG    1      -34.642  76.800  27.277  0.00  0.00    +0.126 A 
ATOM     28  N   LIG    1      -35.052  78.062  27.527  0.00  0.00    -0.225 NA
ATOM     29  C   LIG    1      -34.109  78.984  27.825  0.00  0.00    +0.108 A 
ATOM     30 BR   LIG    1      -34.700  80.734  28.263  0.00  0.00    -0.029 Br
ATOM     31  C   LIG    1      -32.748  78.725  27.837  0.00  0.00    +0.035 A 
ATOM     32  C   LIG    1      -32.334  77.432  27.562  0.00  0.00    +0.006 A 
ATOM     33  C   LIG    1      -33.293  76.457  27.300  0.00  0.00    +0.044 A 
ENDBRANCH  25  27
ENDBRANCH  22  25
ENDBRANCH  19  20
ENDBRANCH   6  19
TORSDOF 5
ENDMDL
MODEL 5
REMARK VINA RESULT:      -6.0      3.376      7.636
REMARK  Name = pdb/CHEMBL254050.pdb
REMARK                            x       y       z     vdW  Elec       q    Type
REMARK                         _______ _______ _______ _____ _____    ______ ____
ROOT
ATOM      1  C   LIG    1      -33.244  71.739  30.121  0.00  0.00    +0.041 A 
ATOM      2  C   LIG    1      -31.914  71.418  29.737  0.00  0.00    -0.038 A 
ATOM      3  C   LIG    1      -30.726  72.339  29.834  0.00  0.00    +0.044 C 
ATOM      4  C   LIG    1      -31.680  70.157  29.133  0.00  0.00    +0.005 A 
ATOM      5  C   LIG    1      -32.724  69.277  28.851  0.00  0.00    +0.015 A 
ATOM      6  C   LIG    1      -34.029  69.634  29.162  0.00  0.00    +0.014 A 
ATOM      7  C   LIG    1      -34.265  70.862  29.782  0.00  0.00    +0.028 A 
ENDROOT
BRANCH   1  14
ATOM      8  C   LIG    1      -35.956  78.067  28.975  0.00  0.00    +0.109 C 
ATOM      9  C   LIG    1      -35.197  77.272  27.943  0.00  0.00    +0.213 C 
ATOM     10  N   LIG    1      -34.054  76.610  28.400  0.00  0.00    -0.299 N 
ATOM     11  C   LIG    1      -33.692  75.368  27.720  0.00  0.00    +0.126 C 
ATOM     12  C   LIG    1      -34.328  74.179  28.478  0.00  0.00    +0.127 C 
ATOM     13  N   LIG    1      -33.939  74.174  29.910  0.00  0.00    -0.295 N 
ATOM     14  C   LIG    1      -33.602  73.078  30.757  0.00  0.00    +0.247 C 
ATOM     15  O   LIG    1      -33.539  73.181  31.974  0.00  0.00    -0.270 OA
ATOM     16  C   LIG    1      -34.199  75.475  30.588  0.00  0.00    +0.127 C 
ATOM     17  C   LIG    1      -33.585  76.645  29.793  0.00  0.00    +0.126 C 
ATOM     18  O   LIG    1      -35.600  77.176  26.784  0.00  0.00    -0.276 OA
ENDBRANCH   1  14
BRANCH   6  19
ATOM     19  S   LIG    1      -35.435  68.656  28.674  0.00  0.00    -0.081 S 
BRANCH  19  20
ATOM     20  C   LIG    1      -36.303  69.836  27.727  0.00  0.00    +0.071 A 
ATOM     21  S   LIG    1      -35.688  70.446  26.256  0.00  0.00    -0.045 S 
ATOM     22  C   LIG    1      -37.057  71.488  26.108  0.00  0.00    +0.164 A 
ATOM     23  N   LIG    1      -37.929  71.377  27.090  0.00  0.00    -0.232 NA
ATOM     24  C   LIG    1      -37.505  70.443  28.012  0.00  0.00    +0.135 A 
BRANCH  22  25
ATOM     25  N   LIG    1      -37.151  72.296  25.033  0.00  0.00    -0.279 N 
ATOM     26  H   LIG    1      -36.604  72.075  24.212  0.00  0.00    +0.155 HD
BRANCH  25  27
ATOM     27  C   LIG    1      -38.216  73.132  24.703  0.00  0.00    +0.126 A 
ATOM     28  N   LIG    1      -38.024  74.449  24.931  0.00  0.00    -0.225 NA
ATOM     29  C   LIG    1      -39.040  75.294  24.645  0.00  0.00    +0.108 A 
ATOM     30 BR   LIG    1      -38.730  77.152  24.883  0.00  0.00    -0.029 Br
ATOM     31  C   LIG    1      -40.280  74.886  24.183  0.00  0.00    +0.035 A 
ATOM     32  C   LIG    1      -40.476  73.531  23.967  0.00  0.00    +0.006 A 
ATOM     33  C   LIG    1      -39.427  72.650  24.211  0.00  0.00    +0.044 A 
ENDBRANCH  25  27
ENDBRANCH  22  25
ENDBRANCH  19  20
ENDBRANCH   6  19
TORSDOF 5
ENDMDL
MODEL 6
REMARK VINA RESULT:      -5.8     14.771     16.122
REMARK  Name = pdb/CHEMBL254050.pdb
REMARK                            x       y       z     vdW  Elec       q    Type
REMARK                         _______ _______ _______ _____ _____    ______ ____
ROOT
ATOM      1  C   LIG    1      -25.278  71.305  15.604  0.00  0.00    +0.041 A 
ATOM      2  C   LIG    1      -24.343  71.741  16.583  0.00  0.00    -0.038 A 
ATOM      3  C   LIG    1      -24.210  71.188  17.978  0.00  0.00    +0.044 C 
ATOM      4  C   LIG    1      -23.510  72.843  16.264  0.00  0.00    +0.005 A 
ATOM      5  C   LIG    1      -23.644  73.536  15.061  0.00  0.00    +0.015 A 
ATOM      6  C   LIG    1      -24.612  73.148  14.145  0.00  0.00    +0.014 A 
ATOM      7  C   LIG    1      -25.417  72.046  14.439  0.00  0.00    +0.028 A 
ENDROOT
BRANCH   1  14
ATOM      8  C   LIG    1      -31.765  69.545  17.487  0.00  0.00    +0.109 C 
ATOM      9  C   LIG    1      -31.046  70.778  17.975  0.00  0.00    +0.213 C 
ATOM     10  N   LIG    1      -29.699  70.609  18.308  0.00  0.00    -0.299 N 
ATOM     11  C   LIG    1      -28.823  71.764  18.127  0.00  0.00    +0.126 C 
ATOM     12  C   LIG    1      -28.183  71.689  16.721  0.00  0.00    +0.127 C 
ATOM     13  N   LIG    1      -27.474  70.403  16.512  0.00  0.00    -0.295 N 
ATOM     14  C   LIG    1      -26.233  70.143  15.859  0.00  0.00    +0.247 C 
ATOM     15  O   LIG    1      -25.879  69.017  15.540  0.00  0.00    -0.270 OA
ATOM     16  C   LIG    1      -28.325  69.215  16.804  0.00  0.00    +0.127 C 
ATOM     17  C   LIG    1      -28.979  69.333  18.195  0.00  0.00    +0.126 C 
ATOM     18  O   LIG    1      -31.609  71.871  18.022  0.00  0.00    -0.276 OA
ENDBRANCH   1  14
BRANCH   6  19
ATOM     19  S   LIG    1      -24.972  74.082  12.673  0.00  0.00    -0.081 S 
BRANCH  19  20
ATOM     20  C   LIG    1      -25.782  75.454  13.383  0.00  0.00    +0.071 A 
ATOM     21  S   LIG    1      -24.980  76.935  13.662  0.00  0.00    -0.045 S 
ATOM     22  C   LIG    1      -26.413  77.584  14.376  0.00  0.00    +0.164 A 
ATOM     23  N   LIG    1      -27.433  76.751  14.391  0.00  0.00    -0.232 NA
ATOM     24  C   LIG    1      -27.081  75.541  13.832  0.00  0.00    +0.135 A 
BRANCH  22  25
ATOM     25  N   LIG    1      -26.400  78.853  14.830  0.00  0.00    -0.279 N 
ATOM     26  H   LIG    1      -26.889  79.065  15.690  0.00  0.00    +0.155 HD
BRANCH  25  27
ATOM     27  C   LIG    1      -25.450  79.835  14.553  0.00  0.00    +0.126 A 
ATOM     28  N   LIG    1      -24.527  80.048  15.514  0.00  0.00    -0.225 NA
ATOM     29  C   LIG    1      -23.598  81.007  15.295  0.00  0.00    +0.108 A 
ATOM     30 BR   LIG    1      -22.250  81.240  16.611  0.00  0.00    -0.029 Br
ATOM     31  C   LIG    1      -23.570  81.817  14.171  0.00  0.00    +0.035 A 
ATOM     32  C   LIG    1      -24.532  81.603  13.197  0.00  0.00    +0.006 A 
ATOM     33  C   LIG    1      -25.467  80.589  13.382  0.00  0.00    +0.044 A 
ENDBRANCH  25  27
ENDBRANCH  22  25
ENDBRANCH  19  20
ENDBRANCH   6  19
TORSDOF 5
ENDMDL
MODEL 7
REMARK VINA RESULT:      -5.8      2.841      5.048
REMARK  Name = pdb/CHEMBL254050.pdb
REMARK                            x       y       z     vdW  Elec       q    Type
REMARK                         _______ _______ _______ _____ _____    ______ ____
ROOT
ATOM      1  C   LIG    1      -38.696  74.779  24.749  0.00  0.00    +0.041 A 
ATOM      2  C   LIG    1      -39.999  74.934  24.203  0.00  0.00    -0.038 A 
ATOM      3  C   LIG    1      -40.765  76.228  24.113  0.00  0.00    +0.044 C 
ATOM      4  C   LIG    1      -40.686  73.769  23.775  0.00  0.00    +0.005 A 
ATOM      5  C   LIG    1      -40.143  72.497  23.946  0.00  0.00    +0.015 A 
ATOM      6  C   LIG    1      -38.901  72.353  24.550  0.00  0.00    +0.014 A 
ATOM      7  C   LIG    1      -38.206  73.496  24.949  0.00  0.00    +0.028 A 
ENDROOT
BRANCH   1  14
ATOM      8  C   LIG    1      -36.857  78.444  30.397  0.00  0.00    +0.109 C 
ATOM      9  C   LIG    1      -38.178  77.733  30.242  0.00  0.00    +0.213 C 
ATOM     10  N   LIG    1      -38.785  77.839  28.988  0.00  0.00    -0.299 N 
ATOM     11  C   LIG    1      -39.620  76.719  28.560  0.00  0.00    +0.126 C 
ATOM     12  C   LIG    1      -38.754  75.739  27.734  0.00  0.00    +0.127 C 
ATOM     13  N   LIG    1      -38.096  76.422  26.593  0.00  0.00    -0.295 N 
ATOM     14  C   LIG    1      -37.886  75.966  25.258  0.00  0.00    +0.247 C 
ATOM     15  O   LIG    1      -37.117  76.521  24.485  0.00  0.00    -0.270 OA
ATOM     16  C   LIG    1      -37.333  77.635  27.002  0.00  0.00    +0.127 C 
ATOM     17  C   LIG    1      -38.208  78.576  27.855  0.00  0.00    +0.126 C 
ATOM     18  O   LIG    1      -38.654  77.061  31.156  0.00  0.00    -0.276 OA
ENDBRANCH   1  14
BRANCH   6  19
ATOM     19  S   LIG    1      -38.216  70.764  24.972  0.00  0.00    -0.081 S 
BRANCH  19  20
ATOM     20  C   LIG    1      -37.162  71.233  26.279  0.00  0.00    +0.071 A 
ATOM     21  S   LIG    1      -35.463  71.091  26.168  0.00  0.00    -0.045 S 
ATOM     22  C   LIG    1      -35.303  71.666  27.789  0.00  0.00    +0.164 A 
ATOM     23  N   LIG    1      -36.446  71.961  28.373  0.00  0.00    -0.232 NA
ATOM     24  C   LIG    1      -37.504  71.715  27.522  0.00  0.00    +0.135 A 
BRANCH  22  25
ATOM     25  N   LIG    1      -34.070  71.791  28.319  0.00  0.00    -0.279 N 
ATOM     26  H   LIG    1      -33.389  71.064  28.139  0.00  0.00    +0.155 HD
BRANCH  25  27
ATOM     27  C   LIG    1      -33.437  72.972  28.702  0.00  0.00    +0.126 A 
ATOM     28  N   LIG    1      -33.771  74.073  27.996  0.00  0.00    -0.225 NA
ATOM     29  C   LIG    1      -33.163  75.238  28.320  0.00  0.00    +0.108 A 
ATOM     30 BR   LIG    1      -33.704  76.799  27.385  0.00  0.00    -0.029 Br
ATOM     31  C   LIG    1      -32.184  75.357  29.292  0.00  0.00    +0.035 A 
ATOM     32  C   LIG    1      -31.834  74.218  30.000  0.00  0.00    +0.006 A 
ATOM     33  C   LIG    1      -32.482  73.020  29.714  0.00  0.00    +0.044 A 
ENDBRANCH  25  27
ENDBRANCH  22  25
ENDBRANCH  19  20
ENDBRANCH   6  19
TORSDOF 5
ENDMDL
MODEL 8
REMARK VINA RESULT:      -5.6      5.212      8.343
REMARK  Name = pdb/CHEMBL254050.pdb
REMARK                            x       y       z     vdW  Elec       q    Type
REMARK                         _______ _______ _______ _____ _____    ______ ____
ROOT
ATOM      1  C   LIG    1      -43.601  75.148  22.826  0.00  0.00    +0.041 A 
ATOM      2  C   LIG    1      -42.951  73.884  22.804  0.00  0.00    -0.038 A 
ATOM      3  C   LIG    1      -43.582  72.578  22.395  0.00  0.00    +0.044 C 
ATOM      4  C   LIG    1      -41.617  73.812  23.281  0.00  0.00    +0.005 A 
ATOM      5  C   LIG    1      -40.976  74.923  23.827  0.00  0.00    +0.015 A 
ATOM      6  C   LIG    1      -41.649  76.135  23.912  0.00  0.00    +0.014 A 
ATOM      7  C   LIG    1      -42.951  76.221  23.419  0.00  0.00    +0.028 A 
ENDROOT
BRANCH   1  14
ATOM      8  C   LIG    1      -47.864  75.056  17.300  0.00  0.00    +0.109 C 
ATOM      9  C   LIG    1      -46.412  75.458  17.242  0.00  0.00    +0.213 C 
ATOM     10  N   LIG    1      -45.958  76.260  18.292  0.00  0.00    -0.299 N 
ATOM     11  C   LIG    1      -44.552  76.124  18.668  0.00  0.00    +0.126 C 
ATOM     12  C   LIG    1      -44.438  75.081  19.804  0.00  0.00    +0.127 C 
ATOM     13  N   LIG    1      -45.301  75.434  20.958  0.00  0.00    -0.295 N 
ATOM     14  C   LIG    1      -45.041  75.325  22.356  0.00  0.00    +0.247 C 
ATOM     15  O   LIG    1      -45.922  75.418  23.200  0.00  0.00    -0.270 OA
ATOM     16  C   LIG    1      -46.717  75.687  20.570  0.00  0.00    +0.127 C 
ATOM     17  C   LIG    1      -46.800  76.702  19.412  0.00  0.00    +0.126 C 
ATOM     18  O   LIG    1      -45.671  75.052  16.348  0.00  0.00    -0.276 OA
ENDBRANCH   1  14
BRANCH   6  19
ATOM     19  S   LIG    1      -40.975  77.550  24.756  0.00  0.00    -0.081 S 
BRANCH  19  20
ATOM     20  C   LIG    1      -39.335  77.004  24.988  0.00  0.00    +0.071 A 
ATOM     21  S   LIG    1      -38.802  76.338  26.468  0.00  0.00    -0.045 S 
ATOM     22  C   LIG    1      -37.206  76.180  25.830  0.00  0.00    +0.164 A 
ATOM     23  N   LIG    1      -37.079  76.585  24.583  0.00  0.00    -0.232 NA
ATOM     24  C   LIG    1      -38.283  77.056  24.100  0.00  0.00    +0.135 A 
BRANCH  22  25
ATOM     25  N   LIG    1      -36.239  75.654  26.609  0.00  0.00    -0.279 N 
ATOM     26  H   LIG    1      -35.991  74.681  26.482  0.00  0.00    +0.155 HD
BRANCH  25  27
ATOM     27  C   LIG    1      -35.212  76.342  27.252  0.00  0.00    +0.126 A 
ATOM     28  N   LIG    1      -35.354  77.683  27.317  0.00  0.00    -0.225 NA
ATOM     29  C   LIG    1      -34.370  78.393  27.915  0.00  0.00    +0.108 A 
ATOM     30 BR   LIG    1      -34.618  80.267  28.083  0.00  0.00    -0.029 Br
ATOM     31  C   LIG    1      -33.204  77.834  28.414  0.00  0.00    +0.035 A 
ATOM     32  C   LIG    1      -33.058  76.459  28.327  0.00  0.00    +0.006 A 
ATOM     33  C   LIG    1      -34.081  75.706  27.759  0.00  0.00    +0.044 A 
ENDBRANCH  25  27
ENDBRANCH  22  25
ENDBRANCH  19  20
ENDBRANCH   6  19
TORSDOF 5
ENDMDL
MODEL 9
REMARK VINA RESULT:      -5.6      4.423      7.389
REMARK  Name = pdb/CHEMBL254050.pdb
REMARK                            x       y       z     vdW  Elec       q    Type
REMARK                         _______ _______ _______ _____ _____    ______ ____
ROOT
ATOM      1  C   LIG    1      -41.633  71.469  23.588  0.00  0.00    +0.041 A 
ATOM      2  C   LIG    1      -41.697  70.836  24.859  0.00  0.00    -0.038 A 
ATOM      3  C   LIG    1      -41.976  71.525  26.170  0.00  0.00    +0.044 C 
ATOM      4  C   LIG    1      -41.396  69.453  24.930  0.00  0.00    +0.005 A 
ATOM      5  C   LIG    1      -40.976  68.738  23.810  0.00  0.00    +0.015 A 
ATOM      6  C   LIG    1      -40.844  69.385  22.588  0.00  0.00    +0.014 A 
ATOM      7  C   LIG    1      -41.165  70.740  22.504  0.00  0.00    +0.028 A 
ENDROOT
BRANCH   1  14
ATOM      8  C   LIG    1      -38.872  77.877  23.771  0.00  0.00    +0.109 C 
ATOM      9  C   LIG    1      -38.405  76.730  24.631  0.00  0.00    +0.213 C 
ATOM     10  N   LIG    1      -39.411  75.928  25.178  0.00  0.00    -0.299 N 
ATOM     11  C   LIG    1      -39.083  74.523  25.410  0.00  0.00    +0.126 C 
ATOM     12  C   LIG    1      -39.508  73.700  24.170  0.00  0.00    +0.127 C 
ATOM     13  N   LIG    1      -40.942  73.901  23.847  0.00  0.00    -0.295 N 
ATOM     14  C   LIG    1      -41.917  72.958  23.410  0.00  0.00    +0.247 C 
ATOM     15  O   LIG    1      -42.996  73.293  22.944  0.00  0.00    -0.270 OA
ATOM     16  C   LIG    1      -41.313  75.339  23.720  0.00  0.00    +0.127 C 
ATOM     17  C   LIG    1      -40.847  76.141  24.951  0.00  0.00    +0.126 C 
ATOM     18  O   LIG    1      -37.208  76.493  24.788  0.00  0.00    -0.276 OA
ENDBRANCH   1  14
BRANCH   6  19
ATOM     19  S   LIG    1      -40.143  68.596  21.154  0.00  0.00    -0.081 S 
BRANCH  19  20
ATOM     20  C   LIG    1      -38.632  68.045  21.828  0.00  0.00    +0.071 A 
ATOM     21  S   LIG    1      -37.455  69.130  22.423  0.00  0.00    -0.045 S 
ATOM     22  C   LIG    1      -36.403  67.807  22.775  0.00  0.00    +0.164 A 
ATOM     23  N   LIG    1      -36.904  66.625  22.481  0.00  0.00    -0.232 NA
ATOM     24  C   LIG    1      -38.167  66.753  21.941  0.00  0.00    +0.135 A 
BRANCH  22  25
ATOM     25  N   LIG    1      -35.198  68.058  23.326  0.00  0.00    -0.279 N 
ATOM     26  H   LIG    1      -34.498  68.527  22.765  0.00  0.00    +0.155 HD
BRANCH  25  27
ATOM     27  C   LIG    1      -34.904  68.183  24.682  0.00  0.00    +0.126 A 
ATOM     28  N   LIG    1      -34.917  69.440  25.173  0.00  0.00    -0.225 NA
ATOM     29  C   LIG    1      -34.616  69.610  26.481  0.00  0.00    +0.108 A 
ATOM     30 BR   LIG    1      -34.725  71.369  27.186  0.00  0.00    -0.029 Br
ATOM     31  C   LIG    1      -34.246  68.580  27.331  0.00  0.00    +0.035 A 
ATOM     32  C   LIG    1      -34.218  67.295  26.815  0.00  0.00    +0.006 A 
ATOM     33  C   LIG    1      -34.570  67.094  25.483  0.00  0.00    +0.044 A 
ENDBRANCH  25  27
ENDBRANCH  22  25
ENDBRANCH  19  20
ENDBRANCH   6  19
TORSDOF 5
ENDMDL
