MODEL 1
REMARK VINA RESULT:      -7.9      0.000      0.000
REMARK  Name = pdb/CHEMBL2037213.pdb
REMARK                            x       y       z     vdW  Elec       q    Type
REMARK                         _______ _______ _______ _____ _____    ______ ____
ROOT
ATOM      1  C   LIG    1      -37.982  74.933  25.183  0.00  0.00    +0.035 A 
ATOM      2  C   LIG    1      -38.230  73.550  25.034  0.00  0.00    +0.046 A 
ATOM      3  C   LIG    1      -39.418  73.070  24.443  0.00  0.00    +0.033 A 
ATOM      4  C   LIG    1      -40.339  74.011  23.980  0.00  0.00    +0.023 A 
ATOM      5  C   LIG    1      -40.098  75.380  24.107  0.00  0.00    +0.004 A 
ATOM      6  C   LIG    1      -38.931  75.838  24.716  0.00  0.00    +0.023 A 
ENDROOT
BRANCH   1   8
ATOM      7  C   LIG    1      -36.595  75.644  27.156  0.00  0.00    +0.248 C 
ATOM      8  N   LIG    1      -36.780  75.338  25.812  0.00  0.00    -0.281 N 
ATOM      9  H   LIG    1      -35.987  75.445  25.196  0.00  0.00    +0.155 HD
ATOM     10  O   LIG    1      -37.451  75.650  28.033  0.00  0.00    -0.270 OA
BRANCH   7  15
ATOM     11  C   LIG    1      -33.115  75.401  28.714  0.00  0.00    +0.031 A 
ATOM     12  C   LIG    1      -32.585  76.619  28.250  0.00  0.00    +0.035 A 
ATOM     13  C   LIG    1      -33.328  77.535  27.474  0.00  0.00    +0.057 A 
ATOM     14  C   LIG    1      -34.642  77.225  27.127  0.00  0.00    +0.025 A 
ATOM     15  C   LIG    1      -35.203  76.022  27.545  0.00  0.00    +0.039 A 
ATOM     16  C   LIG    1      -34.436  75.124  28.312  0.00  0.00    +0.036 A 
BRANCH  11  20
ATOM     17  C   LIG    1      -32.337  74.602  32.364  0.00  0.00    +0.118 C 
ATOM     18  C   LIG    1      -33.498  73.989  31.579  0.00  0.00    +0.050 C 
ATOM     19  C   LIG    1      -33.010  73.427  30.243  0.00  0.00    +0.107 C 
ATOM     20  N   LIG    1      -32.354  74.505  29.473  0.00  0.00    -0.330 N 
ATOM     21  C   LIG    1      -31.129  74.956  30.162  0.00  0.00    +0.107 C 
ATOM     22  C   LIG    1      -31.493  75.563  31.520  0.00  0.00    +0.050 C 
BRANCH  17  23
ATOM     23  O   LIG    1      -31.513  73.544  32.855  0.00  0.00    -0.392 OA
ATOM     24  H   LIG    1      -30.852  73.344  32.170  0.00  0.00    +0.210 HD
ENDBRANCH  17  23
ENDBRANCH  11  20
BRANCH  13  25
ATOM     25  C   LIG    1      -32.710  78.829  27.011  0.00  0.00    +0.417 C 
ATOM     26  F   LIG    1      -32.298  78.785  25.718  0.00  0.00    -0.166 F 
ATOM     27  F   LIG    1      -31.623  79.178  27.752  0.00  0.00    -0.166 F 
ATOM     28  F   LIG    1      -33.564  79.891  27.093  0.00  0.00    -0.166 F 
ENDBRANCH  13  25
ENDBRANCH   7  15
ENDBRANCH   1   8
BRANCH   3  29
ATOM     29  N   LIG    1      -39.677  71.684  24.378  0.00  0.00    -0.314 N 
ATOM     30  H   LIG    1      -40.519  71.394  24.862  0.00  0.00    +0.152 HD
BRANCH  29  31
ATOM     31  C   LIG    1      -39.024  70.637  23.683  0.00  0.00    +0.033 A 
ATOM     32  C   LIG    1      -37.706  70.295  24.035  0.00  0.00    +0.047 A 
ATOM     33  C   LIG    1      -37.079  69.266  23.346  0.00  0.00    +0.043 A 
ATOM     34  N   LIG    1      -35.788  68.782  23.553  0.00  0.00    -0.281 N 
ATOM     35  H   LIG    1      -35.131  69.122  24.240  0.00  0.00    +0.155 HD
ATOM     36  C   LIG    1      -35.492  67.737  22.698  0.00  0.00    +0.249 C 
ATOM     37  O   LIG    1      -34.447  67.100  22.678  0.00  0.00    -0.270 OA
ATOM     38  C   LIG    1      -36.735  67.536  21.863  0.00  0.00    +0.048 C 
ATOM     39  C   LIG    1      -36.988  66.638  20.891  0.00  0.00    +0.039 C 
ATOM     40  C   LIG    1      -37.698  68.556  22.318  0.00  0.00    +0.008 A 
ATOM     41  C   LIG    1      -38.983  68.892  21.936  0.00  0.00    +0.012 A 
ATOM     42  C   LIG    1      -39.633  69.940  22.614  0.00  0.00    +0.024 A 
BRANCH  39  43
ATOM     43  C   LIG    1      -36.115  65.638  20.388  0.00  0.00    +0.040 A 
ATOM     44  N   LIG    1      -35.683  64.592  21.171  0.00  0.00    -0.361 N 
ATOM     45  H   LIG    1      -35.882  64.482  22.159  0.00  0.00    +0.165 HD
ATOM     46  C   LIG    1      -34.857  63.771  20.446  0.00  0.00    +0.083 A 
ATOM     47  C   LIG    1      -34.787  64.264  19.166  0.00  0.00    +0.019 A 
ATOM     48  C   LIG    1      -35.590  65.430  19.124  0.00  0.00    +0.027 A 
ENDBRANCH  39  43
ENDBRANCH  29  31
ENDBRANCH   3  29
TORSDOF 8
ENDMDL
MODEL 2
REMARK VINA RESULT:      -7.8      7.199     12.217
REMARK  Name = pdb/CHEMBL2037213.pdb
REMARK                            x       y       z     vdW  Elec       q    Type
REMARK                         _______ _______ _______ _____ _____    ______ ____
ROOT
ATOM      1  C   LIG    1      -27.879  76.664  32.720  0.00  0.00    +0.035 A 
ATOM      2  C   LIG    1      -28.549  75.964  31.693  0.00  0.00    +0.046 A 
ATOM      3  C   LIG    1      -29.948  75.782  31.712  0.00  0.00    +0.033 A 
ATOM      4  C   LIG    1      -30.662  76.343  32.772  0.00  0.00    +0.023 A 
ATOM      5  C   LIG    1      -30.011  77.051  33.784  0.00  0.00    +0.004 A 
ATOM      6  C   LIG    1      -28.627  77.200  33.764  0.00  0.00    +0.023 A 
ENDROOT
BRANCH   1   8
ATOM      7  C   LIG    1      -25.730  77.445  31.672  0.00  0.00    +0.248 C 
ATOM      8  N   LIG    1      -26.469  76.781  32.646  0.00  0.00    -0.281 N 
ATOM      9  H   LIG    1      -25.959  76.293  33.366  0.00  0.00    +0.155 HD
ATOM     10  O   LIG    1      -26.167  78.023  30.684  0.00  0.00    -0.270 OA
BRANCH   7  15
ATOM     11  C   LIG    1      -22.329  77.718  33.393  0.00  0.00    +0.031 A 
ATOM     12  C   LIG    1      -21.511  77.334  32.314  0.00  0.00    +0.035 A 
ATOM     13  C   LIG    1      -22.020  77.019  31.036  0.00  0.00    +0.057 A 
ATOM     14  C   LIG    1      -23.396  77.068  30.820  0.00  0.00    +0.025 A 
ATOM     15  C   LIG    1      -24.248  77.422  31.862  0.00  0.00    +0.039 A 
ATOM     16  C   LIG    1      -23.713  77.724  33.129  0.00  0.00    +0.036 A 
BRANCH  11  20
ATOM     17  C   LIG    1      -21.019  80.706  35.373  0.00  0.00    +0.118 C 
ATOM     18  C   LIG    1      -22.483  80.263  35.354  0.00  0.00    +0.050 C 
ATOM     19  C   LIG    1      -22.599  78.766  35.646  0.00  0.00    +0.107 C 
ATOM     20  N   LIG    1      -21.801  78.015  34.653  0.00  0.00    -0.330 N 
ATOM     21  C   LIG    1      -20.365  78.320  34.813  0.00  0.00    +0.107 C 
ATOM     22  C   LIG    1      -20.116  79.803  34.525  0.00  0.00    +0.050 C 
BRANCH  17  23
ATOM     23  O   LIG    1      -20.563  80.706  36.726  0.00  0.00    -0.392 OA
ATOM     24  H   LIG    1      -20.163  79.837  36.902  0.00  0.00    +0.210 HD
ENDBRANCH  17  23
ENDBRANCH  11  20
BRANCH  13  25
ATOM     25  C   LIG    1      -21.094  76.621  29.916  0.00  0.00    +0.417 C 
ATOM     26  F   LIG    1      -21.756  76.246  28.791  0.00  0.00    -0.166 F 
ATOM     27  F   LIG    1      -20.289  75.578  30.257  0.00  0.00    -0.166 F 
ATOM     28  F   LIG    1      -20.250  77.625  29.535  0.00  0.00    -0.166 F 
ENDBRANCH  13  25
ENDBRANCH   7  15
ENDBRANCH   1   8
BRANCH   3  29
ATOM     29  N   LIG    1      -30.585  75.011  30.715  0.00  0.00    -0.314 N 
ATOM     30  H   LIG    1      -30.187  74.088  30.583  0.00  0.00    +0.152 HD
BRANCH  29  31
ATOM     31  C   LIG    1      -31.737  75.258  29.929  0.00  0.00    +0.033 A 
ATOM     32  C   LIG    1      -32.178  76.582  29.750  0.00  0.00    +0.047 A 
ATOM     33  C   LIG    1      -33.307  76.808  28.975  0.00  0.00    +0.043 A 
ATOM     34  N   LIG    1      -33.888  78.041  28.680  0.00  0.00    -0.281 N 
ATOM     35  H   LIG    1      -33.561  78.941  28.996  0.00  0.00    +0.155 HD
ATOM     36  C   LIG    1      -34.996  77.899  27.865  0.00  0.00    +0.249 C 
ATOM     37  O   LIG    1      -35.681  78.812  27.422  0.00  0.00    -0.270 OA
ATOM     38  C   LIG    1      -35.125  76.415  27.614  0.00  0.00    +0.048 C 
ATOM     39  C   LIG    1      -36.023  75.737  26.873  0.00  0.00    +0.039 C 
ATOM     40  C   LIG    1      -34.026  75.781  28.367  0.00  0.00    +0.008 A 
ATOM     41  C   LIG    1      -33.628  74.470  28.549  0.00  0.00    +0.012 A 
ATOM     42  C   LIG    1      -32.492  74.217  29.341  0.00  0.00    +0.024 A 
BRANCH  39  43
ATOM     43  C   LIG    1      -37.112  76.270  26.134  0.00  0.00    +0.040 A 
ATOM     44  N   LIG    1      -38.045  77.099  26.712  0.00  0.00    -0.361 N 
ATOM     45  H   LIG    1      -38.082  77.339  27.697  0.00  0.00    +0.165 HD
ATOM     46  C   LIG    1      -38.982  77.473  25.784  0.00  0.00    +0.083 A 
ATOM     47  C   LIG    1      -38.630  76.918  24.578  0.00  0.00    +0.019 A 
ATOM     48  C   LIG    1      -37.444  76.172  24.793  0.00  0.00    +0.027 A 
ENDBRANCH  39  43
ENDBRANCH  29  31
ENDBRANCH   3  29
TORSDOF 8
ENDMDL
MODEL 3
REMARK VINA RESULT:      -7.7      2.746      4.474
REMARK  Name = pdb/CHEMBL2037213.pdb
REMARK                            x       y       z     vdW  Elec       q    Type
REMARK                         _______ _______ _______ _____ _____    ______ ____
ROOT
ATOM      1  C   LIG    1      -38.176  74.387  25.158  0.00  0.00    +0.035 A 
ATOM      2  C   LIG    1      -37.779  73.038  25.299  0.00  0.00    +0.046 A 
ATOM      3  C   LIG    1      -38.562  71.979  24.793  0.00  0.00    +0.033 A 
ATOM      4  C   LIG    1      -39.739  72.307  24.118  0.00  0.00    +0.023 A 
ATOM      5  C   LIG    1      -40.132  73.636  23.959  0.00  0.00    +0.004 A 
ATOM      6  C   LIG    1      -39.361  74.669  24.486  0.00  0.00    +0.023 A 
ENDROOT
BRANCH   1   8
ATOM      7  C   LIG    1      -37.193  75.696  27.066  0.00  0.00    +0.248 C 
ATOM      8  N   LIG    1      -37.351  75.393  25.718  0.00  0.00    -0.281 N 
ATOM      9  H   LIG    1      -36.859  75.967  25.050  0.00  0.00    +0.155 HD
ATOM     10  O   LIG    1      -37.764  75.166  28.012  0.00  0.00    -0.270 OA
BRANCH   7  15
ATOM     11  C   LIG    1      -35.894  79.124  28.145  0.00  0.00    +0.031 A 
ATOM     12  C   LIG    1      -34.514  78.880  28.021  0.00  0.00    +0.035 A 
ATOM     13  C   LIG    1      -33.987  77.651  27.569  0.00  0.00    +0.057 A 
ATOM     14  C   LIG    1      -34.860  76.615  27.243  0.00  0.00    +0.025 A 
ATOM     15  C   LIG    1      -36.234  76.801  27.369  0.00  0.00    +0.039 A 
ATOM     16  C   LIG    1      -36.731  78.036  27.830  0.00  0.00    +0.036 A 
BRANCH  11  20
ATOM     17  C   LIG    1      -37.361  82.373  26.782  0.00  0.00    +0.118 C 
ATOM     18  C   LIG    1      -38.192  81.141  27.144  0.00  0.00    +0.050 C 
ATOM     19  C   LIG    1      -37.838  80.643  28.546  0.00  0.00    +0.107 C 
ATOM     20  N   LIG    1      -36.390  80.348  28.605  0.00  0.00    -0.330 N 
ATOM     21  C   LIG    1      -35.607  81.587  28.437  0.00  0.00    +0.107 C 
ATOM     22  C   LIG    1      -35.865  82.178  27.047  0.00  0.00    +0.050 C 
BRANCH  17  23
ATOM     23  O   LIG    1      -37.843  83.483  27.540  0.00  0.00    -0.392 OA
ATOM     24  H   LIG    1      -38.442  83.993  26.968  0.00  0.00    +0.210 HD
ENDBRANCH  17  23
ENDBRANCH  11  20
BRANCH  13  25
ATOM     25  C   LIG    1      -32.498  77.450  27.449  0.00  0.00    +0.417 C 
ATOM     26  F   LIG    1      -32.065  76.325  28.075  0.00  0.00    -0.166 F 
ATOM     27  F   LIG    1      -31.792  78.485  27.980  0.00  0.00    -0.166 F 
ATOM     28  F   LIG    1      -32.073  77.344  26.155  0.00  0.00    -0.166 F 
ENDBRANCH  13  25
ENDBRANCH   7  15
ENDBRANCH   1   8
BRANCH   3  29
ATOM     29  N   LIG    1      -38.184  70.637  25.015  0.00  0.00    -0.314 N 
ATOM     30  H   LIG    1      -38.559  70.233  25.866  0.00  0.00    +0.152 HD
BRANCH  29  31
ATOM     31  C   LIG    1      -37.449  69.724  24.221  0.00  0.00    +0.033 A 
ATOM     32  C   LIG    1      -37.806  69.540  22.873  0.00  0.00    +0.047 A 
ATOM     33  C   LIG    1      -37.076  68.643  22.106  0.00  0.00    +0.043 A 
ATOM     34  N   LIG    1      -37.273  68.334  20.761  0.00  0.00    -0.281 N 
ATOM     35  H   LIG    1      -37.983  68.726  20.161  0.00  0.00    +0.155 HD
ATOM     36  C   LIG    1      -36.351  67.407  20.311  0.00  0.00    +0.249 C 
ATOM     37  O   LIG    1      -36.266  66.978  19.168  0.00  0.00    -0.270 OA
ATOM     38  C   LIG    1      -35.472  67.103  21.501  0.00  0.00    +0.048 C 
ATOM     39  C   LIG    1      -34.410  66.280  21.605  0.00  0.00    +0.039 C 
ATOM     40  C   LIG    1      -36.003  67.912  22.614  0.00  0.00    +0.008 A 
ATOM     41  C   LIG    1      -35.650  68.054  23.943  0.00  0.00    +0.012 A 
ATOM     42  C   LIG    1      -36.385  68.951  24.741  0.00  0.00    +0.024 A 
BRANCH  39  43
ATOM     43  C   LIG    1      -33.848  65.462  20.590  0.00  0.00    +0.040 A 
ATOM     44  N   LIG    1      -32.690  65.810  19.935  0.00  0.00    -0.361 N 
ATOM     45  H   LIG    1      -32.189  66.684  20.060  0.00  0.00    +0.165 HD
ATOM     46  C   LIG    1      -32.363  64.852  19.011  0.00  0.00    +0.083 A 
ATOM     47  C   LIG    1      -33.295  63.846  19.097  0.00  0.00    +0.019 A 
ATOM     48  C   LIG    1      -34.222  64.221  20.101  0.00  0.00    +0.027 A 
ENDBRANCH  39  43
ENDBRANCH  29  31
ENDBRANCH   3  29
TORSDOF 8
ENDMDL
MODEL 4
REMARK VINA RESULT:      -7.6      1.442      1.823
REMARK  Name = pdb/CHEMBL2037213.pdb
REMARK                            x       y       z     vdW  Elec       q    Type
REMARK                         _______ _______ _______ _____ _____    ______ ____
ROOT
ATOM      1  C   LIG    1      -38.023  75.144  25.196  0.00  0.00    +0.035 A 
ATOM      2  C   LIG    1      -38.334  73.770  25.079  0.00  0.00    +0.046 A 
ATOM      3  C   LIG    1      -39.539  73.331  24.493  0.00  0.00    +0.033 A 
ATOM      4  C   LIG    1      -40.414  74.302  24.003  0.00  0.00    +0.023 A 
ATOM      5  C   LIG    1      -40.110  75.661  24.098  0.00  0.00    +0.004 A 
ATOM      6  C   LIG    1      -38.927  76.079  24.702  0.00  0.00    +0.023 A 
ENDROOT
BRANCH   1   8
ATOM      7  C   LIG    1      -36.579  75.677  27.184  0.00  0.00    +0.248 C 
ATOM      8  N   LIG    1      -36.806  75.508  25.822  0.00  0.00    -0.281 N 
ATOM      9  H   LIG    1      -36.039  75.696  25.194  0.00  0.00    +0.155 HD
ATOM     10  O   LIG    1      -37.401  75.573  28.086  0.00  0.00    -0.270 OA
BRANCH   7  15
ATOM     11  C   LIG    1      -33.089  75.407  28.718  0.00  0.00    +0.031 A 
ATOM     12  C   LIG    1      -32.552  76.620  28.247  0.00  0.00    +0.035 A 
ATOM     13  C   LIG    1      -33.292  77.540  27.474  0.00  0.00    +0.057 A 
ATOM     14  C   LIG    1      -34.611  77.241  27.137  0.00  0.00    +0.025 A 
ATOM     15  C   LIG    1      -35.180  76.044  27.562  0.00  0.00    +0.039 A 
ATOM     16  C   LIG    1      -34.416  75.141  28.326  0.00  0.00    +0.036 A 
BRANCH  11  20
ATOM     17  C   LIG    1      -32.318  74.594  32.366  0.00  0.00    +0.118 C 
ATOM     18  C   LIG    1      -33.479  73.986  31.577  0.00  0.00    +0.050 C 
ATOM     19  C   LIG    1      -32.990  73.427  30.240  0.00  0.00    +0.107 C 
ATOM     20  N   LIG    1      -32.332  74.507  29.475  0.00  0.00    -0.330 N 
ATOM     21  C   LIG    1      -31.107  74.953  30.167  0.00  0.00    +0.107 C 
ATOM     22  C   LIG    1      -31.471  75.556  31.527  0.00  0.00    +0.050 C 
BRANCH  17  23
ATOM     23  O   LIG    1      -31.496  73.532  32.854  0.00  0.00    -0.392 OA
ATOM     24  H   LIG    1      -31.224  72.996  32.090  0.00  0.00    +0.210 HD
ENDBRANCH  17  23
ENDBRANCH  11  20
BRANCH  13  25
ATOM     25  C   LIG    1      -32.666  78.827  27.003  0.00  0.00    +0.417 C 
ATOM     26  F   LIG    1      -31.561  79.169  27.714  0.00  0.00    -0.166 F 
ATOM     27  F   LIG    1      -33.522  79.881  27.089  0.00  0.00    -0.166 F 
ATOM     28  F   LIG    1      -32.270  78.785  25.696  0.00  0.00    -0.166 F 
ENDBRANCH  13  25
ENDBRANCH   7  15
ENDBRANCH   1   8
BRANCH   3  29
ATOM     29  N   LIG    1      -39.862  71.957  24.460  0.00  0.00    -0.314 N 
ATOM     30  H   LIG    1      -40.644  71.697  25.051  0.00  0.00    +0.152 HD
BRANCH  29  31
ATOM     31  C   LIG    1      -39.350  70.890  23.683  0.00  0.00    +0.033 A 
ATOM     32  C   LIG    1      -40.208  70.206  22.802  0.00  0.00    +0.047 A 
ATOM     33  C   LIG    1      -39.692  69.163  22.046  0.00  0.00    +0.043 A 
ATOM     34  N   LIG    1      -40.378  68.377  21.121  0.00  0.00    -0.281 N 
ATOM     35  H   LIG    1      -41.354  68.464  20.879  0.00  0.00    +0.155 HD
ATOM     36  C   LIG    1      -39.550  67.437  20.537  0.00  0.00    +0.249 C 
ATOM     37  O   LIG    1      -39.874  66.637  19.668  0.00  0.00    -0.270 OA
ATOM     38  C   LIG    1      -38.190  67.658  21.156  0.00  0.00    +0.048 C 
ATOM     39  C   LIG    1      -37.022  67.026  20.929  0.00  0.00    +0.039 C 
ATOM     40  C   LIG    1      -38.359  68.761  22.121  0.00  0.00    +0.008 A 
ATOM     41  C   LIG    1      -37.503  69.400  22.998  0.00  0.00    +0.012 A 
ATOM     42  C   LIG    1      -38.009  70.453  23.783  0.00  0.00    +0.024 A 
BRANCH  39  43
ATOM     43  C   LIG    1      -36.781  65.952  20.031  0.00  0.00    +0.040 A 
ATOM     44  N   LIG    1      -37.351  64.713  20.211  0.00  0.00    -0.361 N 
ATOM     45  H   LIG    1      -37.915  64.441  21.009  0.00  0.00    +0.165 HD
ATOM     46  C   LIG    1      -36.961  63.864  19.208  0.00  0.00    +0.083 A 
ATOM     47  C   LIG    1      -36.165  64.572  18.340  0.00  0.00    +0.019 A 
ATOM     48  C   LIG    1      -36.063  65.890  18.848  0.00  0.00    +0.027 A 
ENDBRANCH  39  43
ENDBRANCH  29  31
ENDBRANCH   3  29
TORSDOF 8
ENDMDL
MODEL 5
REMARK VINA RESULT:      -7.5     16.310     19.323
REMARK  Name = pdb/CHEMBL2037213.pdb
REMARK                            x       y       z     vdW  Elec       q    Type
REMARK                         _______ _______ _______ _____ _____    ______ ____
ROOT
ATOM      1  C   LIG    1      -32.581  79.264  10.825  0.00  0.00    +0.035 A 
ATOM      2  C   LIG    1      -31.181  79.118  10.713  0.00  0.00    +0.046 A 
ATOM      3  C   LIG    1      -30.578  77.852  10.559  0.00  0.00    +0.033 A 
ATOM      4  C   LIG    1      -31.417  76.737  10.492  0.00  0.00    +0.023 A 
ATOM      5  C   LIG    1      -32.803  76.872  10.586  0.00  0.00    +0.004 A 
ATOM      6  C   LIG    1      -33.380  78.126  10.763  0.00  0.00    +0.023 A 
ENDROOT
BRANCH   1   8
ATOM      7  C   LIG    1      -33.548  81.440  10.019  0.00  0.00    +0.248 C 
ATOM      8  N   LIG    1      -33.110  80.565  11.007  0.00  0.00    -0.281 N 
ATOM      9  H   LIG    1      -33.130  80.892  11.962  0.00  0.00    +0.155 HD
ATOM     10  O   LIG    1      -33.526  81.254   8.808  0.00  0.00    -0.270 OA
BRANCH   7  15
ATOM     11  C   LIG    1      -36.043  84.075  11.218  0.00  0.00    +0.031 A 
ATOM     12  C   LIG    1      -35.141  85.122  11.482  0.00  0.00    +0.035 A 
ATOM     13  C   LIG    1      -33.752  85.016  11.255  0.00  0.00    +0.057 A 
ATOM     14  C   LIG    1      -33.231  83.820  10.764  0.00  0.00    +0.025 A 
ATOM     15  C   LIG    1      -34.081  82.748  10.507  0.00  0.00    +0.039 A 
ATOM     16  C   LIG    1      -35.462  82.879  10.751  0.00  0.00    +0.036 A 
BRANCH  11  20
ATOM     17  C   LIG    1      -39.035  86.129  10.038  0.00  0.00    +0.118 C 
ATOM     18  C   LIG    1      -38.593  84.811   9.400  0.00  0.00    +0.050 C 
ATOM     19  C   LIG    1      -38.402  83.731  10.466  0.00  0.00    +0.107 C 
ATOM     20  N   LIG    1      -37.415  84.201  11.461  0.00  0.00    -0.330 N 
ATOM     21  C   LIG    1      -37.943  85.367  12.197  0.00  0.00    +0.107 C 
ATOM     22  C   LIG    1      -38.160  86.534  11.229  0.00  0.00    +0.050 C 
BRANCH  17  23
ATOM     23  O   LIG    1      -40.392  85.993  10.464  0.00  0.00    -0.392 OA
ATOM     24  H   LIG    1      -40.914  85.704   9.696  0.00  0.00    +0.210 HD
ENDBRANCH  17  23
ENDBRANCH  11  20
BRANCH  13  25
ATOM     25  C   LIG    1      -32.834  86.174  11.549  0.00  0.00    +0.417 C 
ATOM     26  F   LIG    1      -32.520  86.895  10.442  0.00  0.00    -0.166 F 
ATOM     27  F   LIG    1      -31.655  85.774  12.098  0.00  0.00    -0.166 F 
ATOM     28  F   LIG    1      -33.365  87.067  12.436  0.00  0.00    -0.166 F 
ENDBRANCH  13  25
ENDBRANCH   7  15
ENDBRANCH   1   8
BRANCH   3  29
ATOM     29  N   LIG    1      -29.173  77.724  10.529  0.00  0.00    -0.314 N 
ATOM     30  H   LIG    1      -28.819  77.180   9.750  0.00  0.00    +0.152 HD
BRANCH  29  31
ATOM     31  C   LIG    1      -28.160  78.294  11.338  0.00  0.00    +0.033 A 
ATOM     32  C   LIG    1      -27.985  77.826  12.653  0.00  0.00    +0.047 A 
ATOM     33  C   LIG    1      -26.987  78.392  13.434  0.00  0.00    +0.043 A 
ATOM     34  N   LIG    1      -26.660  78.060  14.748  0.00  0.00    -0.281 N 
ATOM     35  H   LIG    1      -27.113  77.356  15.312  0.00  0.00    +0.155 HD
ATOM     36  C   LIG    1      -25.600  78.815  15.215  0.00  0.00    +0.249 C 
ATOM     37  O   LIG    1      -25.080  78.714  16.320  0.00  0.00    -0.270 OA
ATOM     38  C   LIG    1      -25.212  79.718  14.069  0.00  0.00    +0.048 C 
ATOM     39  C   LIG    1      -24.231  80.638  13.985  0.00  0.00    +0.039 C 
ATOM     40  C   LIG    1      -26.150  79.407  12.973  0.00  0.00    +0.008 A 
ATOM     41  C   LIG    1      -26.319  79.902  11.694  0.00  0.00    +0.012 A 
ATOM     42  C   LIG    1      -27.333  79.349  10.889  0.00  0.00    +0.024 A 
BRANCH  39  43
ATOM     43  C   LIG    1      -23.301  81.004  14.993  0.00  0.00    +0.040 A 
ATOM     44  N   LIG    1      -22.395  80.104  15.506  0.00  0.00    -0.361 N 
ATOM     45  H   LIG    1      -22.357  79.117  15.273  0.00  0.00    +0.165 HD
ATOM     46  C   LIG    1      -21.615  80.710  16.456  0.00  0.00    +0.083 A 
ATOM     47  C   LIG    1      -21.987  82.031  16.531  0.00  0.00    +0.019 A 
ATOM     48  C   LIG    1      -23.037  82.220  15.600  0.00  0.00    +0.027 A 
ENDBRANCH  39  43
ENDBRANCH  29  31
ENDBRANCH   3  29
TORSDOF 8
ENDMDL
MODEL 6
REMARK VINA RESULT:      -7.3      7.887     12.207
REMARK  Name = pdb/CHEMBL2037213.pdb
REMARK                            x       y       z     vdW  Elec       q    Type
REMARK                         _______ _______ _______ _____ _____    ______ ____
ROOT
ATOM      1  C   LIG    1      -26.963  76.492  32.769  0.00  0.00    +0.035 A 
ATOM      2  C   LIG    1      -27.858  76.707  31.697  0.00  0.00    +0.046 A 
ATOM      3  C   LIG    1      -29.235  76.422  31.813  0.00  0.00    +0.033 A 
ATOM      4  C   LIG    1      -29.697  75.942  33.040  0.00  0.00    +0.023 A 
ATOM      5  C   LIG    1      -28.825  75.741  34.110  0.00  0.00    +0.004 A 
ATOM      6  C   LIG    1      -27.465  76.004  33.972  0.00  0.00    +0.023 A 
ENDROOT
BRANCH   1   8
ATOM      7  C   LIG    1      -24.844  77.787  33.161  0.00  0.00    +0.248 C 
ATOM      8  N   LIG    1      -25.590  76.775  32.567  0.00  0.00    -0.281 N 
ATOM      9  H   LIG    1      -25.126  76.190  31.888  0.00  0.00    +0.155 HD
ATOM     10  O   LIG    1      -25.250  78.639  33.944  0.00  0.00    -0.270 OA
BRANCH   7  15
ATOM     11  C   LIG    1      -21.119  78.628  33.301  0.00  0.00    +0.031 A 
ATOM     12  C   LIG    1      -20.694  77.912  32.166  0.00  0.00    +0.035 A 
ATOM     13  C   LIG    1      -21.578  77.190  31.335  0.00  0.00    +0.057 A 
ATOM     14  C   LIG    1      -22.936  77.159  31.650  0.00  0.00    +0.025 A 
ATOM     15  C   LIG    1      -23.401  77.835  32.775  0.00  0.00    +0.039 A 
ATOM     16  C   LIG    1      -22.495  78.540  33.590  0.00  0.00    +0.036 A 
BRANCH  11  20
ATOM     17  C   LIG    1      -19.702  78.519  36.843  0.00  0.00    +0.118 C 
ATOM     18  C   LIG    1      -19.087  77.788  35.648  0.00  0.00    +0.050 C 
ATOM     19  C   LIG    1      -18.910  78.740  34.464  0.00  0.00    +0.107 C 
ATOM     20  N   LIG    1      -20.221  79.326  34.113  0.00  0.00    -0.330 N 
ATOM     21  C   LIG    1      -20.711  80.181  35.213  0.00  0.00    +0.107 C 
ATOM     22  C   LIG    1      -20.947  79.329  36.464  0.00  0.00    +0.050 C 
BRANCH  17  23
ATOM     23  O   LIG    1      -18.715  79.388  37.400  0.00  0.00    -0.392 OA
ATOM     24  H   LIG    1      -18.442  80.009  36.702  0.00  0.00    +0.210 HD
ENDBRANCH  17  23
ENDBRANCH  11  20
BRANCH  13  25
ATOM     25  C   LIG    1      -21.067  76.449  30.128  0.00  0.00    +0.417 C 
ATOM     26  F   LIG    1      -20.247  75.415  30.451  0.00  0.00    -0.166 F 
ATOM     27  F   LIG    1      -20.362  77.253  29.286  0.00  0.00    -0.166 F 
ATOM     28  F   LIG    1      -22.064  75.909  29.367  0.00  0.00    -0.166 F 
ENDBRANCH  13  25
ENDBRANCH   7  15
ENDBRANCH   1   8
BRANCH   3  29
ATOM     29  N   LIG    1      -30.094  76.571  30.703  0.00  0.00    -0.314 N 
ATOM     30  H   LIG    1      -29.958  77.430  30.182  0.00  0.00    +0.152 HD
BRANCH  29  31
ATOM     31  C   LIG    1      -31.051  75.697  30.132  0.00  0.00    +0.033 A 
ATOM     32  C   LIG    1      -32.272  76.221  29.669  0.00  0.00    +0.047 A 
ATOM     33  C   LIG    1      -33.200  75.354  29.110  0.00  0.00    +0.043 A 
ATOM     34  N   LIG    1      -34.453  75.683  28.594  0.00  0.00    -0.281 N 
ATOM     35  H   LIG    1      -34.855  76.608  28.560  0.00  0.00    +0.155 HD
ATOM     36  C   LIG    1      -35.109  74.571  28.101  0.00  0.00    +0.249 C 
ATOM     37  O   LIG    1      -36.208  74.568  27.561  0.00  0.00    -0.270 OA
ATOM     38  C   LIG    1      -34.165  73.413  28.325  0.00  0.00    +0.048 C 
ATOM     39  C   LIG    1      -34.304  72.110  28.013  0.00  0.00    +0.039 C 
ATOM     40  C   LIG    1      -32.976  73.983  28.988  0.00  0.00    +0.008 A 
ATOM     41  C   LIG    1      -31.796  73.440  29.459  0.00  0.00    +0.012 A 
ATOM     42  C   LIG    1      -30.846  74.301  30.041  0.00  0.00    +0.024 A 
BRANCH  39  43
ATOM     43  C   LIG    1      -35.416  71.484  27.390  0.00  0.00    +0.040 A 
ATOM     44  N   LIG    1      -35.713  71.688  26.063  0.00  0.00    -0.361 N 
ATOM     45  H   LIG    1      -35.229  72.334  25.448  0.00  0.00    +0.165 HD
ATOM     46  C   LIG    1      -36.826  70.968  25.713  0.00  0.00    +0.083 A 
ATOM     47  C   LIG    1      -37.231  70.252  26.814  0.00  0.00    +0.019 A 
ATOM     48  C   LIG    1      -36.335  70.564  27.866  0.00  0.00    +0.027 A 
ENDBRANCH  39  43
ENDBRANCH  29  31
ENDBRANCH   3  29
TORSDOF 8
ENDMDL
MODEL 7
REMARK VINA RESULT:      -7.3     13.706     18.294
REMARK  Name = pdb/CHEMBL2037213.pdb
REMARK                            x       y       z     vdW  Elec       q    Type
REMARK                         _______ _______ _______ _____ _____    ______ ____
ROOT
ATOM      1  C   LIG    1      -22.920  72.165  17.609  0.00  0.00    +0.035 A 
ATOM      2  C   LIG    1      -22.678  73.049  16.534  0.00  0.00    +0.046 A 
ATOM      3  C   LIG    1      -21.485  73.798  16.445  0.00  0.00    +0.033 A 
ATOM      4  C   LIG    1      -20.530  73.618  17.447  0.00  0.00    +0.023 A 
ATOM      5  C   LIG    1      -20.751  72.736  18.505  0.00  0.00    +0.004 A 
ATOM      6  C   LIG    1      -21.944  72.023  18.591  0.00  0.00    +0.023 A 
ENDROOT
BRANCH   1   8
ATOM      7  C   LIG    1      -24.492  70.323  16.933  0.00  0.00    +0.248 C 
ATOM      8  N   LIG    1      -24.153  71.469  17.644  0.00  0.00    -0.281 N 
ATOM      9  H   LIG    1      -24.864  71.884  18.226  0.00  0.00    +0.155 HD
ATOM     10  O   LIG    1      -23.793  69.726  16.122  0.00  0.00    -0.270 OA
BRANCH   7  15
ATOM     11  C   LIG    1      -27.335  67.816  17.419  0.00  0.00    +0.031 A 
ATOM     12  C   LIG    1      -28.371  68.721  17.716  0.00  0.00    +0.035 A 
ATOM     13  C   LIG    1      -28.190  70.121  17.733  0.00  0.00    +0.057 A 
ATOM     14  C   LIG    1      -26.927  70.647  17.465  0.00  0.00    +0.025 A 
ATOM     15  C   LIG    1      -25.865  69.791  17.186  0.00  0.00    +0.039 A 
ATOM     16  C   LIG    1      -26.074  68.398  17.183  0.00  0.00    +0.036 A 
BRANCH  11  20
ATOM     17  C   LIG    1      -27.056  64.829  19.778  0.00  0.00    +0.118 C 
ATOM     18  C   LIG    1      -28.313  65.686  19.621  0.00  0.00    +0.050 C 
ATOM     19  C   LIG    1      -28.682  65.840  18.145  0.00  0.00    +0.107 C 
ATOM     20  N   LIG    1      -27.538  66.433  17.419  0.00  0.00    -0.330 N 
ATOM     21  C   LIG    1      -26.391  65.504  17.425  0.00  0.00    +0.107 C 
ATOM     22  C   LIG    1      -25.913  65.282  18.863  0.00  0.00    +0.050 C 
BRANCH  17  23
ATOM     23  O   LIG    1      -27.393  63.472  19.489  0.00  0.00    -0.392 OA
ATOM     24  H   LIG    1      -26.565  62.996  19.303  0.00  0.00    +0.210 HD
ENDBRANCH  17  23
ENDBRANCH  11  20
BRANCH  13  25
ATOM     25  C   LIG    1      -29.339  71.042  18.051  0.00  0.00    +0.417 C 
ATOM     26  F   LIG    1      -28.940  72.207  18.622  0.00  0.00    -0.166 F 
ATOM     27  F   LIG    1      -30.233  70.477  18.907  0.00  0.00    -0.166 F 
ATOM     28  F   LIG    1      -30.063  71.396  16.948  0.00  0.00    -0.166 F 
ENDBRANCH  13  25
ENDBRANCH   7  15
ENDBRANCH   1   8
BRANCH   3  29
ATOM     29  N   LIG    1      -21.301  74.733  15.404  0.00  0.00    -0.314 N 
ATOM     30  H   LIG    1      -21.095  74.318  14.502  0.00  0.00    +0.152 HD
BRANCH  29  31
ATOM     31  C   LIG    1      -21.441  76.142  15.370  0.00  0.00    +0.033 A 
ATOM     32  C   LIG    1      -22.721  76.704  15.214  0.00  0.00    +0.047 A 
ATOM     33  C   LIG    1      -22.843  78.086  15.184  0.00  0.00    +0.043 A 
ATOM     34  N   LIG    1      -24.018  78.822  15.045  0.00  0.00    -0.281 N 
ATOM     35  H   LIG    1      -24.948  78.441  14.946  0.00  0.00    +0.155 HD
ATOM     36  C   LIG    1      -23.774  80.182  15.072  0.00  0.00    +0.249 C 
ATOM     37  O   LIG    1      -24.620  81.065  15.006  0.00  0.00    -0.270 OA
ATOM     38  C   LIG    1      -22.280  80.320  15.254  0.00  0.00    +0.048 C 
ATOM     39  C   LIG    1      -21.520  81.427  15.362  0.00  0.00    +0.039 C 
ATOM     40  C   LIG    1      -21.750  78.944  15.299  0.00  0.00    +0.008 A 
ATOM     41  C   LIG    1      -20.479  78.416  15.426  0.00  0.00    +0.012 A 
ATOM     42  C   LIG    1      -20.332  77.016  15.447  0.00  0.00    +0.024 A 
BRANCH  39  43
ATOM     43  C   LIG    1      -21.950  82.779  15.315  0.00  0.00    +0.040 A 
ATOM     44  N   LIG    1      -22.256  83.483  16.457  0.00  0.00    -0.361 N 
ATOM     45  H   LIG    1      -22.273  83.096  17.395  0.00  0.00    +0.165 HD
ATOM     46  C   LIG    1      -22.638  84.760  16.135  0.00  0.00    +0.083 A 
ATOM     47  C   LIG    1      -22.535  84.903  14.773  0.00  0.00    +0.019 A 
ATOM     48  C   LIG    1      -22.088  83.661  14.257  0.00  0.00    +0.027 A 
ENDBRANCH  39  43
ENDBRANCH  29  31
ENDBRANCH   3  29
TORSDOF 8
ENDMDL
MODEL 8
REMARK VINA RESULT:      -7.2      2.877      4.313
REMARK  Name = pdb/CHEMBL2037213.pdb
REMARK                            x       y       z     vdW  Elec       q    Type
REMARK                         _______ _______ _______ _____ _____    ______ ____
ROOT
ATOM      1  C   LIG    1      -39.452  74.384  24.627  0.00  0.00    +0.035 A 
ATOM      2  C   LIG    1      -39.256  72.987  24.553  0.00  0.00    +0.046 A 
ATOM      3  C   LIG    1      -40.176  72.144  23.895  0.00  0.00    +0.033 A 
ATOM      4  C   LIG    1      -41.284  72.739  23.290  0.00  0.00    +0.023 A 
ATOM      5  C   LIG    1      -41.480  74.120  23.343  0.00  0.00    +0.004 A 
ATOM      6  C   LIG    1      -40.576  74.936  24.017  0.00  0.00    +0.023 A 
ENDROOT
BRANCH   1   8
ATOM      7  C   LIG    1      -38.752  76.216  26.201  0.00  0.00    +0.248 C 
ATOM      8  N   LIG    1      -38.500  75.162  25.329  0.00  0.00    -0.281 N 
ATOM      9  H   LIG    1      -37.535  74.936  25.137  0.00  0.00    +0.155 HD
ATOM     10  O   LIG    1      -39.847  76.682  26.494  0.00  0.00    -0.270 OA
BRANCH   7  15
ATOM     11  C   LIG    1      -36.570  78.777  28.012  0.00  0.00    +0.031 A 
ATOM     12  C   LIG    1      -35.368  78.047  28.051  0.00  0.00    +0.035 A 
ATOM     13  C   LIG    1      -35.229  76.762  27.482  0.00  0.00    +0.057 A 
ATOM     14  C   LIG    1      -36.328  76.168  26.866  0.00  0.00    +0.025 A 
ATOM     15  C   LIG    1      -37.545  76.843  26.819  0.00  0.00    +0.039 A 
ATOM     16  C   LIG    1      -37.657  78.120  27.403  0.00  0.00    +0.036 A 
BRANCH  11  20
ATOM     17  C   LIG    1      -36.651  82.454  26.992  0.00  0.00    +0.118 C 
ATOM     18  C   LIG    1      -37.890  81.563  27.092  0.00  0.00    +0.050 C 
ATOM     19  C   LIG    1      -37.925  80.834  28.436  0.00  0.00    +0.107 C 
ATOM     20  N   LIG    1      -36.685  80.044  28.593  0.00  0.00    -0.330 N 
ATOM     21  C   LIG    1      -35.515  80.939  28.680  0.00  0.00    +0.107 C 
ATOM     22  C   LIG    1      -35.361  81.719  27.371  0.00  0.00    +0.050 C 
BRANCH  17  23
ATOM     23  O   LIG    1      -36.832  83.580  27.852  0.00  0.00    -0.392 OA
ATOM     24  H   LIG    1      -36.515  83.329  28.737  0.00  0.00    +0.210 HD
ENDBRANCH  17  23
ENDBRANCH  11  20
BRANCH  13  25
ATOM     25  C   LIG    1      -33.914  76.030  27.549  0.00  0.00    +0.417 C 
ATOM     26  F   LIG    1      -34.056  74.681  27.481  0.00  0.00    -0.166 F 
ATOM     27  F   LIG    1      -33.234  76.290  28.698  0.00  0.00    -0.166 F 
ATOM     28  F   LIG    1      -33.061  76.366  26.536  0.00  0.00    -0.166 F 
ENDBRANCH  13  25
ENDBRANCH   7  15
ENDBRANCH   1   8
BRANCH   3  29
ATOM     29  N   LIG    1      -39.999  70.744  23.903  0.00  0.00    -0.314 N 
ATOM     30  H   LIG    1      -40.654  70.243  24.493  0.00  0.00    +0.152 HD
BRANCH  29  31
ATOM     31  C   LIG    1      -39.129  69.902  23.168  0.00  0.00    +0.033 A 
ATOM     32  C   LIG    1      -37.860  69.596  23.692  0.00  0.00    +0.047 A 
ATOM     33  C   LIG    1      -37.019  68.769  22.961  0.00  0.00    +0.043 A 
ATOM     34  N   LIG    1      -35.737  68.351  23.316  0.00  0.00    -0.281 N 
ATOM     35  H   LIG    1      -35.246  68.599  24.162  0.00  0.00    +0.155 HD
ATOM     36  C   LIG    1      -35.190  67.516  22.359  0.00  0.00    +0.249 C 
ATOM     37  O   LIG    1      -34.094  66.974  22.422  0.00  0.00    -0.270 OA
ATOM     38  C   LIG    1      -36.245  67.389  21.285  0.00  0.00    +0.048 C 
ATOM     39  C   LIG    1      -36.233  66.681  20.139  0.00  0.00    +0.039 C 
ATOM     40  C   LIG    1      -37.375  68.228  21.727  0.00  0.00    +0.008 A 
ATOM     41  C   LIG    1      -38.606  68.536  21.178  0.00  0.00    +0.012 A 
ATOM     42  C   LIG    1      -39.470  69.383  21.898  0.00  0.00    +0.024 A 
BRANCH  39  43
ATOM     43  C   LIG    1      -35.185  65.864  19.639  0.00  0.00    +0.040 A 
ATOM     44  N   LIG    1      -35.068  64.538  19.987  0.00  0.00    -0.361 N 
ATOM     45  H   LIG    1      -35.654  64.059  20.662  0.00  0.00    +0.165 HD
ATOM     46  C   LIG    1      -33.980  63.981  19.366  0.00  0.00    +0.083 A 
ATOM     47  C   LIG    1      -33.408  64.944  18.570  0.00  0.00    +0.019 A 
ATOM     48  C   LIG    1      -34.174  66.125  18.729  0.00  0.00    +0.027 A 
ENDBRANCH  39  43
ENDBRANCH  29  31
ENDBRANCH   3  29
TORSDOF 8
ENDMDL
MODEL 9
REMARK VINA RESULT:      -7.2      5.070     10.419
REMARK  Name = pdb/CHEMBL2037213.pdb
REMARK                            x       y       z     vdW  Elec       q    Type
REMARK                         _______ _______ _______ _____ _____    ______ ____
ROOT
ATOM      1  C   LIG    1      -37.920  75.289  25.250  0.00  0.00    +0.035 A 
ATOM      2  C   LIG    1      -38.820  76.316  24.885  0.00  0.00    +0.046 A 
ATOM      3  C   LIG    1      -40.037  76.035  24.228  0.00  0.00    +0.033 A 
ATOM      4  C   LIG    1      -40.341  74.698  23.969  0.00  0.00    +0.023 A 
ATOM      5  C   LIG    1      -39.467  73.675  24.338  0.00  0.00    +0.004 A 
ATOM      6  C   LIG    1      -38.259  73.970  24.964  0.00  0.00    +0.023 A 
ENDROOT
BRANCH   1   8
ATOM      7  C   LIG    1      -36.402  75.558  27.235  0.00  0.00    +0.248 C 
ATOM      8  N   LIG    1      -36.706  75.652  25.881  0.00  0.00    -0.281 N 
ATOM      9  H   LIG    1      -36.008  76.053  25.273  0.00  0.00    +0.155 HD
ATOM     10  O   LIG    1      -37.144  75.174  28.131  0.00  0.00    -0.270 OA
BRANCH   7  15
ATOM     11  C   LIG    1      -32.925  75.487  28.820  0.00  0.00    +0.031 A 
ATOM     12  C   LIG    1      -32.432  76.703  28.313  0.00  0.00    +0.035 A 
ATOM     13  C   LIG    1      -33.199  77.565  27.499  0.00  0.00    +0.057 A 
ATOM     14  C   LIG    1      -34.499  77.200  27.157  0.00  0.00    +0.025 A 
ATOM     15  C   LIG    1      -35.025  75.996  27.617  0.00  0.00    +0.039 A 
ATOM     16  C   LIG    1      -34.234  75.152  28.422  0.00  0.00    +0.036 A 
BRANCH  11  20
ATOM     17  C   LIG    1      -32.127  74.871  32.501  0.00  0.00    +0.118 C 
ATOM     18  C   LIG    1      -33.271  74.194  31.745  0.00  0.00    +0.050 C 
ATOM     19  C   LIG    1      -32.768  73.586  30.435  0.00  0.00    +0.107 C 
ATOM     20  N   LIG    1      -32.142  74.646  29.617  0.00  0.00    -0.330 N 
ATOM     21  C   LIG    1      -30.929  75.158  30.284  0.00  0.00    +0.107 C 
ATOM     22  C   LIG    1      -31.308  75.815  31.614  0.00  0.00    +0.050 C 
BRANCH  17  23
ATOM     23  O   LIG    1      -31.275  73.858  33.037  0.00  0.00    -0.392 OA
ATOM     24  H   LIG    1      -31.126  74.064  33.976  0.00  0.00    +0.210 HD
ENDBRANCH  17  23
ENDBRANCH  11  20
BRANCH  13  25
ATOM     25  C   LIG    1      -32.620  78.859  26.990  0.00  0.00    +0.417 C 
ATOM     26  F   LIG    1      -33.494  79.896  27.068  0.00  0.00    -0.166 F 
ATOM     27  F   LIG    1      -32.232  78.777  25.689  0.00  0.00    -0.166 F 
ATOM     28  F   LIG    1      -31.509  79.257  27.678  0.00  0.00    -0.166 F 
ENDBRANCH  13  25
ENDBRANCH   7  15
ENDBRANCH   1   8
BRANCH   3  29
ATOM     29  N   LIG    1      -40.882  77.084  23.804  0.00  0.00    -0.314 N 
ATOM     30  H   LIG    1      -41.700  76.779  23.290  0.00  0.00    +0.152 HD
BRANCH  29  31
ATOM     31  C   LIG    1      -40.842  78.479  24.045  0.00  0.00    +0.033 A 
ATOM     32  C   LIG    1      -39.867  79.261  23.399  0.00  0.00    +0.047 A 
ATOM     33  C   LIG    1      -39.841  80.627  23.643  0.00  0.00    +0.043 A 
ATOM     34  N   LIG    1      -38.961  81.561  23.095  0.00  0.00    -0.281 N 
ATOM     35  H   LIG    1      -38.218  81.362  22.442  0.00  0.00    +0.155 HD
ATOM     36  C   LIG    1      -39.231  82.839  23.546  0.00  0.00    +0.249 C 
ATOM     37  O   LIG    1      -38.642  83.858  23.207  0.00  0.00    -0.270 OA
ATOM     38  C   LIG    1      -40.414  82.699  24.475  0.00  0.00    +0.048 C 
ATOM     39  C   LIG    1      -41.087  83.638  25.167  0.00  0.00    +0.039 C 
ATOM     40  C   LIG    1      -40.737  81.260  24.502  0.00  0.00    +0.008 A 
ATOM     41  C   LIG    1      -41.687  80.509  25.169  0.00  0.00    +0.012 A 
ATOM     42  C   LIG    1      -41.723  79.120  24.945  0.00  0.00    +0.024 A 
BRANCH  39  43
ATOM     43  C   LIG    1      -40.831  85.034  25.204  0.00  0.00    +0.040 A 
ATOM     44  N   LIG    1      -40.999  85.833  24.096  0.00  0.00    -0.361 N 
ATOM     45  H   LIG    1      -41.241  85.500  23.169  0.00  0.00    +0.165 HD
ATOM     46  C   LIG    1      -40.690  87.133  24.401  0.00  0.00    +0.083 A 
ATOM     47  C   LIG    1      -40.362  87.189  25.734  0.00  0.00    +0.019 A 
ATOM     48  C   LIG    1      -40.465  85.872  26.244  0.00  0.00    +0.027 A 
ENDBRANCH  39  43
ENDBRANCH  29  31
ENDBRANCH   3  29
TORSDOF 8
ENDMDL
