MODEL 1
REMARK VINA RESULT:      -6.3      0.000      0.000
REMARK  Name = pdb/CHEMBL3671132.pdb
REMARK                            x       y       z     vdW  Elec       q    Type
REMARK                         _______ _______ _______ _____ _____    ______ ____
ROOT
ATOM      1  C   LIG    1      -21.010  78.958  34.040  0.00  0.00    +0.126 A 
ATOM      2  N   LIG    1      -21.390  78.463  32.880  0.00  0.00    -0.212 NA
ATOM      3  C   LIG    1      -20.432  77.940  32.050  0.00  0.00    +0.170 A 
ATOM      4  C   LIG    1      -20.518  77.343  30.803  0.00  0.00    +0.100 A 
ATOM      5  C   LIG    1      -19.179  77.058  30.464  0.00  0.00    +0.150 A 
ATOM      6  N   LIG    1      -18.309  77.407  31.412  0.00  0.00    -0.173 NA
ATOM      7  N   LIG    1      -19.079  77.944  32.386  0.00  0.00    -0.221 N 
ATOM      8  C   LIG    1      -18.664  78.469  33.597  0.00  0.00    +0.118 A 
ATOM      9  C   LIG    1      -19.556  78.975  34.455  0.00  0.00    +0.063 A 
ENDROOT
BRANCH   1  11
ATOM     10  C   LIG    1      -22.036  79.266  36.329  0.00  0.00    +0.108 C 
ATOM     11  N   LIG    1      -21.972  79.494  34.881  0.00  0.00    -0.308 N 
ATOM     12  C   LIG    1      -23.244  80.027  34.386  0.00  0.00    +0.107 C 
ATOM     13  C   LIG    1      -24.226  79.907  35.546  0.00  0.00    +0.021 C 
ATOM     14  C   LIG    1      -23.531  78.998  36.546  0.00  0.00    +0.029 C 
BRANCH  10  18
ATOM     15  F   LIG    1      -20.393  83.896  36.728  0.00  0.00    -0.205 F 
ATOM     16  C   LIG    1      -20.650  82.716  37.305  0.00  0.00    +0.124 A 
ATOM     17  C   LIG    1      -21.197  81.687  36.542  0.00  0.00    +0.046 A 
ATOM     18  C   LIG    1      -21.479  80.437  37.121  0.00  0.00    +0.011 A 
ATOM     19  C   LIG    1      -21.162  80.269  38.478  0.00  0.00    +0.129 A 
ATOM     20  F   LIG    1      -21.369  79.084  39.068  0.00  0.00    -0.205 F 
ATOM     21  C   LIG    1      -20.617  81.303  39.242  0.00  0.00    +0.041 A 
ATOM     22  C   LIG    1      -20.360  82.536  38.652  0.00  0.00    +0.041 A 
ENDBRANCH  10  18
ENDBRANCH   1  11
BRANCH   4  23
ATOM     23  C   LIG    1      -21.702  77.071  30.018  0.00  0.00    +0.249 C 
ATOM     24  N   LIG    1      -22.877  77.524  30.568  0.00  0.00    -0.310 N 
ATOM     25  H   LIG    1      -22.804  78.068  31.428  0.00  0.00    +0.149 HD
ATOM     26  O   LIG    1      -21.642  76.468  28.944  0.00  0.00    -0.270 OA
BRANCH  24  27
ATOM     27  C   LIG    1      -24.168  77.360  29.936  0.00  0.00    +0.120 C 
BRANCH  27  28
ATOM     28  C   LIG    1      -25.331  77.629  30.917  0.00  0.00    +0.103 C 
BRANCH  28  29
ATOM     29  N   LIG    1      -26.236  76.473  31.103  0.00  0.00    -0.297 NA
ATOM     30  C   LIG    1      -27.334  76.778  32.056  0.00  0.00    +0.112 C 
ATOM     31  C   LIG    1      -26.866  76.929  33.516  0.00  0.00    +0.175 C 
ATOM     32  O   LIG    1      -26.158  75.765  33.962  0.00  0.00    -0.377 OA
ATOM     33  C   LIG    1      -25.056  75.461  33.096  0.00  0.00    +0.175 C 
ATOM     34  C   LIG    1      -25.525  75.287  31.641  0.00  0.00    +0.112 C 
ENDBRANCH  28  29
ENDBRANCH  27  28
ENDBRANCH  24  27
ENDBRANCH   4  23
TORSDOF 6
ENDMDL
MODEL 2
REMARK VINA RESULT:      -6.2      1.857      3.151
REMARK  Name = pdb/CHEMBL3671132.pdb
REMARK                            x       y       z     vdW  Elec       q    Type
REMARK                         _______ _______ _______ _____ _____    ______ ____
ROOT
ATOM      1  C   LIG    1      -20.332  78.817  33.736  0.00  0.00    +0.126 A 
ATOM      2  N   LIG    1      -20.904  78.366  32.638  0.00  0.00    -0.212 NA
ATOM      3  C   LIG    1      -20.117  77.738  31.706  0.00  0.00    +0.170 A 
ATOM      4  C   LIG    1      -20.420  77.152  30.488  0.00  0.00    +0.100 A 
ATOM      5  C   LIG    1      -19.172  76.718  29.994  0.00  0.00    +0.150 A 
ATOM      6  N   LIG    1      -18.160  76.969  30.824  0.00  0.00    -0.173 NA
ATOM      7  N   LIG    1      -18.742  77.590  31.877  0.00  0.00    -0.221 N 
ATOM      8  C   LIG    1      -18.127  78.067  33.021  0.00  0.00    +0.118 A 
ATOM      9  C   LIG    1      -18.846  78.671  33.972  0.00  0.00    +0.063 A 
ENDROOT
BRANCH   1  11
ATOM     10  C   LIG    1      -22.585  79.517  34.641  0.00  0.00    +0.108 C 
ATOM     11  N   LIG    1      -21.121  79.458  34.679  0.00  0.00    -0.308 N 
ATOM     12  C   LIG    1      -20.586  80.465  35.599  0.00  0.00    +0.107 C 
ATOM     13  C   LIG    1      -21.768  81.351  35.979  0.00  0.00    +0.021 C 
ATOM     14  C   LIG    1      -22.856  80.989  34.982  0.00  0.00    +0.029 C 
BRANCH  10  18
ATOM     15  F   LIG    1      -22.379  75.904  37.988  0.00  0.00    -0.205 F 
ATOM     16  C   LIG    1      -23.115  76.719  37.224  0.00  0.00    +0.124 A 
ATOM     17  C   LIG    1      -22.478  77.646  36.401  0.00  0.00    +0.046 A 
ATOM     18  C   LIG    1      -23.227  78.516  35.589  0.00  0.00    +0.011 A 
ATOM     19  C   LIG    1      -24.623  78.392  35.627  0.00  0.00    +0.129 A 
ATOM     20  F   LIG    1      -25.382  79.167  34.839  0.00  0.00    -0.205 F 
ATOM     21  C   LIG    1      -25.260  77.466  36.455  0.00  0.00    +0.041 A 
ATOM     22  C   LIG    1      -24.501  76.624  37.261  0.00  0.00    +0.041 A 
ENDBRANCH  10  18
ENDBRANCH   1  11
BRANCH   4  23
ATOM     23  C   LIG    1      -21.714  77.014  29.855  0.00  0.00    +0.249 C 
ATOM     24  N   LIG    1      -22.756  77.589  30.540  0.00  0.00    -0.310 N 
ATOM     25  H   LIG    1      -22.520  78.119  31.380  0.00  0.00    +0.149 HD
ATOM     26  O   LIG    1      -21.851  76.412  28.787  0.00  0.00    -0.270 OA
BRANCH  24  27
ATOM     27  C   LIG    1      -24.126  77.569  30.072  0.00  0.00    +0.120 C 
BRANCH  27  28
ATOM     28  C   LIG    1      -25.136  77.524  31.239  0.00  0.00    +0.103 C 
BRANCH  28  29
ATOM     29  N   LIG    1      -26.120  76.423  31.135  0.00  0.00    -0.297 NA
ATOM     30  C   LIG    1      -27.381  76.738  31.854  0.00  0.00    +0.112 C 
ATOM     31  C   LIG    1      -27.234  76.759  33.387  0.00  0.00    +0.175 C 
ATOM     32  O   LIG    1      -26.703  75.523  33.880  0.00  0.00    -0.377 OA
ATOM     33  C   LIG    1      -25.457  75.202  33.246  0.00  0.00    +0.175 C 
ATOM     34  C   LIG    1      -25.607  75.157  31.716  0.00  0.00    +0.112 C 
ENDBRANCH  28  29
ENDBRANCH  27  28
ENDBRANCH  24  27
ENDBRANCH   4  23
TORSDOF 6
ENDMDL
MODEL 3
REMARK VINA RESULT:      -6.0     17.653     19.443
REMARK  Name = pdb/CHEMBL3671132.pdb
REMARK                            x       y       z     vdW  Elec       q    Type
REMARK                         _______ _______ _______ _____ _____    ______ ____
ROOT
ATOM      1  C   LIG    1      -20.554  77.892  15.271  0.00  0.00    +0.126 A 
ATOM      2  N   LIG    1      -21.715  78.511  15.209  0.00  0.00    -0.212 NA
ATOM      3  C   LIG    1      -21.785  79.809  15.644  0.00  0.00    +0.170 A 
ATOM      4  C   LIG    1      -22.835  80.713  15.687  0.00  0.00    +0.100 A 
ATOM      5  C   LIG    1      -22.275  81.864  16.279  0.00  0.00    +0.150 A 
ATOM      6  N   LIG    1      -20.979  81.734  16.563  0.00  0.00    -0.173 NA
ATOM      7  N   LIG    1      -20.679  80.475  16.169  0.00  0.00    -0.221 N 
ATOM      8  C   LIG    1      -19.455  79.835  16.249  0.00  0.00    +0.118 A 
ATOM      9  C   LIG    1      -19.323  78.574  15.822  0.00  0.00    +0.063 A 
ENDROOT
BRANCH   1  11
ATOM     10  C   LIG    1      -19.585  75.562  15.407  0.00  0.00    +0.108 C 
ATOM     11  N   LIG    1      -20.478  76.577  14.839  0.00  0.00    -0.308 N 
ATOM     12  C   LIG    1      -20.987  76.146  13.534  0.00  0.00    +0.107 C 
ATOM     13  C   LIG    1      -20.188  74.900  13.167  0.00  0.00    +0.021 C 
ATOM     14  C   LIG    1      -19.028  74.884  14.148  0.00  0.00    +0.029 C 
BRANCH  10  18
ATOM     15  F   LIG    1      -23.661  73.587  17.352  0.00  0.00    -0.205 F 
ATOM     16  C   LIG    1      -22.325  73.676  17.333  0.00  0.00    +0.124 A 
ATOM     17  C   LIG    1      -21.710  74.517  16.409  0.00  0.00    +0.046 A 
ATOM     18  C   LIG    1      -20.309  74.630  16.364  0.00  0.00    +0.011 A 
ATOM     19  C   LIG    1      -19.573  73.885  17.298  0.00  0.00    +0.129 A 
ATOM     20  F   LIG    1      -18.237  73.990  17.328  0.00  0.00    -0.205 F 
ATOM     21  C   LIG    1      -20.191  73.040  18.221  0.00  0.00    +0.041 A 
ATOM     22  C   LIG    1      -21.578  72.933  18.238  0.00  0.00    +0.041 A 
ENDBRANCH  10  18
ENDBRANCH   1  11
BRANCH   4  23
ATOM     23  C   LIG    1      -24.197  80.528  15.236  0.00  0.00    +0.249 C 
ATOM     24  N   LIG    1      -24.763  79.325  15.584  0.00  0.00    -0.310 N 
ATOM     25  H   LIG    1      -24.210  78.712  16.183  0.00  0.00    +0.149 HD
ATOM     26  O   LIG    1      -24.785  81.392  14.581  0.00  0.00    -0.270 OA
BRANCH  24  27
ATOM     27  C   LIG    1      -26.117  78.951  15.237  0.00  0.00    +0.120 C 
BRANCH  27  28
ATOM     28  C   LIG    1      -26.164  78.041  13.990  0.00  0.00    +0.103 C 
BRANCH  28  29
ATOM     29  N   LIG    1      -26.077  76.596  14.301  0.00  0.00    -0.297 NA
ATOM     30  C   LIG    1      -24.889  75.965  13.672  0.00  0.00    +0.112 C 
ATOM     31  C   LIG    1      -24.982  75.855  12.139  0.00  0.00    +0.175 C 
ATOM     32  O   LIG    1      -26.164  75.152  11.734  0.00  0.00    -0.377 OA
ATOM     33  C   LIG    1      -27.344  75.757  12.281  0.00  0.00    +0.175 C 
ATOM     34  C   LIG    1      -27.262  75.847  13.815  0.00  0.00    +0.112 C 
ENDBRANCH  28  29
ENDBRANCH  27  28
ENDBRANCH  24  27
ENDBRANCH   4  23
TORSDOF 6
ENDMDL
MODEL 4
REMARK VINA RESULT:      -6.0      2.141      3.360
REMARK  Name = pdb/CHEMBL3671132.pdb
REMARK                            x       y       z     vdW  Elec       q    Type
REMARK                         _______ _______ _______ _____ _____    ______ ____
ROOT
ATOM      1  C   LIG    1      -20.682  78.118  33.334  0.00  0.00    +0.126 A 
ATOM      2  N   LIG    1      -21.861  77.858  32.808  0.00  0.00    -0.212 NA
ATOM      3  C   LIG    1      -21.915  77.453  31.499  0.00  0.00    +0.170 A 
ATOM      4  C   LIG    1      -22.979  77.096  30.687  0.00  0.00    +0.100 A 
ATOM      5  C   LIG    1      -22.383  76.818  29.439  0.00  0.00    +0.150 A 
ATOM      6  N   LIG    1      -21.056  76.951  29.448  0.00  0.00    -0.173 NA
ATOM      7  N   LIG    1      -20.770  77.335  30.713  0.00  0.00    -0.221 N 
ATOM      8  C   LIG    1      -19.525  77.614  31.249  0.00  0.00    +0.118 A 
ATOM      9  C   LIG    1      -19.411  77.995  32.526  0.00  0.00    +0.063 A 
ENDROOT
BRANCH   1  11
ATOM     10  C   LIG    1      -20.465  79.927  35.085  0.00  0.00    +0.108 C 
ATOM     11  N   LIG    1      -20.621  78.534  34.655  0.00  0.00    -0.308 N 
ATOM     12  C   LIG    1      -20.322  77.617  35.758  0.00  0.00    +0.107 C 
ATOM     13  C   LIG    1      -19.725  78.478  36.866  0.00  0.00    +0.021 C 
ATOM     14  C   LIG    1      -19.412  79.805  36.195  0.00  0.00    +0.029 C 
BRANCH  10  18
ATOM     15  F   LIG    1      -25.361  79.861  35.647  0.00  0.00    -0.205 F 
ATOM     16  C   LIG    1      -24.200  80.514  35.778  0.00  0.00    +0.124 A 
ATOM     17  C   LIG    1      -23.016  79.886  35.396  0.00  0.00    +0.046 A 
ATOM     18  C   LIG    1      -21.782  80.547  35.524  0.00  0.00    +0.011 A 
ATOM     19  C   LIG    1      -21.801  81.858  36.021  0.00  0.00    +0.129 A 
ATOM     20  F   LIG    1      -20.657  82.549  36.120  0.00  0.00    -0.205 F 
ATOM     21  C   LIG    1      -22.987  82.485  36.406  0.00  0.00    +0.041 A 
ATOM     22  C   LIG    1      -24.196  81.807  36.285  0.00  0.00    +0.041 A 
ENDBRANCH  10  18
ENDBRANCH   1  11
BRANCH   4  23
ATOM     23  C   LIG    1      -24.383  77.024  31.027  0.00  0.00    +0.249 C 
ATOM     24  N   LIG    1      -24.661  77.148  32.367  0.00  0.00    -0.310 N 
ATOM     25  H   LIG    1      -23.874  77.353  32.984  0.00  0.00    +0.149 HD
ATOM     26  O   LIG    1      -25.250  76.852  30.167  0.00  0.00    -0.270 OA
BRANCH  24  27
ATOM     27  C   LIG    1      -26.001  77.112  32.911  0.00  0.00    +0.120 C 
BRANCH  27  28
ATOM     28  C   LIG    1      -26.202  75.925  33.879  0.00  0.00    +0.103 C 
BRANCH  28  29
ATOM     29  N   LIG    1      -27.339  75.047  33.521  0.00  0.00    -0.297 NA
ATOM     30  C   LIG    1      -27.364  73.811  34.344  0.00  0.00    +0.112 C 
ATOM     31  C   LIG    1      -26.219  72.830  34.026  0.00  0.00    +0.175 C 
ATOM     32  O   LIG    1      -26.202  72.477  32.636  0.00  0.00    -0.377 OA
ATOM     33  C   LIG    1      -26.130  73.642  31.803  0.00  0.00    +0.175 C 
ATOM     34  C   LIG    1      -27.286  74.612  32.104  0.00  0.00    +0.112 C 
ENDBRANCH  28  29
ENDBRANCH  27  28
ENDBRANCH  24  27
ENDBRANCH   4  23
TORSDOF 6
ENDMDL
MODEL 5
REMARK VINA RESULT:      -5.9      2.200      4.912
REMARK  Name = pdb/CHEMBL3671132.pdb
REMARK                            x       y       z     vdW  Elec       q    Type
REMARK                         _______ _______ _______ _____ _____    ______ ____
ROOT
ATOM      1  C   LIG    1      -22.506  78.438  34.445  0.00  0.00    +0.126 A 
ATOM      2  N   LIG    1      -22.379  78.076  33.185  0.00  0.00    -0.212 NA
ATOM      3  C   LIG    1      -23.518  77.885  32.445  0.00  0.00    +0.170 A 
ATOM      4  C   LIG    1      -23.708  77.529  31.119  0.00  0.00    +0.100 A 
ATOM      5  C   LIG    1      -25.110  77.459  30.979  0.00  0.00    +0.150 A 
ATOM      6  N   LIG    1      -25.768  77.770  32.096  0.00  0.00    -0.173 NA
ATOM      7  N   LIG    1      -24.790  78.036  32.993  0.00  0.00    -0.221 N 
ATOM      8  C   LIG    1      -24.939  78.407  34.317  0.00  0.00    +0.118 A 
ATOM      9  C   LIG    1      -23.863  78.625  35.082  0.00  0.00    +0.063 A 
ENDROOT
BRANCH   1  11
ATOM     10  C   LIG    1      -20.408  79.729  35.013  0.00  0.00    +0.108 C 
ATOM     11  N   LIG    1      -21.358  78.627  35.200  0.00  0.00    -0.308 N 
ATOM     12  C   LIG    1      -20.759  77.559  36.004  0.00  0.00    +0.107 C 
ATOM     13  C   LIG    1      -19.281  77.912  36.131  0.00  0.00    +0.021 C 
ATOM     14  C   LIG    1      -19.058  79.006  35.099  0.00  0.00    +0.029 C 
BRANCH  10  18
ATOM     15  F   LIG    1      -19.228  82.117  39.160  0.00  0.00    -0.205 F 
ATOM     16  C   LIG    1      -20.027  81.996  38.093  0.00  0.00    +0.124 A 
ATOM     17  C   LIG    1      -19.781  80.986  37.166  0.00  0.00    +0.046 A 
ATOM     18  C   LIG    1      -20.603  80.837  36.034  0.00  0.00    +0.011 A 
ATOM     19  C   LIG    1      -21.682  81.724  35.900  0.00  0.00    +0.129 A 
ATOM     20  F   LIG    1      -22.522  81.598  34.863  0.00  0.00    -0.205 F 
ATOM     21  C   LIG    1      -21.924  82.738  36.828  0.00  0.00    +0.041 A 
ATOM     22  C   LIG    1      -21.090  82.877  37.933  0.00  0.00    +0.041 A 
ENDBRANCH  10  18
ENDBRANCH   1  11
BRANCH   4  23
ATOM     23  C   LIG    1      -22.708  77.280  30.104  0.00  0.00    +0.249 C 
ATOM     24  N   LIG    1      -21.408  77.369  30.540  0.00  0.00    -0.310 N 
ATOM     25  H   LIG    1      -21.266  77.525  31.538  0.00  0.00    +0.149 HD
ATOM     26  O   LIG    1      -23.019  77.020  28.939  0.00  0.00    -0.270 OA
BRANCH  24  27
ATOM     27  C   LIG    1      -20.263  77.148  29.683  0.00  0.00    +0.120 C 
BRANCH  27  28
ATOM     28  C   LIG    1      -19.094  76.481  30.440  0.00  0.00    +0.103 C 
BRANCH  28  29
ATOM     29  N   LIG    1      -19.525  75.549  31.507  0.00  0.00    -0.297 NA
ATOM     30  C   LIG    1      -19.114  76.020  32.854  0.00  0.00    +0.112 C 
ATOM     31  C   LIG    1      -17.594  75.948  33.099  0.00  0.00    +0.175 C 
ATOM     32  O   LIG    1      -17.090  74.624  32.884  0.00  0.00    -0.377 OA
ATOM     33  C   LIG    1      -17.425  74.146  31.574  0.00  0.00    +0.175 C 
ATOM     34  C   LIG    1      -18.944  74.195  31.335  0.00  0.00    +0.112 C 
ENDBRANCH  28  29
ENDBRANCH  27  28
ENDBRANCH  24  27
ENDBRANCH   4  23
TORSDOF 6
ENDMDL
MODEL 6
REMARK VINA RESULT:      -5.8     16.000     20.028
REMARK  Name = pdb/CHEMBL3671132.pdb
REMARK                            x       y       z     vdW  Elec       q    Type
REMARK                         _______ _______ _______ _____ _____    ______ ____
ROOT
ATOM      1  C   LIG    1      -39.047  71.338  24.343  0.00  0.00    +0.126 A 
ATOM      2  N   LIG    1      -38.024  70.511  24.278  0.00  0.00    -0.212 NA
ATOM      3  C   LIG    1      -38.074  69.484  23.371  0.00  0.00    +0.170 A 
ATOM      4  C   LIG    1      -37.167  68.484  23.058  0.00  0.00    +0.100 A 
ATOM      5  C   LIG    1      -37.823  67.719  22.072  0.00  0.00    +0.150 A 
ATOM      6  N   LIG    1      -39.027  68.193  21.750  0.00  0.00    -0.173 NA
ATOM      7  N   LIG    1      -39.177  69.279  22.545  0.00  0.00    -0.221 N 
ATOM      8  C   LIG    1      -40.264  70.133  22.608  0.00  0.00    +0.118 A 
ATOM      9  C   LIG    1      -40.263  71.164  23.461  0.00  0.00    +0.063 A 
ENDROOT
BRANCH   1  11
ATOM     10  C   LIG    1      -38.134  73.549  25.156  0.00  0.00    +0.108 C 
ATOM     11  N   LIG    1      -39.006  72.375  25.262  0.00  0.00    -0.308 N 
ATOM     12  C   LIG    1      -39.534  72.244  26.622  0.00  0.00    +0.107 C 
ATOM     13  C   LIG    1      -38.768  73.258  27.465  0.00  0.00    +0.021 C 
ATOM     14  C   LIG    1      -37.602  73.684  26.589  0.00  0.00    +0.029 C 
BRANCH  10  18
ATOM     15  F   LIG    1      -42.069  75.779  23.197  0.00  0.00    -0.205 F 
ATOM     16  C   LIG    1      -40.812  75.859  23.649  0.00  0.00    +0.124 A 
ATOM     17  C   LIG    1      -40.193  74.717  24.152  0.00  0.00    +0.046 A 
ATOM     18  C   LIG    1      -38.873  74.771  24.635  0.00  0.00    +0.011 A 
ATOM     19  C   LIG    1      -38.211  76.005  24.563  0.00  0.00    +0.129 A 
ATOM     20  F   LIG    1      -36.937  76.102  24.968  0.00  0.00    -0.205 F 
ATOM     21  C   LIG    1      -38.834  77.149  24.061  0.00  0.00    +0.041 A 
ATOM     22  C   LIG    1      -40.145  77.077  23.602  0.00  0.00    +0.041 A 
ENDBRANCH  10  18
ENDBRANCH   1  11
BRANCH   4  23
ATOM     23  C   LIG    1      -35.849  68.263  23.612  0.00  0.00    +0.249 C 
ATOM     24  N   LIG    1      -35.793  68.249  24.985  0.00  0.00    -0.310 N 
ATOM     25  H   LIG    1      -36.681  68.318  25.483  0.00  0.00    +0.149 HD
ATOM     26  O   LIG    1      -34.860  68.112  22.890  0.00  0.00    -0.270 OA
BRANCH  24  27
ATOM     27  C   LIG    1      -34.572  68.035  25.731  0.00  0.00    +0.120 C 
BRANCH  27  28
ATOM     28  C   LIG    1      -34.080  69.327  26.419  0.00  0.00    +0.103 C 
BRANCH  28  29
ATOM     29  N   LIG    1      -34.143  69.279  27.897  0.00  0.00    -0.297 NA
ATOM     30  C   LIG    1      -35.542  69.201  28.390  0.00  0.00    +0.112 C 
ATOM     31  C   LIG    1      -36.349  70.496  28.176  0.00  0.00    +0.175 C 
ATOM     32  O   LIG    1      -35.697  71.624  28.773  0.00  0.00    -0.377 OA
ATOM     33  C   LIG    1      -34.355  71.767  28.289  0.00  0.00    +0.175 C 
ATOM     34  C   LIG    1      -33.541  70.482  28.522  0.00  0.00    +0.112 C 
ENDBRANCH  28  29
ENDBRANCH  27  28
ENDBRANCH  24  27
ENDBRANCH   4  23
TORSDOF 6
ENDMDL
MODEL 7
REMARK VINA RESULT:      -5.8     13.303     18.565
REMARK  Name = pdb/CHEMBL3671132.pdb
REMARK                            x       y       z     vdW  Elec       q    Type
REMARK                         _______ _______ _______ _____ _____    ______ ____
ROOT
ATOM      1  C   LIG    1      -38.110  71.123  24.557  0.00  0.00    +0.126 A 
ATOM      2  N   LIG    1      -37.211  71.263  25.509  0.00  0.00    -0.212 NA
ATOM      3  C   LIG    1      -36.120  70.432  25.500  0.00  0.00    +0.170 A 
ATOM      4  C   LIG    1      -35.018  70.347  26.337  0.00  0.00    +0.100 A 
ATOM      5  C   LIG    1      -34.276  69.264  25.820  0.00  0.00    +0.150 A 
ATOM      6  N   LIG    1      -34.825  68.719  24.735  0.00  0.00    -0.173 NA
ATOM      7  N   LIG    1      -35.953  69.439  24.537  0.00  0.00    -0.221 N 
ATOM      8  C   LIG    1      -36.894  69.275  23.536  0.00  0.00    +0.118 A 
ATOM      9  C   LIG    1      -37.969  70.069  23.483  0.00  0.00    +0.063 A 
ENDROOT
BRANCH   1  11
ATOM     10  C   LIG    1      -39.508  72.952  25.601  0.00  0.00    +0.108 C 
ATOM     11  N   LIG    1      -39.219  71.956  24.564  0.00  0.00    -0.308 N 
ATOM     12  C   LIG    1      -40.413  71.684  23.761  0.00  0.00    +0.107 C 
ATOM     13  C   LIG    1      -41.566  72.376  24.481  0.00  0.00    +0.021 C 
ATOM     14  C   LIG    1      -41.007  72.731  25.848  0.00  0.00    +0.029 C 
BRANCH  10  18
ATOM     15  F   LIG    1      -40.313  77.113  23.085  0.00  0.00    -0.205 F 
ATOM     16  C   LIG    1      -39.531  76.402  23.905  0.00  0.00    +0.124 A 
ATOM     17  C   LIG    1      -39.937  75.130  24.304  0.00  0.00    +0.046 A 
ATOM     18  C   LIG    1      -39.136  74.360  25.167  0.00  0.00    +0.011 A 
ATOM     19  C   LIG    1      -37.916  74.915  25.580  0.00  0.00    +0.129 A 
ATOM     20  F   LIG    1      -37.095  74.205  26.366  0.00  0.00    -0.205 F 
ATOM     21  C   LIG    1      -37.512  76.191  25.182  0.00  0.00    +0.041 A 
ATOM     22  C   LIG    1      -38.327  76.941  24.340  0.00  0.00    +0.041 A 
ENDBRANCH  10  18
ENDBRANCH   1  11
BRANCH   4  23
ATOM     23  C   LIG    1      -34.694  71.170  27.481  0.00  0.00    +0.249 C 
ATOM     24  N   LIG    1      -34.499  72.501  27.199  0.00  0.00    -0.310 N 
ATOM     25  H   LIG    1      -34.671  72.799  26.238  0.00  0.00    +0.149 HD
ATOM     26  O   LIG    1      -34.595  70.694  28.614  0.00  0.00    -0.270 OA
BRANCH  24  27
ATOM     27  C   LIG    1      -34.176  73.490  28.205  0.00  0.00    +0.120 C 
BRANCH  27  28
ATOM     28  C   LIG    1      -34.036  74.905  27.601  0.00  0.00    +0.103 C 
BRANCH  28  29
ATOM     29  N   LIG    1      -34.262  75.996  28.576  0.00  0.00    -0.297 NA
ATOM     30  C   LIG    1      -34.454  77.307  27.905  0.00  0.00    +0.112 C 
ATOM     31  C   LIG    1      -33.177  77.860  27.246  0.00  0.00    +0.175 C 
ATOM     32  O   LIG    1      -32.102  77.962  28.189  0.00  0.00    -0.377 OA
ATOM     33  C   LIG    1      -31.849  76.704  28.828  0.00  0.00    +0.175 C 
ATOM     34  C   LIG    1      -33.118  76.160  29.507  0.00  0.00    +0.112 C 
ENDBRANCH  28  29
ENDBRANCH  27  28
ENDBRANCH  24  27
ENDBRANCH   4  23
TORSDOF 6
ENDMDL
MODEL 8
REMARK VINA RESULT:      -5.7     13.847     18.507
REMARK  Name = pdb/CHEMBL3671132.pdb
REMARK                            x       y       z     vdW  Elec       q    Type
REMARK                         _______ _______ _______ _____ _____    ______ ____
ROOT
ATOM      1  C   LIG    1      -38.309  72.625  25.990  0.00  0.00    +0.126 A 
ATOM      2  N   LIG    1      -37.161  72.415  26.600  0.00  0.00    -0.212 NA
ATOM      3  C   LIG    1      -36.352  71.409  26.136  0.00  0.00    +0.170 A 
ATOM      4  C   LIG    1      -35.104  70.966  26.545  0.00  0.00    +0.100 A 
ATOM      5  C   LIG    1      -34.829  69.876  25.693  0.00  0.00    +0.150 A 
ATOM      6  N   LIG    1      -35.789  69.652  24.796  0.00  0.00    -0.173 NA
ATOM      7  N   LIG    1      -36.721  70.596  25.066  0.00  0.00    -0.221 N 
ATOM      8  C   LIG    1      -37.928  70.799  24.421  0.00  0.00    +0.118 A 
ATOM      9  C   LIG    1      -38.749  71.777  24.818  0.00  0.00    +0.063 A 
ENDROOT
BRANCH   1  11
ATOM     10  C   LIG    1      -38.779  75.059  26.481  0.00  0.00    +0.108 C 
ATOM     11  N   LIG    1      -39.134  73.636  26.457  0.00  0.00    -0.308 N 
ATOM     12  C   LIG    1      -40.285  73.376  27.326  0.00  0.00    +0.107 C 
ATOM     13  C   LIG    1      -40.514  74.663  28.110  0.00  0.00    +0.021 C 
ATOM     14  C   LIG    1      -39.258  75.485  27.875  0.00  0.00    +0.029 C 
BRANCH  10  18
ATOM     15  F   LIG    1      -41.941  75.514  22.727  0.00  0.00    -0.205 F 
ATOM     16  C   LIG    1      -40.955  76.036  23.466  0.00  0.00    +0.124 A 
ATOM     17  C   LIG    1      -40.441  75.305  24.535  0.00  0.00    +0.046 A 
ATOM     18  C   LIG    1      -39.406  75.828  25.330  0.00  0.00    +0.011 A 
ATOM     19  C   LIG    1      -38.905  77.092  24.985  0.00  0.00    +0.129 A 
ATOM     20  F   LIG    1      -37.889  77.618  25.682  0.00  0.00    -0.205 F 
ATOM     21  C   LIG    1      -39.423  77.825  23.916  0.00  0.00    +0.041 A 
ATOM     22  C   LIG    1      -40.457  77.294  23.152  0.00  0.00    +0.041 A 
ENDBRANCH  10  18
ENDBRANCH   1  11
BRANCH   4  23
ATOM     23  C   LIG    1      -34.268  71.489  27.603  0.00  0.00    +0.249 C 
ATOM     24  N   LIG    1      -34.154  72.858  27.626  0.00  0.00    -0.310 N 
ATOM     25  H   LIG    1      -34.719  73.380  26.954  0.00  0.00    +0.149 HD
ATOM     26  O   LIG    1      -33.701  70.746  28.408  0.00  0.00    -0.270 OA
BRANCH  24  27
ATOM     27  C   LIG    1      -33.372  73.577  28.608  0.00  0.00    +0.120 C 
BRANCH  27  28
ATOM     28  C   LIG    1      -33.808  75.054  28.728  0.00  0.00    +0.103 C 
BRANCH  28  29
ATOM     29  N   LIG    1      -33.899  75.758  27.430  0.00  0.00    -0.297 NA
ATOM     30  C   LIG    1      -32.964  76.910  27.358  0.00  0.00    +0.112 C 
ATOM     31  C   LIG    1      -33.355  78.085  28.274  0.00  0.00    +0.175 C 
ATOM     32  O   LIG    1      -34.689  78.538  28.007  0.00  0.00    -0.377 OA
ATOM     33  C   LIG    1      -35.634  77.464  28.112  0.00  0.00    +0.175 C 
ATOM     34  C   LIG    1      -35.258  76.299  27.180  0.00  0.00    +0.112 C 
ENDBRANCH  28  29
ENDBRANCH  27  28
ENDBRANCH  24  27
ENDBRANCH   4  23
TORSDOF 6
ENDMDL
MODEL 9
REMARK VINA RESULT:      -5.6     14.856     20.434
REMARK  Name = pdb/CHEMBL3671132.pdb
REMARK                            x       y       z     vdW  Elec       q    Type
REMARK                         _______ _______ _______ _____ _____    ______ ____
ROOT
ATOM      1  C   LIG    1      -38.763  71.974  24.435  0.00  0.00    +0.126 A 
ATOM      2  N   LIG    1      -38.431  73.231  24.646  0.00  0.00    -0.212 NA
ATOM      3  C   LIG    1      -39.353  74.204  24.357  0.00  0.00    +0.170 A 
ATOM      4  C   LIG    1      -39.311  75.584  24.486  0.00  0.00    +0.100 A 
ATOM      5  C   LIG    1      -40.554  76.016  23.980  0.00  0.00    +0.150 A 
ATOM      6  N   LIG    1      -41.343  75.014  23.590  0.00  0.00    -0.173 NA
ATOM      7  N   LIG    1      -40.606  73.903  23.827  0.00  0.00    -0.221 N 
ATOM      8  C   LIG    1      -40.965  72.588  23.590  0.00  0.00    +0.118 A 
ATOM      9  C   LIG    1      -40.113  71.595  23.871  0.00  0.00    +0.063 A 
ENDROOT
BRANCH   1  11
ATOM     10  C   LIG    1      -38.146  69.560  24.855  0.00  0.00    +0.108 C 
ATOM     11  N   LIG    1      -37.833  70.986  24.719  0.00  0.00    -0.308 N 
ATOM     12  C   LIG    1      -36.517  71.282  25.291  0.00  0.00    +0.107 C 
ATOM     13  C   LIG    1      -36.089  70.018  26.028  0.00  0.00    +0.021 C 
ATOM     14  C   LIG    1      -37.350  69.174  26.109  0.00  0.00    +0.029 C 
BRANCH  10  18
ATOM     15  F   LIG    1      -37.171  69.192  20.037  0.00  0.00    -0.205 F 
ATOM     16  C   LIG    1      -37.330  68.595  21.225  0.00  0.00    +0.124 A 
ATOM     17  C   LIG    1      -37.618  69.370  22.346  0.00  0.00    +0.046 A 
ATOM     18  C   LIG    1      -37.789  68.770  23.606  0.00  0.00    +0.011 A 
ATOM     19  C   LIG    1      -37.682  67.373  23.675  0.00  0.00    +0.129 A 
ATOM     20  F   LIG    1      -37.880  66.747  24.843  0.00  0.00    -0.205 F 
ATOM     21  C   LIG    1      -37.389  66.599  22.551  0.00  0.00    +0.041 A 
ATOM     22  C   LIG    1      -37.210  67.214  21.316  0.00  0.00    +0.041 A 
ENDBRANCH  10  18
ENDBRANCH   1  11
BRANCH   4  23
ATOM     23  C   LIG    1      -38.241  76.403  25.013  0.00  0.00    +0.249 C 
ATOM     24  N   LIG    1      -38.505  76.987  26.228  0.00  0.00    -0.310 N 
ATOM     25  H   LIG    1      -39.385  76.736  26.679  0.00  0.00    +0.149 HD
ATOM     26  O   LIG    1      -37.184  76.561  24.397  0.00  0.00    -0.270 OA
BRANCH  24  27
ATOM     27  C   LIG    1      -37.564  77.835  26.926  0.00  0.00    +0.120 C 
BRANCH  27  28
ATOM     28  C   LIG    1      -36.487  77.015  27.670  0.00  0.00    +0.103 C 
BRANCH  28  29
ATOM     29  N   LIG    1      -35.103  77.310  27.233  0.00  0.00    -0.297 NA
ATOM     30  C   LIG    1      -34.215  76.127  27.371  0.00  0.00    +0.112 C 
ATOM     31  C   LIG    1      -33.910  75.746  28.832  0.00  0.00    +0.175 C 
ATOM     32  O   LIG    1      -33.348  76.849  29.555  0.00  0.00    -0.377 OA
ATOM     33  C   LIG    1      -34.198  78.002  29.489  0.00  0.00    +0.175 C 
ATOM     34  C   LIG    1      -34.486  78.398  28.030  0.00  0.00    +0.112 C 
ENDBRANCH  28  29
ENDBRANCH  27  28
ENDBRANCH  24  27
ENDBRANCH   4  23
TORSDOF 6
ENDMDL
