MODEL 1
REMARK VINA RESULT:      -6.9      0.000      0.000
REMARK  Name = pdb/CHEMBL3969188.pdb
REMARK                            x       y       z     vdW  Elec       q    Type
REMARK                         _______ _______ _______ _____ _____    ______ ____
ROOT
ATOM      1  C   LIG    1      -34.584  79.915  27.995  0.00  0.00    +0.141 C 
ATOM      2  C   LIG    1      -35.760  79.257  28.241  0.00  0.00    +0.350 C 
ATOM      3  N   LIG    1      -36.460  78.285  27.565  0.00  0.00    -0.041 NA
ATOM      4  C   LIG    1      -37.480  77.739  28.181  0.00  0.00    +0.313 C 
ATOM      5  C   LIG    1      -37.886  78.129  29.579  0.00  0.00    +0.115 C 
ATOM      6  C   LIG    1      -37.254  79.175  30.134  0.00  0.00    +0.106 C 
ATOM      7  N   LIG    1      -36.207  79.777  29.461  0.00  0.00    -0.181 N 
ATOM      8  N   LIG    1      -35.511  80.875  29.843  0.00  0.00    -0.151 NA
ATOM      9  C   LIG    1      -34.551  80.972  28.921  0.00  0.00    +0.146 C 
ENDROOT
BRANCH   4  10
ATOM     10  N   LIG    1      -38.249  76.768  27.542  0.00  0.00    -0.214 N 
ATOM     11  C   LIG    1      -37.769  76.252  26.230  0.00  0.00    +0.201 C 
ATOM     12  C   LIG    1      -37.447  74.776  26.535  0.00  0.00    +0.056 C 
ATOM     13  C   LIG    1      -38.593  74.388  27.445  0.00  0.00    +0.048 C 
ATOM     14  C   LIG    1      -38.696  75.613  28.337  0.00  0.00    +0.226 C 
BRANCH  11  15
ATOM     15  C   LIG    1      -38.868  76.493  25.200  0.00  0.00    +0.033 A 
ATOM     16  C   LIG    1      -39.295  77.771  24.828  0.00  0.00    +0.131 A 
ATOM     17  F   LIG    1      -38.747  78.866  25.365  0.00  0.00    -0.205 F 
ATOM     18  C   LIG    1      -40.315  77.960  23.891  0.00  0.00    +0.041 A 
ATOM     19  C   LIG    1      -40.963  76.864  23.329  0.00  0.00    +0.041 A 
ATOM     20  C   LIG    1      -40.568  75.590  23.695  0.00  0.00    +0.124 A 
ATOM     21  F   LIG    1      -41.183  74.521  23.175  0.00  0.00    -0.205 F 
ATOM     22  C   LIG    1      -39.540  75.405  24.609  0.00  0.00    +0.048 A 
ENDBRANCH  11  15
ENDBRANCH   4  10
BRANCH   1  24
ATOM     23  C   LIG    1      -33.042  78.713  26.722  0.00  0.00    +0.241 C 
ATOM     24  N   LIG    1      -33.680  79.800  26.932  0.00  0.00    -0.208 NA
BRANCH  23  29
ATOM     25  C   LIG    1      -32.643  73.821  29.657  0.00  0.00    +0.067 C 
ATOM     26  C   LIG    1      -32.778  75.108  28.905  0.00  0.00    +0.056 A 
ATOM     27  N   LIG    1      -31.898  76.095  29.203  0.00  0.00    -0.256 NA
ATOM     28  C   LIG    1      -31.983  77.215  28.435  0.00  0.00    +0.144 A 
ATOM     29  C   LIG    1      -32.937  77.389  27.435  0.00  0.00    +0.143 A 
ATOM     30  N   LIG    1      -33.827  76.406  27.141  0.00  0.00    -0.247 NA
ATOM     31  C   LIG    1      -33.687  75.256  27.855  0.00  0.00    +0.134 A 
ENDBRANCH  23  29
BRANCH  23  32
ATOM     32  O   LIG    1      -32.240  78.735  25.612  0.00  0.00    -0.491 OA
ATOM     33  H   LIG    1      -32.685  78.621  24.761  0.00  0.00    +0.294 HD
ENDBRANCH  23  32
ENDBRANCH   1  24
TORSDOF 5
ENDMDL
MODEL 2
REMARK VINA RESULT:      -6.5      2.020      4.244
REMARK  Name = pdb/CHEMBL3969188.pdb
REMARK                            x       y       z     vdW  Elec       q    Type
REMARK                         _______ _______ _______ _____ _____    ______ ____
ROOT
ATOM      1  C   LIG    1      -34.311  76.743  27.512  0.00  0.00    +0.141 C 
ATOM      2  C   LIG    1      -35.590  76.354  27.207  0.00  0.00    +0.350 C 
ATOM      3  N   LIG    1      -36.404  76.552  26.117  0.00  0.00    -0.041 NA
ATOM      4  C   LIG    1      -37.528  75.878  26.075  0.00  0.00    +0.313 C 
ATOM      5  C   LIG    1      -37.932  74.909  27.156  0.00  0.00    +0.115 C 
ATOM      6  C   LIG    1      -37.167  74.859  28.257  0.00  0.00    +0.106 C 
ATOM      7  N   LIG    1      -36.004  75.606  28.314  0.00  0.00    -0.181 N 
ATOM      8  N   LIG    1      -35.158  75.724  29.367  0.00  0.00    -0.151 NA
ATOM      9  C   LIG    1      -34.151  76.451  28.877  0.00  0.00    +0.146 C 
ENDROOT
BRANCH   4  10
ATOM     10  N   LIG    1      -38.413  76.053  25.013  0.00  0.00    -0.214 N 
ATOM     11  C   LIG    1      -39.869  76.122  25.325  0.00  0.00    +0.201 C 
ATOM     12  C   LIG    1      -40.238  77.568  24.938  0.00  0.00    +0.056 C 
ATOM     13  C   LIG    1      -39.440  77.764  23.666  0.00  0.00    +0.048 C 
ATOM     14  C   LIG    1      -38.118  77.116  24.039  0.00  0.00    +0.226 C 
BRANCH  11  15
ATOM     15  C   LIG    1      -40.570  75.023  24.533  0.00  0.00    +0.033 A 
ATOM     16  C   LIG    1      -41.886  75.136  24.075  0.00  0.00    +0.131 A 
ATOM     17  F   LIG    1      -42.607  76.238  24.310  0.00  0.00    -0.205 F 
ATOM     18  C   LIG    1      -42.508  74.106  23.364  0.00  0.00    +0.041 A 
ATOM     19  C   LIG    1      -41.833  72.912  23.127  0.00  0.00    +0.041 A 
ATOM     20  C   LIG    1      -40.536  72.772  23.585  0.00  0.00    +0.124 A 
ATOM     21  F   LIG    1      -39.870  71.630  23.376  0.00  0.00    -0.205 F 
ATOM     22  C   LIG    1      -39.913  73.805  24.271  0.00  0.00    +0.048 A 
ENDBRANCH  11  15
ENDBRANCH   4  10
BRANCH   1  24
ATOM     23  C   LIG    1      -33.323  78.766  26.899  0.00  0.00    +0.241 C 
ATOM     24  N   LIG    1      -33.388  77.495  26.776  0.00  0.00    -0.208 NA
BRANCH  23  29
ATOM     25  C   LIG    1      -36.103  82.742  29.929  0.00  0.00    +0.067 C 
ATOM     26  C   LIG    1      -35.352  81.726  29.124  0.00  0.00    +0.056 A 
ATOM     27  N   LIG    1      -34.656  80.785  29.808  0.00  0.00    -0.256 NA
ATOM     28  C   LIG    1      -34.067  79.819  29.052  0.00  0.00    +0.144 A 
ATOM     29  C   LIG    1      -34.112  79.800  27.660  0.00  0.00    +0.143 A 
ATOM     30  N   LIG    1      -34.801  80.748  26.972  0.00  0.00    -0.247 NA
ATOM     31  C   LIG    1      -35.456  81.665  27.733  0.00  0.00    +0.134 A 
ENDBRANCH  23  29
BRANCH  23  32
ATOM     32  O   LIG    1      -32.333  79.354  26.159  0.00  0.00    -0.491 OA
ATOM     33  H   LIG    1      -31.503  79.533  26.622  0.00  0.00    +0.294 HD
ENDBRANCH  23  32
ENDBRANCH   1  24
TORSDOF 5
ENDMDL
MODEL 3
REMARK VINA RESULT:      -6.5      1.330      2.200
REMARK  Name = pdb/CHEMBL3969188.pdb
REMARK                            x       y       z     vdW  Elec       q    Type
REMARK                         _______ _______ _______ _____ _____    ______ ____
ROOT
ATOM      1  C   LIG    1      -34.796  79.850  28.050  0.00  0.00    +0.141 C 
ATOM      2  C   LIG    1      -36.110  79.464  27.994  0.00  0.00    +0.350 C 
ATOM      3  N   LIG    1      -36.899  78.940  26.997  0.00  0.00    -0.041 NA
ATOM      4  C   LIG    1      -38.090  78.510  27.336  0.00  0.00    +0.313 C 
ATOM      5  C   LIG    1      -38.596  78.560  28.755  0.00  0.00    +0.115 C 
ATOM      6  C   LIG    1      -37.839  79.204  29.657  0.00  0.00    +0.106 C 
ATOM      7  N   LIG    1      -36.601  79.696  29.283  0.00  0.00    -0.181 N 
ATOM      8  N   LIG    1      -35.746  80.424  30.042  0.00  0.00    -0.151 NA
ATOM      9  C   LIG    1      -34.667  80.545  29.265  0.00  0.00    +0.146 C 
ENDROOT
BRANCH   4  10
ATOM     10  N   LIG    1      -38.953  77.994  26.371  0.00  0.00    -0.214 N 
ATOM     11  C   LIG    1      -39.923  76.945  26.794  0.00  0.00    +0.201 C 
ATOM     12  C   LIG    1      -41.286  77.640  26.615  0.00  0.00    +0.056 C 
ATOM     13  C   LIG    1      -41.082  78.401  25.323  0.00  0.00    +0.048 C 
ATOM     14  C   LIG    1      -39.678  78.948  25.516  0.00  0.00    +0.226 C 
BRANCH  11  15
ATOM     15  C   LIG    1      -39.687  75.712  25.927  0.00  0.00    +0.033 A 
ATOM     16  C   LIG    1      -38.521  74.943  25.997  0.00  0.00    +0.131 A 
ATOM     17  F   LIG    1      -37.537  75.257  26.848  0.00  0.00    -0.205 F 
ATOM     18  C   LIG    1      -38.327  73.827  25.181  0.00  0.00    +0.041 A 
ATOM     19  C   LIG    1      -39.288  73.472  24.238  0.00  0.00    +0.041 A 
ATOM     20  C   LIG    1      -40.443  74.227  24.140  0.00  0.00    +0.124 A 
ATOM     21  F   LIG    1      -41.378  73.911  23.236  0.00  0.00    -0.205 F 
ATOM     22  C   LIG    1      -40.642  75.323  24.968  0.00  0.00    +0.048 A 
ENDBRANCH  11  15
ENDBRANCH   4  10
BRANCH   1  24
ATOM     23  C   LIG    1      -33.120  78.772  26.836  0.00  0.00    +0.241 C 
ATOM     24  N   LIG    1      -33.798  79.831  27.069  0.00  0.00    -0.208 NA
BRANCH  23  29
ATOM     25  C   LIG    1      -32.840  73.674  29.413  0.00  0.00    +0.067 C 
ATOM     26  C   LIG    1      -32.943  75.017  28.757  0.00  0.00    +0.056 A 
ATOM     27  N   LIG    1      -31.990  75.931  29.064  0.00  0.00    -0.256 NA
ATOM     28  C   LIG    1      -32.053  77.104  28.378  0.00  0.00    +0.144 A 
ATOM     29  C   LIG    1      -33.052  77.399  27.453  0.00  0.00    +0.143 A 
ATOM     30  N   LIG    1      -34.014  76.489  27.151  0.00  0.00    -0.247 NA
ATOM     31  C   LIG    1      -33.901  75.287  27.777  0.00  0.00    +0.134 A 
ENDBRANCH  23  29
BRANCH  23  32
ATOM     32  O   LIG    1      -32.221  78.893  25.810  0.00  0.00    -0.491 OA
ATOM     33  H   LIG    1      -31.423  78.352  25.875  0.00  0.00    +0.294 HD
ENDBRANCH  23  32
ENDBRANCH   1  24
TORSDOF 5
ENDMDL
MODEL 4
REMARK VINA RESULT:      -6.4     13.643     16.071
REMARK  Name = pdb/CHEMBL3969188.pdb
REMARK                            x       y       z     vdW  Elec       q    Type
REMARK                         _______ _______ _______ _____ _____    ______ ____
ROOT
ATOM      1  C   LIG    1      -24.252  75.675  31.229  0.00  0.00    +0.141 C 
ATOM      2  C   LIG    1      -24.193  75.751  32.596  0.00  0.00    +0.350 C 
ATOM      3  N   LIG    1      -24.089  76.799  33.480  0.00  0.00    -0.041 NA
ATOM      4  C   LIG    1      -24.241  76.529  34.754  0.00  0.00    +0.313 C 
ATOM      5  C   LIG    1      -24.533  75.138  35.258  0.00  0.00    +0.115 C 
ATOM      6  C   LIG    1      -24.488  74.137  34.365  0.00  0.00    +0.106 C 
ATOM      7  N   LIG    1      -24.283  74.424  33.028  0.00  0.00    -0.181 N 
ATOM      8  N   LIG    1      -24.143  73.537  32.012  0.00  0.00    -0.151 NA
ATOM      9  C   LIG    1      -24.085  74.312  30.927  0.00  0.00    +0.146 C 
ENDROOT
BRANCH   4  10
ATOM     10  N   LIG    1      -24.120  77.538  35.707  0.00  0.00    -0.214 N 
ATOM     11  C   LIG    1      -24.613  78.897  35.347  0.00  0.00    +0.201 C 
ATOM     12  C   LIG    1      -25.793  79.106  36.316  0.00  0.00    +0.056 C 
ATOM     13  C   LIG    1      -25.256  78.504  37.597  0.00  0.00    +0.048 C 
ATOM     14  C   LIG    1      -24.575  77.250  37.076  0.00  0.00    +0.226 C 
BRANCH  11  15
ATOM     15  C   LIG    1      -23.450  79.873  35.497  0.00  0.00    +0.033 A 
ATOM     16  C   LIG    1      -23.620  81.208  35.878  0.00  0.00    +0.131 A 
ATOM     17  F   LIG    1      -24.835  81.702  36.139  0.00  0.00    -0.205 F 
ATOM     18  C   LIG    1      -22.537  82.082  35.994  0.00  0.00    +0.041 A 
ATOM     19  C   LIG    1      -21.249  81.648  35.691  0.00  0.00    +0.041 A 
ATOM     20  C   LIG    1      -21.059  80.336  35.296  0.00  0.00    +0.124 A 
ATOM     21  F   LIG    1      -19.832  79.897  34.990  0.00  0.00    -0.205 F 
ATOM     22  C   LIG    1      -22.135  79.463  35.203  0.00  0.00    +0.048 A 
ENDBRANCH  11  15
ENDBRANCH   4  10
BRANCH   1  24
ATOM     23  C   LIG    1      -23.142  77.292  29.965  0.00  0.00    +0.241 C 
ATOM     24  N   LIG    1      -24.227  76.682  30.257  0.00  0.00    -0.208 NA
BRANCH  23  29
ATOM     25  C   LIG    1      -17.708  77.267  31.749  0.00  0.00    +0.067 C 
ATOM     26  C   LIG    1      -19.128  77.309  31.276  0.00  0.00    +0.056 A 
ATOM     27  N   LIG    1      -19.407  76.702  30.097  0.00  0.00    -0.256 NA
ATOM     28  C   LIG    1      -20.721  76.670  29.744  0.00  0.00    +0.144 A 
ATOM     29  C   LIG    1      -21.732  77.262  30.496  0.00  0.00    +0.143 A 
ATOM     30  N   LIG    1      -21.454  77.881  31.674  0.00  0.00    -0.247 NA
ATOM     31  C   LIG    1      -20.152  77.839  32.065  0.00  0.00    +0.134 A 
ENDBRANCH  23  29
BRANCH  23  32
ATOM     32  O   LIG    1      -23.265  78.210  28.956  0.00  0.00    -0.491 OA
ATOM     33  H   LIG    1      -23.724  77.910  28.160  0.00  0.00    +0.294 HD
ENDBRANCH  23  32
ENDBRANCH   1  24
TORSDOF 5
ENDMDL
MODEL 5
REMARK VINA RESULT:      -6.4      1.744      3.044
REMARK  Name = pdb/CHEMBL3969188.pdb
REMARK                            x       y       z     vdW  Elec       q    Type
REMARK                         _______ _______ _______ _____ _____    ______ ____
ROOT
ATOM      1  C   LIG    1      -35.458  78.894  28.219  0.00  0.00    +0.141 C 
ATOM      2  C   LIG    1      -36.626  78.327  27.778  0.00  0.00    +0.350 C 
ATOM      3  N   LIG    1      -37.036  77.828  26.565  0.00  0.00    -0.041 NA
ATOM      4  C   LIG    1      -38.178  77.185  26.533  0.00  0.00    +0.313 C 
ATOM      5  C   LIG    1      -39.023  76.973  27.763  0.00  0.00    +0.115 C 
ATOM      6  C   LIG    1      -38.641  77.597  28.887  0.00  0.00    +0.106 C 
ATOM      7  N   LIG    1      -37.457  78.312  28.904  0.00  0.00    -0.181 N 
ATOM      8  N   LIG    1      -36.961  79.052  29.925  0.00  0.00    -0.151 NA
ATOM      9  C   LIG    1      -35.762  79.434  29.481  0.00  0.00    +0.146 C 
ENDROOT
BRANCH   4  10
ATOM     10  N   LIG    1      -38.666  76.679  25.330  0.00  0.00    -0.214 N 
ATOM     11  C   LIG    1      -40.011  76.037  25.340  0.00  0.00    +0.201 C 
ATOM     12  C   LIG    1      -40.853  76.982  24.461  0.00  0.00    +0.056 C 
ATOM     13  C   LIG    1      -39.879  77.330  23.355  0.00  0.00    +0.048 C 
ATOM     14  C   LIG    1      -38.597  77.543  24.141  0.00  0.00    +0.226 C 
BRANCH  11  15
ATOM     15  C   LIG    1      -39.855  74.611  24.822  0.00  0.00    +0.033 A 
ATOM     16  C   LIG    1      -40.896  73.902  24.216  0.00  0.00    +0.131 A 
ATOM     17  F   LIG    1      -42.105  74.453  24.056  0.00  0.00    -0.205 F 
ATOM     18  C   LIG    1      -40.727  72.592  23.763  0.00  0.00    +0.041 A 
ATOM     19  C   LIG    1      -39.510  71.940  23.943  0.00  0.00    +0.041 A 
ATOM     20  C   LIG    1      -38.470  72.616  24.554  0.00  0.00    +0.124 A 
ATOM     21  F   LIG    1      -37.294  72.007  24.745  0.00  0.00    -0.205 F 
ATOM     22  C   LIG    1      -38.635  73.926  24.983  0.00  0.00    +0.048 A 
ENDBRANCH  11  15
ENDBRANCH   4  10
BRANCH   1  24
ATOM     23  C   LIG    1      -33.332  78.274  27.482  0.00  0.00    +0.241 C 
ATOM     24  N   LIG    1      -34.259  79.152  27.544  0.00  0.00    -0.208 NA
BRANCH  23  29
ATOM     25  C   LIG    1      -32.558  72.964  29.461  0.00  0.00    +0.067 C 
ATOM     26  C   LIG    1      -32.729  74.353  28.927  0.00  0.00    +0.056 A 
ATOM     27  N   LIG    1      -33.687  74.541  27.987  0.00  0.00    -0.256 NA
ATOM     28  C   LIG    1      -33.885  75.829  27.594  0.00  0.00    +0.144 A 
ATOM     29  C   LIG    1      -33.132  76.900  28.068  0.00  0.00    +0.143 A 
ATOM     30  N   LIG    1      -32.163  76.712  29.003  0.00  0.00    -0.247 NA
ATOM     31  C   LIG    1      -32.024  75.437  29.454  0.00  0.00    +0.134 A 
ENDBRANCH  23  29
BRANCH  23  32
ATOM     32  O   LIG    1      -32.246  78.652  26.740  0.00  0.00    -0.491 OA
ATOM     33  H   LIG    1      -31.843  79.499  26.973  0.00  0.00    +0.294 HD
ENDBRANCH  23  32
ENDBRANCH   1  24
TORSDOF 5
ENDMDL
MODEL 6
REMARK VINA RESULT:      -6.2     12.838     17.263
REMARK  Name = pdb/CHEMBL3969188.pdb
REMARK                            x       y       z     vdW  Elec       q    Type
REMARK                         _______ _______ _______ _____ _____    ______ ____
ROOT
ATOM      1  C   LIG    1      -24.795  78.060  31.773  0.00  0.00    +0.141 C 
ATOM      2  C   LIG    1      -24.177  78.371  32.956  0.00  0.00    +0.350 C 
ATOM      3  N   LIG    1      -22.919  78.823  33.276  0.00  0.00    -0.041 NA
ATOM      4  C   LIG    1      -22.710  79.195  34.515  0.00  0.00    +0.313 C 
ATOM      5  C   LIG    1      -23.789  79.153  35.567  0.00  0.00    +0.115 C 
ATOM      6  C   LIG    1      -24.954  78.576  35.231  0.00  0.00    +0.106 C 
ATOM      7  N   LIG    1      -25.153  78.145  33.933  0.00  0.00    -0.181 N 
ATOM      8  N   LIG    1      -26.233  77.486  33.445  0.00  0.00    -0.151 NA
ATOM      9  C   LIG    1      -25.984  77.405  32.136  0.00  0.00    +0.146 C 
ENDROOT
BRANCH   4  10
ATOM     10  N   LIG    1      -21.450  79.637  34.914  0.00  0.00    -0.214 N 
ATOM     11  C   LIG    1      -21.050  79.411  36.332  0.00  0.00    +0.201 C 
ATOM     12  C   LIG    1      -19.877  78.419  36.208  0.00  0.00    +0.056 C 
ATOM     13  C   LIG    1      -19.143  78.954  34.996  0.00  0.00    +0.048 C 
ATOM     14  C   LIG    1      -20.298  79.286  34.068  0.00  0.00    +0.226 C 
BRANCH  11  15
ATOM     15  C   LIG    1      -20.712  80.766  36.945  0.00  0.00    +0.033 A 
ATOM     16  C   LIG    1      -21.223  81.972  36.456  0.00  0.00    +0.131 A 
ATOM     17  F   LIG    1      -22.054  81.996  35.407  0.00  0.00    -0.205 F 
ATOM     18  C   LIG    1      -20.884  83.200  37.030  0.00  0.00    +0.041 A 
ATOM     19  C   LIG    1      -19.987  83.253  38.092  0.00  0.00    +0.041 A 
ATOM     20  C   LIG    1      -19.456  82.074  38.583  0.00  0.00    +0.124 A 
ATOM     21  F   LIG    1      -18.584  82.101  39.598  0.00  0.00    -0.205 F 
ATOM     22  C   LIG    1      -19.812  80.854  38.025  0.00  0.00    +0.048 A 
ENDBRANCH  11  15
ENDBRANCH   4  10
BRANCH   1  24
ATOM     23  C   LIG    1      -23.447  77.276  30.036  0.00  0.00    +0.241 C 
ATOM     24  N   LIG    1      -24.320  78.109  30.457  0.00  0.00    -0.208 NA
BRANCH  23  29
ATOM     25  C   LIG    1      -20.301  73.249  32.606  0.00  0.00    +0.067 C 
ATOM     26  C   LIG    1      -21.140  74.311  31.965  0.00  0.00    +0.056 A 
ATOM     27  N   LIG    1      -20.503  75.424  31.528  0.00  0.00    -0.256 NA
ATOM     28  C   LIG    1      -21.276  76.325  30.861  0.00  0.00    +0.144 A 
ATOM     29  C   LIG    1      -22.646  76.168  30.671  0.00  0.00    +0.143 A 
ATOM     30  N   LIG    1      -23.290  75.057  31.118  0.00  0.00    -0.247 NA
ATOM     31  C   LIG    1      -22.501  74.122  31.711  0.00  0.00    +0.134 A 
ENDBRANCH  23  29
BRANCH  23  32
ATOM     32  O   LIG    1      -23.126  77.414  28.713  0.00  0.00    -0.491 OA
ATOM     33  H   LIG    1      -22.303  77.884  28.520  0.00  0.00    +0.294 HD
ENDBRANCH  23  32
ENDBRANCH   1  24
TORSDOF 5
ENDMDL
MODEL 7
REMARK VINA RESULT:      -6.1     12.092     15.590
REMARK  Name = pdb/CHEMBL3969188.pdb
REMARK                            x       y       z     vdW  Elec       q    Type
REMARK                         _______ _______ _______ _____ _____    ______ ____
ROOT
ATOM      1  C   LIG    1      -25.736  77.124  31.508  0.00  0.00    +0.141 C 
ATOM      2  C   LIG    1      -25.533  77.576  32.786  0.00  0.00    +0.350 C 
ATOM      3  N   LIG    1      -24.697  78.520  33.334  0.00  0.00    -0.041 NA
ATOM      4  C   LIG    1      -24.888  78.836  34.592  0.00  0.00    +0.313 C 
ATOM      5  C   LIG    1      -25.981  78.217  35.426  0.00  0.00    +0.115 C 
ATOM      6  C   LIG    1      -26.676  77.207  34.880  0.00  0.00    +0.106 C 
ATOM      7  N   LIG    1      -26.439  76.848  33.565  0.00  0.00    -0.181 N 
ATOM      8  N   LIG    1      -26.997  75.817  32.885  0.00  0.00    -0.151 NA
ATOM      9  C   LIG    1      -26.530  75.973  31.644  0.00  0.00    +0.146 C 
ENDROOT
BRANCH   4  10
ATOM     10  N   LIG    1      -24.058  79.763  35.218  0.00  0.00    -0.214 N 
ATOM     11  C   LIG    1      -23.862  79.640  36.690  0.00  0.00    +0.201 C 
ATOM     12  C   LIG    1      -22.366  79.287  36.812  0.00  0.00    +0.056 C 
ATOM     13  C   LIG    1      -21.748  80.178  35.755  0.00  0.00    +0.048 C 
ATOM     14  C   LIG    1      -22.741  80.025  34.616  0.00  0.00    +0.226 C 
BRANCH  11  15
ATOM     15  C   LIG    1      -24.288  80.956  37.332  0.00  0.00    +0.033 A 
ATOM     16  C   LIG    1      -24.093  81.240  38.687  0.00  0.00    +0.131 A 
ATOM     17  F   LIG    1      -23.508  80.355  39.502  0.00  0.00    -0.205 F 
ATOM     18  C   LIG    1      -24.507  82.450  39.251  0.00  0.00    +0.041 A 
ATOM     19  C   LIG    1      -25.168  83.396  38.473  0.00  0.00    +0.041 A 
ATOM     20  C   LIG    1      -25.386  83.130  37.133  0.00  0.00    +0.124 A 
ATOM     21  F   LIG    1      -26.027  84.020  36.367  0.00  0.00    -0.205 F 
ATOM     22  C   LIG    1      -24.954  81.936  36.571  0.00  0.00    +0.048 A 
ENDBRANCH  11  15
ENDBRANCH   4  10
BRANCH   1  24
ATOM     23  C   LIG    1      -23.907  77.215  30.060  0.00  0.00    +0.241 C 
ATOM     24  N   LIG    1      -25.130  77.499  30.303  0.00  0.00    -0.208 NA
BRANCH  23  29
ATOM     25  C   LIG    1      -19.726  74.941  33.231  0.00  0.00    +0.067 C 
ATOM     26  C   LIG    1      -20.844  75.527  32.426  0.00  0.00    +0.056 A 
ATOM     27  N   LIG    1      -20.862  76.875  32.280  0.00  0.00    -0.256 NA
ATOM     28  C   LIG    1      -21.832  77.368  31.462  0.00  0.00    +0.144 A 
ATOM     29  C   LIG    1      -22.792  76.572  30.844  0.00  0.00    +0.143 A 
ATOM     30  N   LIG    1      -22.784  75.222  30.997  0.00  0.00    -0.247 NA
ATOM     31  C   LIG    1      -21.764  74.724  31.748  0.00  0.00    +0.134 A 
ENDBRANCH  23  29
BRANCH  23  32
ATOM     32  O   LIG    1      -23.476  77.596  28.818  0.00  0.00    -0.491 OA
ATOM     33  H   LIG    1      -24.068  78.176  28.320  0.00  0.00    +0.294 HD
ENDBRANCH  23  32
ENDBRANCH   1  24
TORSDOF 5
ENDMDL
MODEL 8
REMARK VINA RESULT:      -6.1     19.426     22.619
REMARK  Name = pdb/CHEMBL3969188.pdb
REMARK                            x       y       z     vdW  Elec       q    Type
REMARK                         _______ _______ _______ _____ _____    ______ ____
ROOT
ATOM      1  C   LIG    1      -19.571  87.254  13.372  0.00  0.00    +0.141 C 
ATOM      2  C   LIG    1      -19.181  85.961  13.136  0.00  0.00    +0.350 C 
ATOM      3  N   LIG    1      -19.341  84.784  13.829  0.00  0.00    -0.041 NA
ATOM      4  C   LIG    1      -18.991  83.676  13.222  0.00  0.00    +0.313 C 
ATOM      5  C   LIG    1      -18.446  83.659  11.817  0.00  0.00    +0.115 C 
ATOM      6  C   LIG    1      -18.186  84.844  11.243  0.00  0.00    +0.106 C 
ATOM      7  N   LIG    1      -18.516  86.012  11.906  0.00  0.00    -0.181 N 
ATOM      8  N   LIG    1      -18.263  87.281  11.505  0.00  0.00    -0.151 NA
ATOM      9  C   LIG    1      -18.876  88.028  12.427  0.00  0.00    +0.146 C 
ENDROOT
BRANCH   4  10
ATOM     10  N   LIG    1      -19.099  82.451  13.878  0.00  0.00    -0.214 N 
ATOM     11  C   LIG    1      -20.086  81.466  13.353  0.00  0.00    +0.201 C 
ATOM     12  C   LIG    1      -19.193  80.312  12.855  0.00  0.00    +0.056 C 
ATOM     13  C   LIG    1      -18.137  80.245  13.937  0.00  0.00    +0.048 C 
ATOM     14  C   LIG    1      -17.857  81.719  14.176  0.00  0.00    +0.226 C 
BRANCH  11  15
ATOM     15  C   LIG    1      -21.049  81.119  14.484  0.00  0.00    +0.033 A 
ATOM     16  C   LIG    1      -21.734  79.903  14.554  0.00  0.00    +0.131 A 
ATOM     17  F   LIG    1      -21.572  78.963  13.616  0.00  0.00    -0.205 F 
ATOM     18  C   LIG    1      -22.622  79.619  15.595  0.00  0.00    +0.041 A 
ATOM     19  C   LIG    1      -22.876  80.570  16.579  0.00  0.00    +0.041 A 
ATOM     20  C   LIG    1      -22.222  81.787  16.520  0.00  0.00    +0.124 A 
ATOM     21  F   LIG    1      -22.456  82.722  17.450  0.00  0.00    -0.205 F 
ATOM     22  C   LIG    1      -21.324  82.058  15.497  0.00  0.00    +0.048 A 
ENDBRANCH  11  15
ENDBRANCH   4  10
BRANCH   1  24
ATOM     23  C   LIG    1      -21.563  87.915  14.394  0.00  0.00    +0.241 C 
ATOM     24  N   LIG    1      -20.289  87.809  14.437  0.00  0.00    -0.208 NA
BRANCH  23  29
ATOM     25  C   LIG    1      -25.405  86.962  10.266  0.00  0.00    +0.067 C 
ATOM     26  C   LIG    1      -24.375  87.193  11.329  0.00  0.00    +0.056 A 
ATOM     27  N   LIG    1      -23.904  88.456  11.471  0.00  0.00    -0.256 NA
ATOM     28  C   LIG    1      -23.045  88.653  12.508  0.00  0.00    +0.144 A 
ATOM     29  C   LIG    1      -22.615  87.633  13.353  0.00  0.00    +0.143 A 
ATOM     30  N   LIG    1      -23.077  86.363  13.205  0.00  0.00    -0.247 NA
ATOM     31  C   LIG    1      -23.999  86.186  12.220  0.00  0.00    +0.134 A 
ENDBRANCH  23  29
BRANCH  23  32
ATOM     32  O   LIG    1      -22.125  88.424  15.533  0.00  0.00    -0.491 OA
ATOM     33  H   LIG    1      -21.904  87.970  16.358  0.00  0.00    +0.294 HD
ENDBRANCH  23  32
ENDBRANCH   1  24
TORSDOF 5
ENDMDL
MODEL 9
REMARK VINA RESULT:      -6.1     12.246     14.263
REMARK  Name = pdb/CHEMBL3969188.pdb
REMARK                            x       y       z     vdW  Elec       q    Type
REMARK                         _______ _______ _______ _____ _____    ______ ____
ROOT
ATOM      1  C   LIG    1      -25.192  76.347  31.386  0.00  0.00    +0.141 C 
ATOM      2  C   LIG    1      -25.509  75.051  31.699  0.00  0.00    +0.350 C 
ATOM      3  N   LIG    1      -25.524  73.880  30.978  0.00  0.00    -0.041 NA
ATOM      4  C   LIG    1      -25.711  72.766  31.642  0.00  0.00    +0.313 C 
ATOM      5  C   LIG    1      -25.893  72.736  33.138  0.00  0.00    +0.115 C 
ATOM      6  C   LIG    1      -26.005  73.915  33.769  0.00  0.00    +0.106 C 
ATOM      7  N   LIG    1      -25.851  75.089  33.055  0.00  0.00    -0.181 N 
ATOM      8  N   LIG    1      -25.999  76.355  33.517  0.00  0.00    -0.151 NA
ATOM      9  C   LIG    1      -25.634  77.111  32.480  0.00  0.00    +0.146 C 
ENDROOT
BRANCH   4  10
ATOM     10  N   LIG    1      -25.766  71.547  30.970  0.00  0.00    -0.214 N 
ATOM     11  C   LIG    1      -24.760  70.508  31.330  0.00  0.00    +0.201 C 
ATOM     12  C   LIG    1      -25.622  69.392  31.952  0.00  0.00    +0.056 C 
ATOM     13  C   LIG    1      -26.834  69.390  31.044  0.00  0.00    +0.048 C 
ATOM     14  C   LIG    1      -27.073  70.879  30.862  0.00  0.00    +0.226 C 
BRANCH  11  15
ATOM     15  C   LIG    1      -24.000  70.132  30.062  0.00  0.00    +0.033 A 
ATOM     16  C   LIG    1      -22.938  69.222  30.053  0.00  0.00    +0.131 A 
ATOM     17  F   LIG    1      -22.531  68.624  31.178  0.00  0.00    -0.205 F 
ATOM     18  C   LIG    1      -22.251  68.908  28.878  0.00  0.00    +0.041 A 
ATOM     19  C   LIG    1      -22.589  69.531  27.680  0.00  0.00    +0.041 A 
ATOM     20  C   LIG    1      -23.626  70.446  27.668  0.00  0.00    +0.124 A 
ATOM     21  F   LIG    1      -23.963  71.065  26.531  0.00  0.00    -0.205 F 
ATOM     22  C   LIG    1      -24.321  70.740  28.833  0.00  0.00    +0.048 A 
ENDBRANCH  11  15
ENDBRANCH   4  10
BRANCH   1  24
ATOM     23  C   LIG    1      -23.521  77.145  29.965  0.00  0.00    +0.241 C 
ATOM     24  N   LIG    1      -24.760  76.914  30.181  0.00  0.00    -0.208 NA
BRANCH  23  29
ATOM     25  C   LIG    1      -18.599  76.673  32.839  0.00  0.00    +0.067 C 
ATOM     26  C   LIG    1      -19.877  76.827  32.073  0.00  0.00    +0.056 A 
ATOM     27  N   LIG    1      -20.091  75.969  31.047  0.00  0.00    -0.256 NA
ATOM     28  C   LIG    1      -21.303  76.070  30.434  0.00  0.00    +0.144 A 
ATOM     29  C   LIG    1      -22.261  77.019  30.781  0.00  0.00    +0.143 A 
ATOM     30  N   LIG    1      -22.044  77.889  31.803  0.00  0.00    -0.247 NA
ATOM     31  C   LIG    1      -20.867  77.731  32.466  0.00  0.00    +0.134 A 
ENDBRANCH  23  29
BRANCH  23  32
ATOM     32  O   LIG    1      -23.250  77.646  28.720  0.00  0.00    -0.491 OA
ATOM     33  H   LIG    1      -23.739  77.252  27.985  0.00  0.00    +0.294 HD
ENDBRANCH  23  32
ENDBRANCH   1  24
TORSDOF 5
ENDMDL
