MODEL 1
REMARK VINA RESULT:      -6.3      0.000      0.000
REMARK  Name = pdb/CHEMBL3899684.pdb
REMARK                            x       y       z     vdW  Elec       q    Type
REMARK                         _______ _______ _______ _____ _____    ______ ____
ROOT
ATOM      1  C   LIG    1      -36.676  76.893  26.916  0.00  0.00    +0.149 A 
ATOM      2  N   LIG    1      -37.684  77.725  26.599  0.00  0.00    -0.160 NA
ATOM      3  N   LIG    1      -38.490  77.016  25.733  0.00  0.00    -0.218 N 
ATOM      4  C   LIG    1      -37.945  75.751  25.490  0.00  0.00    +0.129 A 
ATOM      5  C   LIG    1      -36.805  75.655  26.252  0.00  0.00    +0.078 A 
ENDROOT
BRANCH   3   6
ATOM      6  C   LIG    1      -39.748  77.567  25.329  0.00  0.00    +0.067 A 
ATOM      7  C   LIG    1      -40.151  77.463  23.989  0.00  0.00    +0.028 A 
ATOM      8  C   LIG    1      -41.385  77.981  23.575  0.00  0.00    +0.002 A 
ATOM      9  C   LIG    1      -42.240  78.584  24.493  0.00  0.00    +0.000 A 
ATOM     10  C   LIG    1      -41.847  78.707  25.819  0.00  0.00    +0.002 A 
ATOM     11  C   LIG    1      -40.596  78.234  26.222  0.00  0.00    +0.028 A 
ENDBRANCH   3   6
BRANCH   4  12
ATOM     12  N   LIG    1      -38.399  74.667  24.743  0.00  0.00    -0.266 N 
ATOM     13  H   LIG    1      -38.176  74.672  23.750  0.00  0.00    +0.157 HD
ATOM     14  C   LIG    1      -39.378  73.746  25.235  0.00  0.00    +0.251 C 
ATOM     15  O   LIG    1      -39.848  73.910  26.358  0.00  0.00    -0.270 OA
BRANCH  14  16
ATOM     16  C   LIG    1      -39.713  72.570  24.390  0.00  0.00    +0.056 A 
ATOM     17  C   LIG    1      -40.846  72.498  23.578  0.00  0.00    +0.054 A 
ATOM     18 CL   LIG    1      -42.024  73.756  23.469  0.00  0.00    -0.083 Cl
ATOM     19  C   LIG    1      -41.091  71.346  22.832  0.00  0.00    +0.041 A 
ATOM     20  C   LIG    1      -40.221  70.246  22.882  0.00  0.00    +0.052 A 
ATOM     21 CL   LIG    1      -40.776  68.844  22.034  0.00  0.00    -0.083 Cl
ATOM     22  C   LIG    1      -39.040  70.287  23.650  0.00  0.00    +0.022 A 
ATOM     23  C   LIG    1      -38.825  71.472  24.408  0.00  0.00    +0.026 A 
BRANCH  22  24
ATOM     24  C   LIG    1      -38.052  69.180  23.769  0.00  0.00    +0.107 A 
ATOM     25  C   LIG    1      -37.144  68.794  22.780  0.00  0.00    +0.149 A 
ATOM     26  F   LIG    1      -37.021  69.464  21.627  0.00  0.00    -0.203 F 
ATOM     27  C   LIG    1      -36.287  67.717  23.000  0.00  0.00    +0.042 A 
ATOM     28  C   LIG    1      -36.303  67.076  24.231  0.00  0.00    +0.023 A 
ATOM     29  C   LIG    1      -37.185  67.542  25.190  0.00  0.00    +0.111 A 
ATOM     30  N   LIG    1      -38.054  68.562  24.986  0.00  0.00    -0.252 NA
ENDBRANCH  22  24
ENDBRANCH  14  16
ENDBRANCH   4  12
BRANCH   1  32
ATOM     31  N   LIG    1      -34.656  78.049  27.445  0.00  0.00    -0.249 NA
ATOM     32  C   LIG    1      -35.614  77.289  27.845  0.00  0.00    +0.236 C 
BRANCH  32  33
ATOM     33  O   LIG    1      -35.721  76.808  29.105  0.00  0.00    -0.491 OA
ATOM     34  H   LIG    1      -35.301  75.929  29.152  0.00  0.00    +0.294 HD
ENDBRANCH  32  33
BRANCH  31  35
ATOM     35  C   LIG    1      -33.657  78.421  28.453  0.00  0.00    +0.147 C 
BRANCH  35  36
ATOM     36  C   LIG    1      -32.257  78.101  27.925  0.00  0.00    +0.051 C 
BRANCH  36  37
ATOM     37  C   LIG    1      -32.265  77.672  26.464  0.00  0.00    +0.157 C 
BRANCH  37  38
ATOM     38  O   LIG    1      -32.298  78.831  25.637  0.00  0.00    -0.395 OA
ATOM     39  H   LIG    1      -31.819  78.610  24.820  0.00  0.00    +0.209 HD
ENDBRANCH  37  38
ENDBRANCH  36  37
ENDBRANCH  35  36
ENDBRANCH  31  35
ENDBRANCH   1  32
TORSDOF 10
ENDMDL
MODEL 2
REMARK VINA RESULT:      -6.2      3.943      9.016
REMARK  Name = pdb/CHEMBL3899684.pdb
REMARK                            x       y       z     vdW  Elec       q    Type
REMARK                         _______ _______ _______ _____ _____    ______ ____
ROOT
ATOM      1  C   LIG    1      -40.180  71.770  23.820  0.00  0.00    +0.149 A 
ATOM      2  N   LIG    1      -40.586  73.045  23.681  0.00  0.00    -0.160 NA
ATOM      3  N   LIG    1      -39.617  73.811  24.292  0.00  0.00    -0.218 N 
ATOM      4  C   LIG    1      -38.627  72.991  24.845  0.00  0.00    +0.129 A 
ATOM      5  C   LIG    1      -38.964  71.696  24.533  0.00  0.00    +0.078 A 
ENDROOT
BRANCH   3   6
ATOM      6  C   LIG    1      -39.670  75.237  24.179  0.00  0.00    +0.067 A 
ATOM      7  C   LIG    1      -38.556  76.004  24.557  0.00  0.00    +0.028 A 
ATOM      8  C   LIG    1      -38.581  77.400  24.439  0.00  0.00    +0.002 A 
ATOM      9  C   LIG    1      -39.701  78.044  23.922  0.00  0.00    +0.000 A 
ATOM     10  C   LIG    1      -40.816  77.299  23.560  0.00  0.00    +0.002 A 
ATOM     11  C   LIG    1      -40.809  75.911  23.723  0.00  0.00    +0.028 A 
ENDBRANCH   3   6
BRANCH   4  12
ATOM     12  N   LIG    1      -37.438  73.281  25.507  0.00  0.00    -0.266 N 
ATOM     13  H   LIG    1      -36.576  73.015  25.035  0.00  0.00    +0.157 HD
ATOM     14  C   LIG    1      -37.393  73.648  26.889  0.00  0.00    +0.251 C 
ATOM     15  O   LIG    1      -38.439  73.706  27.531  0.00  0.00    -0.270 OA
BRANCH  14  16
ATOM     16  C   LIG    1      -36.078  74.034  27.465  0.00  0.00    +0.056 A 
ATOM     17  C   LIG    1      -35.210  73.134  28.084  0.00  0.00    +0.054 A 
ATOM     18 CL   LIG    1      -35.561  71.456  28.290  0.00  0.00    -0.083 Cl
ATOM     19  C   LIG    1      -34.002  73.589  28.614  0.00  0.00    +0.041 A 
ATOM     20  C   LIG    1      -33.638  74.943  28.540  0.00  0.00    +0.052 A 
ATOM     21 CL   LIG    1      -32.196  75.353  29.403  0.00  0.00    -0.083 Cl
ATOM     22  C   LIG    1      -34.458  75.882  27.883  0.00  0.00    +0.022 A 
ATOM     23  C   LIG    1      -35.688  75.388  27.365  0.00  0.00    +0.026 A 
BRANCH  22  24
ATOM     24  C   LIG    1      -34.164  77.334  27.748  0.00  0.00    +0.107 A 
ATOM     25  C   LIG    1      -33.039  77.880  27.125  0.00  0.00    +0.149 A 
ATOM     26  F   LIG    1      -32.134  77.116  26.498  0.00  0.00    -0.203 F 
ATOM     27  C   LIG    1      -32.860  79.261  27.089  0.00  0.00    +0.042 A 
ATOM     28  C   LIG    1      -33.839  80.087  27.622  0.00  0.00    +0.023 A 
ATOM     29  C   LIG    1      -34.958  79.489  28.174  0.00  0.00    +0.111 A 
ATOM     30  N   LIG    1      -35.136  78.148  28.255  0.00  0.00    -0.252 NA
ENDBRANCH  22  24
ENDBRANCH  14  16
ENDBRANCH   4  12
BRANCH   1  32
ATOM     31  N   LIG    1      -40.996  70.457  22.002  0.00  0.00    -0.249 NA
ATOM     32  C   LIG    1      -40.951  70.651  23.272  0.00  0.00    +0.236 C 
BRANCH  32  33
ATOM     33  O   LIG    1      -41.585  69.872  24.179  0.00  0.00    -0.491 OA
ATOM     34  H   LIG    1      -42.544  70.049  24.144  0.00  0.00    +0.294 HD
ENDBRANCH  32  33
BRANCH  31  35
ATOM     35  C   LIG    1      -41.763  69.292  21.548  0.00  0.00    +0.147 C 
BRANCH  35  36
ATOM     36  C   LIG    1      -43.051  69.763  20.870  0.00  0.00    +0.051 C 
BRANCH  36  37
ATOM     37  C   LIG    1      -42.867  71.063  20.100  0.00  0.00    +0.157 C 
BRANCH  37  38
ATOM     38  O   LIG    1      -43.166  70.839  18.726  0.00  0.00    -0.395 OA
ATOM     39  H   LIG    1      -43.079  71.695  18.273  0.00  0.00    +0.209 HD
ENDBRANCH  37  38
ENDBRANCH  36  37
ENDBRANCH  35  36
ENDBRANCH  31  35
ENDBRANCH   1  32
TORSDOF 10
ENDMDL
MODEL 3
REMARK VINA RESULT:      -6.1      2.299      3.950
REMARK  Name = pdb/CHEMBL3899684.pdb
REMARK                            x       y       z     vdW  Elec       q    Type
REMARK                         _______ _______ _______ _____ _____    ______ ____
ROOT
ATOM      1  C   LIG    1      -36.677  76.842  26.783  0.00  0.00    +0.149 A 
ATOM      2  N   LIG    1      -37.576  77.761  26.385  0.00  0.00    -0.160 NA
ATOM      3  N   LIG    1      -38.409  77.104  25.505  0.00  0.00    -0.218 N 
ATOM      4  C   LIG    1      -37.990  75.781  25.335  0.00  0.00    +0.129 A 
ATOM      5  C   LIG    1      -36.905  75.599  26.157  0.00  0.00    +0.078 A 
ENDROOT
BRANCH   3   6
ATOM      6  C   LIG    1      -39.582  77.766  25.018  0.00  0.00    +0.067 A 
ATOM      7  C   LIG    1      -40.849  77.320  25.425  0.00  0.00    +0.028 A 
ATOM      8  C   LIG    1      -42.009  77.964  24.973  0.00  0.00    +0.002 A 
ATOM      9  C   LIG    1      -41.919  79.070  24.134  0.00  0.00    +0.000 A 
ATOM     10  C   LIG    1      -40.673  79.513  23.711  0.00  0.00    +0.002 A 
ATOM     11  C   LIG    1      -39.519  78.841  24.122  0.00  0.00    +0.028 A 
ENDBRANCH   3   6
BRANCH   4  12
ATOM     12  N   LIG    1      -38.521  74.721  24.604  0.00  0.00    -0.266 N 
ATOM     13  H   LIG    1      -38.339  74.722  23.603  0.00  0.00    +0.157 HD
ATOM     14  C   LIG    1      -39.516  73.840  25.133  0.00  0.00    +0.251 C 
ATOM     15  O   LIG    1      -39.932  74.018  26.275  0.00  0.00    -0.270 OA
BRANCH  14  16
ATOM     16  C   LIG    1      -39.935  72.683  24.299  0.00  0.00    +0.056 A 
ATOM     17  C   LIG    1      -39.193  71.508  24.177  0.00  0.00    +0.054 A 
ATOM     18 CL   LIG    1      -37.674  71.252  24.958  0.00  0.00    -0.083 Cl
ATOM     19  C   LIG    1      -39.654  70.479  23.356  0.00  0.00    +0.041 A 
ATOM     20  C   LIG    1      -40.855  70.601  22.640  0.00  0.00    +0.052 A 
ATOM     21 CL   LIG    1      -41.177  69.305  21.540  0.00  0.00    -0.083 Cl
ATOM     22  C   LIG    1      -41.664  71.748  22.765  0.00  0.00    +0.022 A 
ATOM     23  C   LIG    1      -41.159  72.783  23.601  0.00  0.00    +0.026 A 
BRANCH  22  24
ATOM     24  C   LIG    1      -42.951  71.974  22.055  0.00  0.00    +0.107 A 
ATOM     25  C   LIG    1      -43.115  72.024  20.668  0.00  0.00    +0.149 A 
ATOM     26  F   LIG    1      -42.104  71.779  19.825  0.00  0.00    -0.203 F 
ATOM     27  C   LIG    1      -44.371  72.274  20.121  0.00  0.00    +0.042 A 
ATOM     28  C   LIG    1      -45.465  72.412  20.964  0.00  0.00    +0.023 A 
ATOM     29  C   LIG    1      -45.249  72.296  22.326  0.00  0.00    +0.111 A 
ATOM     30  N   LIG    1      -44.030  72.090  22.883  0.00  0.00    -0.252 NA
ENDBRANCH  22  24
ENDBRANCH  14  16
ENDBRANCH   4  12
BRANCH   1  32
ATOM     31  N   LIG    1      -34.409  76.807  27.525  0.00  0.00    -0.249 NA
ATOM     32  C   LIG    1      -35.624  77.163  27.750  0.00  0.00    +0.236 C 
BRANCH  32  33
ATOM     33  O   LIG    1      -36.022  77.837  28.854  0.00  0.00    -0.491 OA
ATOM     34  H   LIG    1      -35.529  77.509  29.629  0.00  0.00    +0.294 HD
ENDBRANCH  32  33
BRANCH  31  35
ATOM     35  C   LIG    1      -33.418  77.202  28.532  0.00  0.00    +0.147 C 
BRANCH  35  36
ATOM     36  C   LIG    1      -32.356  78.091  27.880  0.00  0.00    +0.051 C 
BRANCH  36  37
ATOM     37  C   LIG    1      -32.061  77.692  26.440  0.00  0.00    +0.157 C 
BRANCH  37  38
ATOM     38  O   LIG    1      -32.404  78.772  25.577  0.00  0.00    -0.395 OA
ATOM     39  H   LIG    1      -33.292  78.584  25.227  0.00  0.00    +0.209 HD
ENDBRANCH  37  38
ENDBRANCH  36  37
ENDBRANCH  35  36
ENDBRANCH  31  35
ENDBRANCH   1  32
TORSDOF 10
ENDMDL
MODEL 4
REMARK VINA RESULT:      -6.1     17.877     21.010
REMARK  Name = pdb/CHEMBL3899684.pdb
REMARK                            x       y       z     vdW  Elec       q    Type
REMARK                         _______ _______ _______ _____ _____    ______ ____
ROOT
ATOM      1  C   LIG    1      -24.832  82.816  37.058  0.00  0.00    +0.149 A 
ATOM      2  N   LIG    1      -23.941  83.348  37.913  0.00  0.00    -0.160 NA
ATOM      3  N   LIG    1      -22.811  82.566  37.802  0.00  0.00    -0.218 N 
ATOM      4  C   LIG    1      -23.029  81.522  36.898  0.00  0.00    +0.129 A 
ATOM      5  C   LIG    1      -24.302  81.683  36.405  0.00  0.00    +0.078 A 
ENDROOT
BRANCH   3   6
ATOM      6  C   LIG    1      -21.609  82.966  38.471  0.00  0.00    +0.067 A 
ATOM      7  C   LIG    1      -20.640  83.703  37.772  0.00  0.00    +0.028 A 
ATOM      8  C   LIG    1      -19.465  84.119  38.411  0.00  0.00    +0.002 A 
ATOM      9  C   LIG    1      -19.253  83.827  39.756  0.00  0.00    +0.000 A 
ATOM     10  C   LIG    1      -20.196  83.085  40.454  0.00  0.00    +0.002 A 
ATOM     11  C   LIG    1      -21.345  82.629  39.804  0.00  0.00    +0.028 A 
ENDBRANCH   3   6
BRANCH   4  12
ATOM     12  N   LIG    1      -22.196  80.516  36.416  0.00  0.00    -0.266 N 
ATOM     13  H   LIG    1      -22.197  79.638  36.930  0.00  0.00    +0.157 HD
ATOM     14  C   LIG    1      -21.167  80.761  35.452  0.00  0.00    +0.251 C 
ATOM     15  O   LIG    1      -20.998  81.902  35.030  0.00  0.00    -0.270 OA
BRANCH  14  16
ATOM     16  C   LIG    1      -20.406  79.594  34.935  0.00  0.00    +0.056 A 
ATOM     17  C   LIG    1      -19.271  79.073  35.557  0.00  0.00    +0.054 A 
ATOM     18 CL   LIG    1      -18.583  79.733  36.997  0.00  0.00    -0.083 Cl
ATOM     19  C   LIG    1      -18.608  77.986  34.989  0.00  0.00    +0.041 A 
ATOM     20  C   LIG    1      -19.057  77.400  33.795  0.00  0.00    +0.052 A 
ATOM     21 CL   LIG    1      -18.012  76.182  33.149  0.00  0.00    -0.083 Cl
ATOM     22  C   LIG    1      -20.224  77.859  33.154  0.00  0.00    +0.022 A 
ATOM     23  C   LIG    1      -20.870  78.977  33.752  0.00  0.00    +0.026 A 
BRANCH  22  24
ATOM     24  C   LIG    1      -20.785  77.309  31.891  0.00  0.00    +0.107 A 
ATOM     25  C   LIG    1      -21.977  76.589  31.777  0.00  0.00    +0.149 A 
ATOM     26  F   LIG    1      -22.791  76.395  32.823  0.00  0.00    -0.203 F 
ATOM     27  C   LIG    1      -22.382  76.097  30.539  0.00  0.00    +0.042 A 
ATOM     28  C   LIG    1      -21.623  76.383  29.413  0.00  0.00    +0.023 A 
ATOM     29  C   LIG    1      -20.483  77.149  29.580  0.00  0.00    +0.111 A 
ATOM     30  N   LIG    1      -20.049  77.607  30.780  0.00  0.00    -0.252 NA
ENDBRANCH  22  24
ENDBRANCH  14  16
ENDBRANCH   4  12
BRANCH   1  32
ATOM     31  N   LIG    1      -26.303  84.656  36.677  0.00  0.00    -0.249 NA
ATOM     32  C   LIG    1      -26.167  83.394  36.877  0.00  0.00    +0.236 C 
BRANCH  32  33
ATOM     33  O   LIG    1      -27.200  82.522  36.935  0.00  0.00    -0.491 OA
ATOM     34  H   LIG    1      -27.359  82.148  36.048  0.00  0.00    +0.294 HD
ENDBRANCH  32  33
BRANCH  31  35
ATOM     35  C   LIG    1      -27.673  85.139  36.472  0.00  0.00    +0.147 C 
BRANCH  35  36
ATOM     36  C   LIG    1      -27.883  85.463  34.992  0.00  0.00    +0.051 C 
BRANCH  36  37
ATOM     37  C   LIG    1      -27.724  86.947  34.688  0.00  0.00    +0.157 C 
BRANCH  37  38
ATOM     38  O   LIG    1      -26.446  87.381  35.138  0.00  0.00    -0.395 OA
ATOM     39  H   LIG    1      -25.867  86.600  35.146  0.00  0.00    +0.209 HD
ENDBRANCH  37  38
ENDBRANCH  36  37
ENDBRANCH  35  36
ENDBRANCH  31  35
ENDBRANCH   1  32
TORSDOF 10
ENDMDL
MODEL 5
REMARK VINA RESULT:      -6.1     14.063     16.296
REMARK  Name = pdb/CHEMBL3899684.pdb
REMARK                            x       y       z     vdW  Elec       q    Type
REMARK                         _______ _______ _______ _____ _____    ______ ____
ROOT
ATOM      1  C   LIG    1      -24.241  78.362  34.217  0.00  0.00    +0.149 A 
ATOM      2  N   LIG    1      -23.201  78.516  33.378  0.00  0.00    -0.160 NA
ATOM      3  N   LIG    1      -23.098  77.322  32.695  0.00  0.00    -0.218 N 
ATOM      4  C   LIG    1      -24.061  76.417  33.152  0.00  0.00    +0.129 A 
ATOM      5  C   LIG    1      -24.805  77.073  34.103  0.00  0.00    +0.078 A 
ENDROOT
BRANCH   3   6
ATOM      6  C   LIG    1      -22.180  77.213  31.602  0.00  0.00    +0.067 A 
ATOM      7  C   LIG    1      -20.848  77.620  31.773  0.00  0.00    +0.028 A 
ATOM      8  C   LIG    1      -19.928  77.506  30.722  0.00  0.00    +0.002 A 
ATOM      9  C   LIG    1      -20.318  76.965  29.501  0.00  0.00    +0.000 A 
ATOM     10  C   LIG    1      -21.636  76.572  29.313  0.00  0.00    +0.002 A 
ATOM     11  C   LIG    1      -22.564  76.730  30.345  0.00  0.00    +0.028 A 
ENDBRANCH   3   6
BRANCH   4  12
ATOM     12  N   LIG    1      -24.390  75.124  32.752  0.00  0.00    -0.266 N 
ATOM     13  H   LIG    1      -23.802  74.374  33.107  0.00  0.00    +0.157 HD
ATOM     14  C   LIG    1      -25.292  74.856  31.674  0.00  0.00    +0.251 C 
ATOM     15  O   LIG    1      -25.799  75.795  31.065  0.00  0.00    -0.270 OA
BRANCH  14  16
ATOM     16  C   LIG    1      -25.648  73.438  31.401  0.00  0.00    +0.056 A 
ATOM     17  C   LIG    1      -26.899  72.888  31.679  0.00  0.00    +0.054 A 
ATOM     18 CL   LIG    1      -28.194  73.773  32.402  0.00  0.00    -0.083 Cl
ATOM     19  C   LIG    1      -27.139  71.541  31.407  0.00  0.00    +0.041 A 
ATOM     20  C   LIG    1      -26.141  70.719  30.860  0.00  0.00    +0.052 A 
ATOM     21 CL   LIG    1      -26.559  69.043  30.757  0.00  0.00    -0.083 Cl
ATOM     22  C   LIG    1      -24.877  71.238  30.519  0.00  0.00    +0.022 A 
ATOM     23  C   LIG    1      -24.661  72.612  30.820  0.00  0.00    +0.026 A 
BRANCH  22  24
ATOM     24  C   LIG    1      -23.755  70.455  29.934  0.00  0.00    +0.107 A 
ATOM     25  C   LIG    1      -23.671  70.024  28.608  0.00  0.00    +0.149 A 
ATOM     26  F   LIG    1      -24.588  70.361  27.692  0.00  0.00    -0.203 F 
ATOM     27  C   LIG    1      -22.579  69.268  28.186  0.00  0.00    +0.042 A 
ATOM     28  C   LIG    1      -21.550  69.003  29.079  0.00  0.00    +0.023 A 
ATOM     29  C   LIG    1      -21.664  69.506  30.363  0.00  0.00    +0.111 A 
ATOM     30  N   LIG    1      -22.733  70.211  30.807  0.00  0.00    -0.252 NA
ENDBRANCH  22  24
ENDBRANCH  14  16
ENDBRANCH   4  12
BRANCH   1  32
ATOM     31  N   LIG    1      -23.874  80.394  35.413  0.00  0.00    -0.249 NA
ATOM     32  C   LIG    1      -24.679  79.440  35.107  0.00  0.00    +0.236 C 
BRANCH  32  33
ATOM     33  O   LIG    1      -25.951  79.350  35.562  0.00  0.00    -0.491 OA
ATOM     34  H   LIG    1      -26.360  80.235  35.558  0.00  0.00    +0.294 HD
ENDBRANCH  32  33
BRANCH  31  35
ATOM     35  C   LIG    1      -24.411  81.447  36.282  0.00  0.00    +0.147 C 
BRANCH  35  36
ATOM     36  C   LIG    1      -23.351  82.532  36.483  0.00  0.00    +0.051 C 
BRANCH  36  37
ATOM     37  C   LIG    1      -21.934  82.012  36.280  0.00  0.00    +0.157 C 
BRANCH  37  38
ATOM     38  O   LIG    1      -21.024  83.106  36.333  0.00  0.00    -0.395 OA
ATOM     39  H   LIG    1      -21.175  83.640  35.535  0.00  0.00    +0.209 HD
ENDBRANCH  37  38
ENDBRANCH  36  37
ENDBRANCH  35  36
ENDBRANCH  31  35
ENDBRANCH   1  32
TORSDOF 10
ENDMDL
MODEL 6
REMARK VINA RESULT:      -6.0      3.651      5.694
REMARK  Name = pdb/CHEMBL3899684.pdb
REMARK                            x       y       z     vdW  Elec       q    Type
REMARK                         _______ _______ _______ _____ _____    ______ ____
ROOT
ATOM      1  C   LIG    1      -36.741  76.526  26.287  0.00  0.00    +0.149 A 
ATOM      2  N   LIG    1      -37.368  77.716  26.247  0.00  0.00    -0.160 NA
ATOM      3  N   LIG    1      -38.462  77.529  25.429  0.00  0.00    -0.218 N 
ATOM      4  C   LIG    1      -38.480  76.221  24.933  0.00  0.00    +0.129 A 
ATOM      5  C   LIG    1      -37.404  75.571  25.488  0.00  0.00    +0.078 A 
ENDROOT
BRANCH   3   6
ATOM      6  C   LIG    1      -39.435  78.571  25.304  0.00  0.00    +0.067 A 
ATOM      7  C   LIG    1      -40.266  78.877  26.394  0.00  0.00    +0.028 A 
ATOM      8  C   LIG    1      -41.213  79.904  26.300  0.00  0.00    +0.002 A 
ATOM      9  C   LIG    1      -41.328  80.653  25.131  0.00  0.00    +0.000 A 
ATOM     10  C   LIG    1      -40.523  80.351  24.041  0.00  0.00    +0.002 A 
ATOM     11  C   LIG    1      -39.612  79.295  24.119  0.00  0.00    +0.028 A 
ENDBRANCH   3   6
BRANCH   4  12
ATOM     12  N   LIG    1      -39.388  75.542  24.126  0.00  0.00    -0.266 N 
ATOM     13  H   LIG    1      -39.234  75.596  23.121  0.00  0.00    +0.157 HD
ATOM     14  C   LIG    1      -40.638  75.048  24.615  0.00  0.00    +0.251 C 
ATOM     15  O   LIG    1      -40.937  75.229  25.793  0.00  0.00    -0.270 OA
BRANCH  14  16
ATOM     16  C   LIG    1      -41.483  74.250  23.688  0.00  0.00    +0.056 A 
ATOM     17  C   LIG    1      -41.241  72.911  23.380  0.00  0.00    +0.054 A 
ATOM     18 CL   LIG    1      -39.912  72.009  24.016  0.00  0.00    -0.083 Cl
ATOM     19  C   LIG    1      -42.076  72.245  22.483  0.00  0.00    +0.041 A 
ATOM     20  C   LIG    1      -43.159  72.897  21.874  0.00  0.00    +0.052 A 
ATOM     21 CL   LIG    1      -43.973  71.970  20.660  0.00  0.00    -0.083 Cl
ATOM     22  C   LIG    1      -43.473  74.234  22.187  0.00  0.00    +0.022 A 
ATOM     23  C   LIG    1      -42.595  74.888  23.096  0.00  0.00    +0.026 A 
BRANCH  22  24
ATOM     24  C   LIG    1      -44.597  75.014  21.601  0.00  0.00    +0.107 A 
ATOM     25  C   LIG    1      -45.815  75.281  22.232  0.00  0.00    +0.149 A 
ATOM     26  F   LIG    1      -46.054  74.915  23.498  0.00  0.00    -0.203 F 
ATOM     27  C   LIG    1      -46.805  75.999  21.566  0.00  0.00    +0.042 A 
ATOM     28  C   LIG    1      -46.545  76.498  20.297  0.00  0.00    +0.023 A 
ATOM     29  C   LIG    1      -45.300  76.250  19.748  0.00  0.00    +0.111 A 
ATOM     30  N   LIG    1      -44.335  75.522  20.361  0.00  0.00    -0.252 NA
ENDBRANCH  22  24
ENDBRANCH  14  16
ENDBRANCH   4  12
BRANCH   1  32
ATOM     31  N   LIG    1      -34.810  77.326  27.439  0.00  0.00    -0.249 NA
ATOM     32  C   LIG    1      -35.528  76.321  27.084  0.00  0.00    +0.236 C 
BRANCH  32  33
ATOM     33  O   LIG    1      -35.241  75.037  27.400  0.00  0.00    -0.491 OA
ATOM     34  H   LIG    1      -35.421  74.888  28.347  0.00  0.00    +0.294 HD
ENDBRANCH  32  33
BRANCH  31  35
ATOM     35  C   LIG    1      -33.634  77.027  28.264  0.00  0.00    +0.147 C 
BRANCH  35  36
ATOM     36  C   LIG    1      -32.471  77.927  27.840  0.00  0.00    +0.051 C 
BRANCH  36  37
ATOM     37  C   LIG    1      -32.041  77.689  26.398  0.00  0.00    +0.157 C 
BRANCH  37  38
ATOM     38  O   LIG    1      -32.476  78.782  25.595  0.00  0.00    -0.395 OA
ATOM     39  H   LIG    1      -32.675  79.517  26.200  0.00  0.00    +0.209 HD
ENDBRANCH  37  38
ENDBRANCH  36  37
ENDBRANCH  35  36
ENDBRANCH  31  35
ENDBRANCH   1  32
TORSDOF 10
ENDMDL
MODEL 7
REMARK VINA RESULT:      -6.0     17.327     21.615
REMARK  Name = pdb/CHEMBL3899684.pdb
REMARK                            x       y       z     vdW  Elec       q    Type
REMARK                         _______ _______ _______ _____ _____    ______ ____
ROOT
ATOM      1  C   LIG    1      -26.098  77.748  13.923  0.00  0.00    +0.149 A 
ATOM      2  N   LIG    1      -24.912  77.771  14.557  0.00  0.00    -0.160 NA
ATOM      3  N   LIG    1      -24.434  79.055  14.399  0.00  0.00    -0.218 N 
ATOM      4  C   LIG    1      -25.321  79.811  13.626  0.00  0.00    +0.129 A 
ATOM      5  C   LIG    1      -26.390  78.998  13.337  0.00  0.00    +0.078 A 
ENDROOT
BRANCH   3   6
ATOM      6  C   LIG    1      -23.252  79.458  15.099  0.00  0.00    +0.067 A 
ATOM      7  C   LIG    1      -22.057  78.748  14.907  0.00  0.00    +0.028 A 
ATOM      8  C   LIG    1      -20.884  79.135  15.569  0.00  0.00    +0.002 A 
ATOM      9  C   LIG    1      -20.883  80.245  16.409  0.00  0.00    +0.000 A 
ATOM     10  C   LIG    1      -22.062  80.947  16.620  0.00  0.00    +0.002 A 
ATOM     11  C   LIG    1      -23.242  80.532  15.998  0.00  0.00    +0.028 A 
ENDBRANCH   3   6
BRANCH   4  12
ATOM     12  N   LIG    1      -25.313  81.149  13.239  0.00  0.00    -0.266 N 
ATOM     13  H   LIG    1      -26.138  81.696  13.473  0.00  0.00    +0.157 HD
ATOM     14  C   LIG    1      -24.366  81.676  12.305  0.00  0.00    +0.251 C 
ATOM     15  O   LIG    1      -23.524  80.929  11.814  0.00  0.00    -0.270 OA
BRANCH  14  16
ATOM     16  C   LIG    1      -24.389  83.139  12.042  0.00  0.00    +0.056 A 
ATOM     17  C   LIG    1      -25.393  83.779  11.314  0.00  0.00    +0.054 A 
ATOM     18 CL   LIG    1      -26.728  82.951  10.597  0.00  0.00    -0.083 Cl
ATOM     19  C   LIG    1      -25.323  85.155  11.100  0.00  0.00    +0.041 A 
ATOM     20  C   LIG    1      -24.257  85.918  11.601  0.00  0.00    +0.052 A 
ATOM     21 CL   LIG    1      -24.245  87.571  11.089  0.00  0.00    -0.083 Cl
ATOM     22  C   LIG    1      -23.244  85.327  12.382  0.00  0.00    +0.022 A 
ATOM     23  C   LIG    1      -23.338  83.920  12.571  0.00  0.00    +0.026 A 
BRANCH  22  24
ATOM     24  C   LIG    1      -22.076  86.044  12.961  0.00  0.00    +0.107 A 
ATOM     25  C   LIG    1      -21.916  86.382  14.307  0.00  0.00    +0.149 A 
ATOM     26  F   LIG    1      -22.796  86.003  15.243  0.00  0.00    -0.203 F 
ATOM     27  C   LIG    1      -20.787  87.084  14.723  0.00  0.00    +0.042 A 
ATOM     28  C   LIG    1      -19.797  87.387  13.799  0.00  0.00    +0.023 A 
ATOM     29  C   LIG    1      -19.985  86.975  12.492  0.00  0.00    +0.111 A 
ATOM     30  N   LIG    1      -21.092  86.325  12.057  0.00  0.00    -0.252 NA
ENDBRANCH  22  24
ENDBRANCH  14  16
ENDBRANCH   4  12
BRANCH   1  32
ATOM     31  N   LIG    1      -26.669  75.600  13.053  0.00  0.00    -0.249 NA
ATOM     32  C   LIG    1      -26.930  76.542  13.888  0.00  0.00    +0.236 C 
BRANCH  32  33
ATOM     33  O   LIG    1      -27.953  76.506  14.773  0.00  0.00    -0.491 OA
ATOM     34  H   LIG    1      -27.644  76.827  15.640  0.00  0.00    +0.294 HD
ENDBRANCH  32  33
BRANCH  31  35
ATOM     35  C   LIG    1      -27.534  74.417  13.115  0.00  0.00    +0.147 C 
BRANCH  35  36
ATOM     36  C   LIG    1      -28.250  74.239  11.775  0.00  0.00    +0.051 C 
BRANCH  36  37
ATOM     37  C   LIG    1      -29.674  74.779  11.794  0.00  0.00    +0.157 C 
BRANCH  37  38
ATOM     38  O   LIG    1      -29.650  76.144  12.197  0.00  0.00    -0.395 OA
ATOM     39  H   LIG    1      -29.948  76.670  11.435  0.00  0.00    +0.209 HD
ENDBRANCH  37  38
ENDBRANCH  36  37
ENDBRANCH  35  36
ENDBRANCH  31  35
ENDBRANCH   1  32
TORSDOF 10
ENDMDL
MODEL 8
REMARK VINA RESULT:      -6.0      4.813      9.716
REMARK  Name = pdb/CHEMBL3899684.pdb
REMARK                            x       y       z     vdW  Elec       q    Type
REMARK                         _______ _______ _______ _____ _____    ______ ____
ROOT
ATOM      1  C   LIG    1      -36.580  69.607  25.320  0.00  0.00    +0.149 A 
ATOM      2  N   LIG    1      -37.556  70.531  25.393  0.00  0.00    -0.160 NA
ATOM      3  N   LIG    1      -36.971  71.640  25.966  0.00  0.00    -0.218 N 
ATOM      4  C   LIG    1      -35.635  71.376  26.283  0.00  0.00    +0.129 A 
ATOM      5  C   LIG    1      -35.371  70.096  25.858  0.00  0.00    +0.078 A 
ENDROOT
BRANCH   3   6
ATOM      6  C   LIG    1      -37.707  72.866  26.038  0.00  0.00    +0.067 A 
ATOM      7  C   LIG    1      -38.004  73.423  27.292  0.00  0.00    +0.028 A 
ATOM      8  C   LIG    1      -38.708  74.631  27.385  0.00  0.00    +0.002 A 
ATOM      9  C   LIG    1      -39.102  75.307  26.235  0.00  0.00    +0.000 A 
ATOM     10  C   LIG    1      -38.829  74.760  24.988  0.00  0.00    +0.002 A 
ATOM     11  C   LIG    1      -38.169  73.532  24.896  0.00  0.00    +0.028 A 
ENDBRANCH   3   6
BRANCH   4  12
ATOM     12  N   LIG    1      -34.628  72.174  26.819  0.00  0.00    -0.266 N 
ATOM     13  H   LIG    1      -33.859  72.416  26.198  0.00  0.00    +0.157 HD
ATOM     14  C   LIG    1      -34.490  72.404  28.224  0.00  0.00    +0.251 C 
ATOM     15  O   LIG    1      -35.283  71.876  29.001  0.00  0.00    -0.270 OA
BRANCH  14  16
ATOM     16  C   LIG    1      -33.440  73.355  28.675  0.00  0.00    +0.056 A 
ATOM     17  C   LIG    1      -32.304  72.971  29.388  0.00  0.00    +0.054 A 
ATOM     18 CL   LIG    1      -31.980  71.343  29.866  0.00  0.00    -0.083 Cl
ATOM     19  C   LIG    1      -31.379  73.935  29.787  0.00  0.00    +0.041 A 
ATOM     20  C   LIG    1      -31.567  75.294  29.490  0.00  0.00    +0.052 A 
ATOM     21 CL   LIG    1      -30.414  76.361  30.215  0.00  0.00    -0.083 Cl
ATOM     22  C   LIG    1      -32.674  75.726  28.732  0.00  0.00    +0.022 A 
ATOM     23  C   LIG    1      -33.604  74.719  28.351  0.00  0.00    +0.026 A 
BRANCH  22  24
ATOM     24  C   LIG    1      -32.964  77.137  28.361  0.00  0.00    +0.107 A 
ATOM     25  C   LIG    1      -32.438  77.810  27.256  0.00  0.00    +0.149 A 
ATOM     26  F   LIG    1      -31.664  77.195  26.353  0.00  0.00    -0.203 F 
ATOM     27  C   LIG    1      -32.763  79.146  27.031  0.00  0.00    +0.042 A 
ATOM     28  C   LIG    1      -33.659  79.780  27.880  0.00  0.00    +0.023 A 
ATOM     29  C   LIG    1      -34.191  79.044  28.924  0.00  0.00    +0.111 A 
ATOM     30  N   LIG    1      -33.861  77.755  29.184  0.00  0.00    -0.252 NA
ENDBRANCH  22  24
ENDBRANCH  14  16
ENDBRANCH   4  12
BRANCH   1  32
ATOM     31  N   LIG    1      -36.151  67.265  25.161  0.00  0.00    -0.249 NA
ATOM     32  C   LIG    1      -36.815  68.282  24.741  0.00  0.00    +0.236 C 
BRANCH  32  33
ATOM     33  O   LIG    1      -37.752  68.222  23.766  0.00  0.00    -0.491 OA
ATOM     34  H   LIG    1      -38.377  68.963  23.872  0.00  0.00    +0.294 HD
ENDBRANCH  32  33
BRANCH  31  35
ATOM     35  C   LIG    1      -36.478  65.974  24.547  0.00  0.00    +0.147 C 
BRANCH  35  36
ATOM     36  C   LIG    1      -35.253  65.436  23.806  0.00  0.00    +0.051 C 
BRANCH  36  37
ATOM     37  C   LIG    1      -35.075  66.069  22.431  0.00  0.00    +0.157 C 
BRANCH  37  38
ATOM     38  O   LIG    1      -34.438  67.333  22.579  0.00  0.00    -0.395 OA
ATOM     39  H   LIG    1      -33.482  67.183  22.481  0.00  0.00    +0.209 HD
ENDBRANCH  37  38
ENDBRANCH  36  37
ENDBRANCH  35  36
ENDBRANCH  31  35
ENDBRANCH   1  32
TORSDOF 10
ENDMDL
MODEL 9
REMARK VINA RESULT:      -5.9      7.396     12.337
REMARK  Name = pdb/CHEMBL3899684.pdb
REMARK                            x       y       z     vdW  Elec       q    Type
REMARK                         _______ _______ _______ _____ _____    ______ ____
ROOT
ATOM      1  C   LIG    1      -34.069  76.590  28.386  0.00  0.00    +0.149 A 
ATOM      2  N   LIG    1      -33.916  75.259  28.259  0.00  0.00    -0.160 NA
ATOM      3  N   LIG    1      -32.778  74.949  28.974  0.00  0.00    -0.218 N 
ATOM      4  C   LIG    1      -32.209  76.110  29.509  0.00  0.00    +0.129 A 
ATOM      5  C   LIG    1      -33.032  77.153  29.160  0.00  0.00    +0.078 A 
ENDROOT
BRANCH   3   6
ATOM      6  C   LIG    1      -32.423  73.577  29.173  0.00  0.00    +0.067 A 
ATOM      7  C   LIG    1      -31.100  73.244  29.503  0.00  0.00    +0.028 A 
ATOM      8  C   LIG    1      -30.735  71.909  29.719  0.00  0.00    +0.002 A 
ATOM      9  C   LIG    1      -31.685  70.895  29.632  0.00  0.00    +0.000 A 
ATOM     10  C   LIG    1      -32.994  71.209  29.291  0.00  0.00    +0.002 A 
ATOM     11  C   LIG    1      -33.347  72.535  29.028  0.00  0.00    +0.028 A 
ENDBRANCH   3   6
BRANCH   4  12
ATOM     12  N   LIG    1      -31.105  76.313  30.332  0.00  0.00    -0.266 N 
ATOM     13  H   LIG    1      -30.206  76.424  29.869  0.00  0.00    +0.157 HD
ATOM     14  C   LIG    1      -31.140  76.081  31.743  0.00  0.00    +0.251 C 
ATOM     15  O   LIG    1      -32.180  75.680  32.262  0.00  0.00    -0.270 OA
BRANCH  14  16
ATOM     16  C   LIG    1      -29.932  76.428  32.536  0.00  0.00    +0.056 A 
ATOM     17  C   LIG    1      -29.967  76.775  33.887  0.00  0.00    +0.054 A 
ATOM     18 CL   LIG    1      -31.423  76.873  34.812  0.00  0.00    -0.083 Cl
ATOM     19  C   LIG    1      -28.784  77.106  34.548  0.00  0.00    +0.041 A 
ATOM     20  C   LIG    1      -27.550  77.101  33.880  0.00  0.00    +0.052 A 
ATOM     21 CL   LIG    1      -26.221  77.707  34.808  0.00  0.00    -0.083 Cl
ATOM     22  C   LIG    1      -27.456  76.713  32.529  0.00  0.00    +0.022 A 
ATOM     23  C   LIG    1      -28.682  76.394  31.881  0.00  0.00    +0.026 A 
BRANCH  22  24
ATOM     24  C   LIG    1      -26.200  76.672  31.731  0.00  0.00    +0.107 A 
ATOM     25  C   LIG    1      -25.355  75.566  31.604  0.00  0.00    +0.149 A 
ATOM     26  F   LIG    1      -25.656  74.377  32.143  0.00  0.00    -0.203 F 
ATOM     27  C   LIG    1      -24.187  75.661  30.851  0.00  0.00    +0.042 A 
ATOM     28  C   LIG    1      -23.906  76.843  30.179  0.00  0.00    +0.023 A 
ATOM     29  C   LIG    1      -24.811  77.883  30.297  0.00  0.00    +0.111 A 
ATOM     30  N   LIG    1      -25.933  77.827  31.054  0.00  0.00    -0.252 NA
ENDBRANCH  22  24
ENDBRANCH  14  16
ENDBRANCH   4  12
BRANCH   1  32
ATOM     31  N   LIG    1      -35.715  78.317  28.360  0.00  0.00    -0.249 NA
ATOM     32  C   LIG    1      -35.197  77.298  27.774  0.00  0.00    +0.236 C 
BRANCH  32  33
ATOM     33  O   LIG    1      -35.627  76.807  26.588  0.00  0.00    -0.491 OA
ATOM     34  H   LIG    1      -36.376  76.201  26.741  0.00  0.00    +0.294 HD
ENDBRANCH  32  33
BRANCH  31  35
ATOM     35  C   LIG    1      -36.817  78.983  27.655  0.00  0.00    +0.147 C 
BRANCH  35  36
ATOM     36  C   LIG    1      -36.670  80.499  27.797  0.00  0.00    +0.051 C 
BRANCH  36  37
ATOM     37  C   LIG    1      -35.248  80.921  28.144  0.00  0.00    +0.157 C 
BRANCH  37  38
ATOM     38  O   LIG    1      -34.416  80.739  27.003  0.00  0.00    -0.395 OA
ATOM     39  H   LIG    1      -33.664  81.348  27.100  0.00  0.00    +0.209 HD
ENDBRANCH  37  38
ENDBRANCH  36  37
ENDBRANCH  35  36
ENDBRANCH  31  35
ENDBRANCH   1  32
TORSDOF 10
ENDMDL
