MODEL 1
REMARK VINA RESULT:      -6.2      0.000      0.000
REMARK  Name = pdb/CHEMBL3671396.pdb
REMARK                            x       y       z     vdW  Elec       q    Type
REMARK                         _______ _______ _______ _____ _____    ______ ____
ROOT
ATOM      1  C   LIG    1      -33.075  73.677  29.083  0.00  0.00    +0.042 A 
ATOM      2  C   LIG    1      -33.926  73.476  27.979  0.00  0.00    +0.038 A 
ATOM      3  C   LIG    1      -34.614  72.264  27.817  0.00  0.00    +0.052 A 
ATOM      4  C   LIG    1      -34.403  71.284  28.783  0.00  0.00    +0.134 A 
ATOM      5  N   LIG    1      -33.549  71.427  29.834  0.00  0.00    -0.261 NA
ATOM      6  C   LIG    1      -32.898  72.610  29.953  0.00  0.00    +0.122 A 
ENDROOT
BRANCH   3   7
ATOM      7  N   LIG    1      -35.442  72.119  26.673  0.00  0.00    -0.282 N 
ATOM      8  H   LIG    1      -34.976  72.151  25.771  0.00  0.00    +0.155 HD
ATOM      9  C   LIG    1      -36.833  72.097  26.654  0.00  0.00    +0.250 C 
ATOM     10  O   LIG    1      -37.537  72.230  27.657  0.00  0.00    -0.272 OA
BRANCH   9  11
ATOM     11  C   LIG    1      -37.473  71.896  25.236  0.00  0.00    +0.230 C 
BRANCH  11  12
ATOM     12  C   LIG    1      -38.486  72.952  24.808  0.00  0.00    -0.010 A 
ATOM     13  C   LIG    1      -38.176  74.310  25.015  0.00  0.00    +0.006 A 
ATOM     14  C   LIG    1      -39.073  75.317  24.652  0.00  0.00    +0.000 A 
ATOM     15  C   LIG    1      -40.290  74.985  24.065  0.00  0.00    +0.000 A 
ATOM     16  C   LIG    1      -40.610  73.648  23.845  0.00  0.00    +0.000 A 
ATOM     17  C   LIG    1      -39.711  72.636  24.200  0.00  0.00    +0.006 A 
ENDBRANCH  11  12
BRANCH  11  18
ATOM     18  O   LIG    1      -38.053  70.614  25.013  0.00  0.00    -0.378 OA
ATOM     19  H   LIG    1      -37.804  70.328  24.116  0.00  0.00    +0.211 HD
ENDBRANCH  11  18
ENDBRANCH   9  11
ENDBRANCH   3   7
BRANCH   1  20
ATOM     20  C   LIG    1      -32.327  74.940  29.324  0.00  0.00    +0.197 C 
ATOM     21  O   LIG    1      -31.111  74.869  29.555  0.00  0.00    -0.287 OA
BRANCH  20  29
ATOM     22  N   LIG    1      -34.251  77.996  29.978  0.00  0.00    -0.329 N 
ATOM     23  C   LIG    1      -33.730  78.328  28.749  0.00  0.00    +0.145 A 
ATOM     24  N   LIG    1      -33.940  79.482  28.089  0.00  0.00    -0.218 NA
ATOM     25  C   LIG    1      -33.271  79.523  26.922  0.00  0.00    +0.223 A 
ATOM     26  N   LIG    1      -32.464  78.580  26.395  0.00  0.00    -0.243 NA
ATOM     27  C   LIG    1      -32.282  77.438  27.099  0.00  0.00    +0.124 A 
ATOM     28  C   LIG    1      -32.935  77.266  28.324  0.00  0.00    +0.048 A 
ATOM     29  C   LIG    1      -33.013  76.229  29.311  0.00  0.00    +0.051 A 
ATOM     30  C   LIG    1      -33.848  76.720  30.308  0.00  0.00    +0.100 A 
BRANCH  22  32
ATOM     31  C   LIG    1      -36.539  78.678  30.666  0.00  0.00    +0.030 C 
ATOM     32  C   LIG    1      -35.034  78.875  30.851  0.00  0.00    +0.083 C 
ATOM     33  C   LIG    1      -34.669  78.687  32.332  0.00  0.00    +0.030 C 
ENDBRANCH  22  32
ENDBRANCH  20  29
ENDBRANCH   1  20
TORSDOF 7
ENDMDL
MODEL 2
REMARK VINA RESULT:      -6.2     12.904     16.016
REMARK  Name = pdb/CHEMBL3671396.pdb
REMARK                            x       y       z     vdW  Elec       q    Type
REMARK                         _______ _______ _______ _____ _____    ______ ____
ROOT
ATOM      1  C   LIG    1      -23.533  80.455  35.504  0.00  0.00    +0.042 A 
ATOM      2  C   LIG    1      -23.429  79.732  34.301  0.00  0.00    +0.038 A 
ATOM      3  C   LIG    1      -24.395  78.775  33.956  0.00  0.00    +0.052 A 
ATOM      4  C   LIG    1      -25.435  78.573  34.859  0.00  0.00    +0.134 A 
ATOM      5  N   LIG    1      -25.538  79.218  36.054  0.00  0.00    -0.261 NA
ATOM      6  C   LIG    1      -24.582  80.131  36.354  0.00  0.00    +0.122 A 
ENDROOT
BRANCH   3   7
ATOM      7  N   LIG    1      -24.223  78.067  32.737  0.00  0.00    -0.282 N 
ATOM      8  H   LIG    1      -23.284  78.056  32.350  0.00  0.00    +0.155 HD
ATOM      9  C   LIG    1      -25.228  77.528  31.942  0.00  0.00    +0.250 C 
ATOM     10  O   LIG    1      -26.431  77.623  32.196  0.00  0.00    -0.272 OA
BRANCH   9  11
ATOM     11  C   LIG    1      -24.729  76.776  30.659  0.00  0.00    +0.230 C 
BRANCH  11  12
ATOM     12  C   LIG    1      -23.232  76.496  30.593  0.00  0.00    -0.010 A 
ATOM     13  C   LIG    1      -22.710  75.419  31.335  0.00  0.00    +0.006 A 
ATOM     14  C   LIG    1      -21.345  75.126  31.318  0.00  0.00    +0.000 A 
ATOM     15  C   LIG    1      -20.478  75.900  30.552  0.00  0.00    +0.000 A 
ATOM     16  C   LIG    1      -20.977  76.965  29.806  0.00  0.00    +0.000 A 
ATOM     17  C   LIG    1      -22.345  77.255  29.813  0.00  0.00    +0.006 A 
ENDBRANCH  11  12
BRANCH  11  18
ATOM     18  O   LIG    1      -25.123  77.364  29.424  0.00  0.00    -0.378 OA
ATOM     19  H   LIG    1      -24.420  77.980  29.152  0.00  0.00    +0.211 HD
ENDBRANCH  11  18
ENDBRANCH   9  11
ENDBRANCH   3   7
BRANCH   1  20
ATOM     20  C   LIG    1      -22.555  81.494  35.925  0.00  0.00    +0.197 C 
ATOM     21  O   LIG    1      -22.856  82.686  35.762  0.00  0.00    -0.287 OA
BRANCH  20  29
ATOM     22  N   LIG    1      -19.564  80.887  37.963  0.00  0.00    -0.329 N 
ATOM     23  C   LIG    1      -19.214  80.165  36.847  0.00  0.00    +0.145 A 
ATOM     24  N   LIG    1      -18.072  79.472  36.681  0.00  0.00    -0.218 NA
ATOM     25  C   LIG    1      -18.032  78.845  35.491  0.00  0.00    +0.223 A 
ATOM     26  N   LIG    1      -18.969  78.845  34.521  0.00  0.00    -0.243 NA
ATOM     27  C   LIG    1      -20.102  79.554  34.737  0.00  0.00    +0.124 A 
ATOM     28  C   LIG    1      -20.260  80.265  35.932  0.00  0.00    +0.048 A 
ATOM     29  C   LIG    1      -21.264  81.118  36.495  0.00  0.00    +0.051 A 
ATOM     30  C   LIG    1      -20.785  81.490  37.746  0.00  0.00    +0.100 A 
BRANCH  22  32
ATOM     31  C   LIG    1      -18.600  82.384  39.696  0.00  0.00    +0.030 C 
ATOM     32  C   LIG    1      -18.819  80.945  39.224  0.00  0.00    +0.083 C 
ATOM     33  C   LIG    1      -19.505  80.137  40.336  0.00  0.00    +0.030 C 
ENDBRANCH  22  32
ENDBRANCH  20  29
ENDBRANCH   1  20
TORSDOF 7
ENDMDL
MODEL 3
REMARK VINA RESULT:      -6.1     13.177     16.503
REMARK  Name = pdb/CHEMBL3671396.pdb
REMARK                            x       y       z     vdW  Elec       q    Type
REMARK                         _______ _______ _______ _____ _____    ______ ____
ROOT
ATOM      1  C   LIG    1      -23.613  80.414  35.226  0.00  0.00    +0.042 A 
ATOM      2  C   LIG    1      -23.216  79.725  34.065  0.00  0.00    +0.038 A 
ATOM      3  C   LIG    1      -23.981  78.659  33.569  0.00  0.00    +0.052 A 
ATOM      4  C   LIG    1      -25.128  78.318  34.283  0.00  0.00    +0.134 A 
ATOM      5  N   LIG    1      -25.512  78.931  35.436  0.00  0.00    -0.261 NA
ATOM      6  C   LIG    1      -24.743  79.952  35.887  0.00  0.00    +0.122 A 
ENDROOT
BRANCH   3   7
ATOM      7  N   LIG    1      -23.517  77.993  32.404  0.00  0.00    -0.282 N 
ATOM      8  H   LIG    1      -22.565  77.641  32.435  0.00  0.00    +0.155 HD
ATOM      9  C   LIG    1      -24.169  77.914  31.178  0.00  0.00    +0.250 C 
ATOM     10  O   LIG    1      -25.254  78.451  30.941  0.00  0.00    -0.272 OA
BRANCH   9  11
ATOM     11  C   LIG    1      -23.418  77.085  30.079  0.00  0.00    +0.230 C 
BRANCH  11  12
ATOM     12  C   LIG    1      -22.030  76.583  30.458  0.00  0.00    -0.010 A 
ATOM     13  C   LIG    1      -20.907  77.346  30.082  0.00  0.00    +0.006 A 
ATOM     14  C   LIG    1      -19.613  76.926  30.395  0.00  0.00    +0.000 A 
ATOM     15  C   LIG    1      -19.417  75.740  31.096  0.00  0.00    +0.000 A 
ATOM     16  C   LIG    1      -20.515  74.976  31.482  0.00  0.00    +0.000 A 
ATOM     17  C   LIG    1      -21.815  75.398  31.179  0.00  0.00    +0.006 A 
ENDBRANCH  11  12
BRANCH  11  18
ATOM     18  O   LIG    1      -23.326  77.717  28.806  0.00  0.00    -0.378 OA
ATOM     19  H   LIG    1      -24.190  77.626  28.367  0.00  0.00    +0.211 HD
ENDBRANCH  11  18
ENDBRANCH   9  11
ENDBRANCH   3   7
BRANCH   1  20
ATOM     20  C   LIG    1      -22.858  81.561  35.799  0.00  0.00    +0.197 C 
ATOM     21  O   LIG    1      -23.299  82.706  35.615  0.00  0.00    -0.287 OA
BRANCH  20  29
ATOM     22  N   LIG    1      -19.638  80.469  37.180  0.00  0.00    -0.329 N 
ATOM     23  C   LIG    1      -19.835  81.590  37.952  0.00  0.00    +0.145 A 
ATOM     24  N   LIG    1      -19.001  82.048  38.903  0.00  0.00    -0.218 NA
ATOM     25  C   LIG    1      -19.454  83.184  39.466  0.00  0.00    +0.223 A 
ATOM     26  N   LIG    1      -20.587  83.856  39.179  0.00  0.00    -0.243 NA
ATOM     27  C   LIG    1      -21.391  83.356  38.211  0.00  0.00    +0.124 A 
ATOM     28  C   LIG    1      -21.038  82.170  37.558  0.00  0.00    +0.048 A 
ATOM     29  C   LIG    1      -21.618  81.346  36.539  0.00  0.00    +0.051 A 
ATOM     30  C   LIG    1      -20.725  80.299  36.347  0.00  0.00    +0.100 A 
BRANCH  22  32
ATOM     31  C   LIG    1      -18.498  78.515  38.207  0.00  0.00    +0.030 C 
ATOM     32  C   LIG    1      -18.436  79.630  37.162  0.00  0.00    +0.083 C 
ATOM     33  C   LIG    1      -18.178  79.023  35.775  0.00  0.00    +0.030 C 
ENDBRANCH  22  32
ENDBRANCH  20  29
ENDBRANCH   1  20
TORSDOF 7
ENDMDL
MODEL 4
REMARK VINA RESULT:      -6.1     17.050     20.914
REMARK  Name = pdb/CHEMBL3671396.pdb
REMARK                            x       y       z     vdW  Elec       q    Type
REMARK                         _______ _______ _______ _____ _____    ______ ____
ROOT
ATOM      1  C   LIG    1      -23.547  80.320  15.574  0.00  0.00    +0.042 A 
ATOM      2  C   LIG    1      -23.615  81.725  15.586  0.00  0.00    +0.038 A 
ATOM      3  C   LIG    1      -22.460  82.496  15.789  0.00  0.00    +0.052 A 
ATOM      4  C   LIG    1      -21.267  81.806  15.988  0.00  0.00    +0.134 A 
ATOM      5  N   LIG    1      -21.176  80.448  16.032  0.00  0.00    -0.261 NA
ATOM      6  C   LIG    1      -22.314  79.739  15.838  0.00  0.00    +0.122 A 
ENDROOT
BRANCH   3   7
ATOM      7  N   LIG    1      -22.599  83.909  15.808  0.00  0.00    -0.282 N 
ATOM      8  H   LIG    1      -23.091  84.303  16.604  0.00  0.00    +0.155 HD
ATOM      9  C   LIG    1      -22.275  84.788  14.780  0.00  0.00    +0.250 C 
ATOM     10  O   LIG    1      -21.836  84.433  13.684  0.00  0.00    -0.272 OA
BRANCH   9  11
ATOM     11  C   LIG    1      -22.516  86.304  15.102  0.00  0.00    +0.230 C 
BRANCH  11  12
ATOM     12  C   LIG    1      -22.059  87.292  14.035  0.00  0.00    -0.010 A 
ATOM     13  C   LIG    1      -22.977  87.694  13.046  0.00  0.00    +0.006 A 
ATOM     14  C   LIG    1      -22.607  88.588  12.039  0.00  0.00    +0.000 A 
ATOM     15  C   LIG    1      -21.315  89.103  12.008  0.00  0.00    +0.000 A 
ATOM     16  C   LIG    1      -20.395  88.723  12.982  0.00  0.00    +0.000 A 
ATOM     17  C   LIG    1      -20.765  87.835  13.998  0.00  0.00    +0.006 A 
ENDBRANCH  11  12
BRANCH  11  18
ATOM     18  O   LIG    1      -22.003  86.742  16.357  0.00  0.00    -0.378 OA
ATOM     19  H   LIG    1      -21.331  87.424  16.181  0.00  0.00    +0.211 HD
ENDBRANCH  11  18
ENDBRANCH   9  11
ENDBRANCH   3   7
BRANCH   1  20
ATOM     20  C   LIG    1      -24.727  79.442  15.350  0.00  0.00    +0.197 C 
ATOM     21  O   LIG    1      -25.065  78.667  16.257  0.00  0.00    -0.287 OA
BRANCH  20  29
ATOM     22  N   LIG    1      -26.117  80.100  12.017  0.00  0.00    -0.329 N 
ATOM     23  C   LIG    1      -26.814  78.954  12.319  0.00  0.00    +0.145 A 
ATOM     24  N   LIG    1      -27.715  78.347  11.525  0.00  0.00    -0.218 NA
ATOM     25  C   LIG    1      -28.207  77.227  12.087  0.00  0.00    +0.223 A 
ATOM     26  N   LIG    1      -27.896  76.695  13.286  0.00  0.00    -0.243 NA
ATOM     27  C   LIG    1      -26.981  77.341  14.046  0.00  0.00    +0.124 A 
ATOM     28  C   LIG    1      -26.404  78.528  13.581  0.00  0.00    +0.048 A 
ATOM     29  C   LIG    1      -25.456  79.478  14.085  0.00  0.00    +0.051 A 
ATOM     30  C   LIG    1      -25.320  80.439  13.090  0.00  0.00    +0.100 A 
BRANCH  22  32
ATOM     31  C   LIG    1      -25.904  82.313  10.908  0.00  0.00    +0.030 C 
ATOM     32  C   LIG    1      -26.134  80.811  10.735  0.00  0.00    +0.083 C 
ATOM     33  C   LIG    1      -25.103  80.242   9.749  0.00  0.00    +0.030 C 
ENDBRANCH  22  32
ENDBRANCH  20  29
ENDBRANCH   1  20
TORSDOF 7
ENDMDL
MODEL 5
REMARK VINA RESULT:      -6.1      5.405      9.865
REMARK  Name = pdb/CHEMBL3671396.pdb
REMARK                            x       y       z     vdW  Elec       q    Type
REMARK                         _______ _______ _______ _____ _____    ______ ____
ROOT
ATOM      1  C   LIG    1      -35.478  68.392  24.858  0.00  0.00    +0.042 A 
ATOM      2  C   LIG    1      -36.181  69.600  24.690  0.00  0.00    +0.038 A 
ATOM      3  C   LIG    1      -35.817  70.746  25.412  0.00  0.00    +0.052 A 
ATOM      4  C   LIG    1      -34.751  70.622  26.300  0.00  0.00    +0.134 A 
ATOM      5  N   LIG    1      -34.084  69.456  26.524  0.00  0.00    -0.261 NA
ATOM      6  C   LIG    1      -34.469  68.369  25.811  0.00  0.00    +0.122 A 
ENDROOT
BRANCH   3   7
ATOM      7  N   LIG    1      -36.577  71.928  25.209  0.00  0.00    -0.282 N 
ATOM      8  H   LIG    1      -36.250  72.556  24.481  0.00  0.00    +0.155 HD
ATOM      9  C   LIG    1      -37.620  72.390  26.005  0.00  0.00    +0.250 C 
ATOM     10  O   LIG    1      -38.008  71.822  27.028  0.00  0.00    -0.272 OA
BRANCH   9  11
ATOM     11  C   LIG    1      -38.290  73.721  25.514  0.00  0.00    +0.230 C 
BRANCH  11  12
ATOM     12  C   LIG    1      -39.526  73.558  24.635  0.00  0.00    -0.010 A 
ATOM     13  C   LIG    1      -40.271  74.704  24.296  0.00  0.00    +0.006 A 
ATOM     14  C   LIG    1      -41.417  74.610  23.503  0.00  0.00    +0.000 A 
ATOM     15  C   LIG    1      -41.833  73.370  23.028  0.00  0.00    +0.000 A 
ATOM     16  C   LIG    1      -41.105  72.227  23.348  0.00  0.00    +0.000 A 
ATOM     17  C   LIG    1      -39.951  72.318  24.134  0.00  0.00    +0.006 A 
ENDBRANCH  11  12
BRANCH  11  18
ATOM     18  O   LIG    1      -37.410  74.637  24.871  0.00  0.00    -0.378 OA
ATOM     19  H   LIG    1      -36.526  74.230  24.846  0.00  0.00    +0.211 HD
ENDBRANCH  11  18
ENDBRANCH   9  11
ENDBRANCH   3   7
BRANCH   1  20
ATOM     20  C   LIG    1      -35.800  67.144  24.115  0.00  0.00    +0.197 C 
ATOM     21  O   LIG    1      -36.237  66.175  24.754  0.00  0.00    -0.287 OA
BRANCH  20  29
ATOM     22  N   LIG    1      -34.643  66.560  20.681  0.00  0.00    -0.329 N 
ATOM     23  C   LIG    1      -35.867  67.123  20.404  0.00  0.00    +0.145 A 
ATOM     24  N   LIG    1      -36.377  67.335  19.177  0.00  0.00    -0.218 NA
ATOM     25  C   LIG    1      -37.609  67.875  19.231  0.00  0.00    +0.223 A 
ATOM     26  N   LIG    1      -38.327  68.196  20.326  0.00  0.00    -0.243 NA
ATOM     27  C   LIG    1      -37.771  67.959  21.538  0.00  0.00    +0.124 A 
ATOM     28  C   LIG    1      -36.486  67.413  21.618  0.00  0.00    +0.048 A 
ATOM     29  C   LIG    1      -35.584  67.055  22.674  0.00  0.00    +0.051 A 
ATOM     30  C   LIG    1      -34.453  66.546  22.047  0.00  0.00    +0.100 A 
BRANCH  22  32
ATOM     31  C   LIG    1      -32.287  66.491  19.896  0.00  0.00    +0.030 C 
ATOM     32  C   LIG    1      -33.716  65.981  19.705  0.00  0.00    +0.083 C 
ATOM     33  C   LIG    1      -33.724  64.445  19.746  0.00  0.00    +0.030 C 
ENDBRANCH  22  32
ENDBRANCH  20  29
ENDBRANCH   1  20
TORSDOF 7
ENDMDL
MODEL 6
REMARK VINA RESULT:      -6.0      3.721      9.895
REMARK  Name = pdb/CHEMBL3671396.pdb
REMARK                            x       y       z     vdW  Elec       q    Type
REMARK                         _______ _______ _______ _____ _____    ______ ____
ROOT
ATOM      1  C   LIG    1      -39.918  74.149  24.805  0.00  0.00    +0.042 A 
ATOM      2  C   LIG    1      -38.676  74.248  25.459  0.00  0.00    +0.038 A 
ATOM      3  C   LIG    1      -37.941  75.442  25.424  0.00  0.00    +0.052 A 
ATOM      4  C   LIG    1      -38.493  76.502  24.707  0.00  0.00    +0.134 A 
ATOM      5  N   LIG    1      -39.667  76.424  24.023  0.00  0.00    -0.261 NA
ATOM      6  C   LIG    1      -40.344  75.251  24.076  0.00  0.00    +0.122 A 
ENDROOT
BRANCH   3   7
ATOM      7  N   LIG    1      -36.687  75.471  26.088  0.00  0.00    -0.282 N 
ATOM      8  H   LIG    1      -35.907  75.043  25.598  0.00  0.00    +0.155 HD
ATOM      9  C   LIG    1      -36.451  75.878  27.397  0.00  0.00    +0.250 C 
ATOM     10  O   LIG    1      -37.335  76.252  28.171  0.00  0.00    -0.272 OA
BRANCH   9  11
ATOM     11  C   LIG    1      -34.950  75.823  27.849  0.00  0.00    +0.230 C 
BRANCH  11  12
ATOM     12  C   LIG    1      -34.119  77.065  27.547  0.00  0.00    -0.010 A 
ATOM     13  C   LIG    1      -32.986  76.938  26.720  0.00  0.00    +0.006 A 
ATOM     14  C   LIG    1      -32.184  78.041  26.422  0.00  0.00    +0.000 A 
ATOM     15  C   LIG    1      -32.505  79.293  26.937  0.00  0.00    +0.000 A 
ATOM     16  C   LIG    1      -33.626  79.440  27.751  0.00  0.00    +0.000 A 
ATOM     17  C   LIG    1      -34.437  78.338  28.045  0.00  0.00    +0.006 A 
ENDBRANCH  11  12
BRANCH  11  18
ATOM     18  O   LIG    1      -34.224  74.685  27.392  0.00  0.00    -0.378 OA
ATOM     19  H   LIG    1      -34.414  73.950  28.000  0.00  0.00    +0.211 HD
ENDBRANCH  11  18
ENDBRANCH   9  11
ENDBRANCH   3   7
BRANCH   1  20
ATOM     20  C   LIG    1      -40.756  72.920  24.814  0.00  0.00    +0.197 C 
ATOM     21  O   LIG    1      -41.699  72.855  25.617  0.00  0.00    -0.287 OA
BRANCH  20  29
ATOM     22  N   LIG    1      -39.458  69.992  23.021  0.00  0.00    -0.329 N 
ATOM     23  C   LIG    1      -40.589  70.219  22.273  0.00  0.00    +0.145 A 
ATOM     24  N   LIG    1      -40.994  69.493  21.215  0.00  0.00    -0.218 NA
ATOM     25  C   LIG    1      -42.156  69.944  20.709  0.00  0.00    +0.223 A 
ATOM     26  N   LIG    1      -42.901  70.982  21.141  0.00  0.00    -0.243 NA
ATOM     27  C   LIG    1      -42.454  71.679  22.212  0.00  0.00    +0.124 A 
ATOM     28  C   LIG    1      -41.247  71.318  22.821  0.00  0.00    +0.048 A 
ATOM     29  C   LIG    1      -40.461  71.807  23.915  0.00  0.00    +0.051 A 
ATOM     30  C   LIG    1      -39.358  70.965  23.993  0.00  0.00    +0.100 A 
BRANCH  22  32
ATOM     31  C   LIG    1      -37.451  69.119  21.845  0.00  0.00    +0.030 C 
ATOM     32  C   LIG    1      -38.543  68.855  22.883  0.00  0.00    +0.083 C 
ATOM     33  C   LIG    1      -37.898  68.470  24.223  0.00  0.00    +0.030 C 
ENDBRANCH  22  32
ENDBRANCH  20  29
ENDBRANCH   1  20
TORSDOF 7
ENDMDL
MODEL 7
REMARK VINA RESULT:      -6.0     17.142     20.271
REMARK  Name = pdb/CHEMBL3671396.pdb
REMARK                            x       y       z     vdW  Elec       q    Type
REMARK                         _______ _______ _______ _____ _____    ______ ____
ROOT
ATOM      1  C   LIG    1      -20.694  81.377  15.743  0.00  0.00    +0.042 A 
ATOM      2  C   LIG    1      -20.067  80.286  16.374  0.00  0.00    +0.038 A 
ATOM      3  C   LIG    1      -18.735  79.957  16.080  0.00  0.00    +0.052 A 
ATOM      4  C   LIG    1      -18.083  80.748  15.137  0.00  0.00    +0.134 A 
ATOM      5  N   LIG    1      -18.676  81.778  14.472  0.00  0.00    -0.261 NA
ATOM      6  C   LIG    1      -19.965  82.060  14.779  0.00  0.00    +0.122 A 
ENDROOT
BRANCH   3   7
ATOM      7  N   LIG    1      -18.167  78.835  16.737  0.00  0.00    -0.282 N 
ATOM      8  H   LIG    1      -17.688  79.019  17.614  0.00  0.00    +0.155 HD
ATOM      9  C   LIG    1      -18.060  77.544  16.230  0.00  0.00    +0.250 C 
ATOM     10  O   LIG    1      -18.436  77.214  15.103  0.00  0.00    -0.272 OA
BRANCH   9  11
ATOM     11  C   LIG    1      -17.405  76.501  17.202  0.00  0.00    +0.230 C 
BRANCH  11  12
ATOM     12  C   LIG    1      -18.269  75.301  17.570  0.00  0.00    -0.010 A 
ATOM     13  C   LIG    1      -18.004  74.619  18.774  0.00  0.00    +0.006 A 
ATOM     14  C   LIG    1      -18.758  73.507  19.153  0.00  0.00    +0.000 A 
ATOM     15  C   LIG    1      -19.797  73.061  18.341  0.00  0.00    +0.000 A 
ATOM     16  C   LIG    1      -20.078  73.727  17.151  0.00  0.00    +0.000 A 
ATOM     17  C   LIG    1      -19.331  74.848  16.772  0.00  0.00    +0.006 A 
ENDBRANCH  11  12
BRANCH  11  18
ATOM     18  O   LIG    1      -16.875  77.049  18.405  0.00  0.00    -0.378 OA
ATOM     19  H   LIG    1      -16.634  77.975  18.228  0.00  0.00    +0.211 HD
ENDBRANCH  11  18
ENDBRANCH   9  11
ENDBRANCH   3   7
BRANCH   1  20
ATOM     20  C   LIG    1      -22.096  81.789  16.018  0.00  0.00    +0.197 C 
ATOM     21  O   LIG    1      -22.335  82.399  17.071  0.00  0.00    -0.287 OA
BRANCH  20  29
ATOM     22  N   LIG    1      -24.513  81.530  13.267  0.00  0.00    -0.329 N 
ATOM     23  C   LIG    1      -24.892  80.426  13.993  0.00  0.00    +0.145 A 
ATOM     24  N   LIG    1      -25.881  79.572  13.670  0.00  0.00    -0.218 NA
ATOM     25  C   LIG    1      -25.994  78.571  14.564  0.00  0.00    +0.223 A 
ATOM     26  N   LIG    1      -25.256  78.362  15.672  0.00  0.00    -0.243 NA
ATOM     27  C   LIG    1      -24.270  79.247  15.951  0.00  0.00    +0.124 A 
ATOM     28  C   LIG    1      -24.059  80.342  15.106  0.00  0.00    +0.048 A 
ATOM     29  C   LIG    1      -23.168  81.465  15.081  0.00  0.00    +0.051 A 
ATOM     30  C   LIG    1      -23.494  82.179  13.934  0.00  0.00    +0.100 A 
BRANCH  22  32
ATOM     31  C   LIG    1      -25.850  83.210  12.017  0.00  0.00    +0.030 C 
ATOM     32  C   LIG    1      -25.029  81.921  11.953  0.00  0.00    +0.083 C 
ATOM     33  C   LIG    1      -23.906  82.077  10.917  0.00  0.00    +0.030 C 
ENDBRANCH  22  32
ENDBRANCH  20  29
ENDBRANCH   1  20
TORSDOF 7
ENDMDL
MODEL 8
REMARK VINA RESULT:      -5.9     11.799     16.164
REMARK  Name = pdb/CHEMBL3671396.pdb
REMARK                            x       y       z     vdW  Elec       q    Type
REMARK                         _______ _______ _______ _____ _____    ______ ____
ROOT
ATOM      1  C   LIG    1      -20.645  76.881  30.644  0.00  0.00    +0.042 A 
ATOM      2  C   LIG    1      -20.660  77.582  31.865  0.00  0.00    +0.038 A 
ATOM      3  C   LIG    1      -19.463  78.012  32.458  0.00  0.00    +0.052 A 
ATOM      4  C   LIG    1      -18.280  77.700  31.792  0.00  0.00    +0.134 A 
ATOM      5  N   LIG    1      -18.228  76.981  30.637  0.00  0.00    -0.261 NA
ATOM      6  C   LIG    1      -19.405  76.579  30.098  0.00  0.00    +0.122 A 
ENDROOT
BRANCH   3   7
ATOM      7  N   LIG    1      -19.546  78.698  33.698  0.00  0.00    -0.282 N 
ATOM      8  H   LIG    1      -19.337  79.692  33.679  0.00  0.00    +0.155 HD
ATOM      9  C   LIG    1      -19.724  78.124  34.953  0.00  0.00    +0.250 C 
ATOM     10  O   LIG    1      -19.811  76.910  35.148  0.00  0.00    -0.272 OA
BRANCH   9  11
ATOM     11  C   LIG    1      -19.802  79.143  36.143  0.00  0.00    +0.230 C 
BRANCH  11  12
ATOM     12  C   LIG    1      -20.911  80.185  36.055  0.00  0.00    -0.010 A 
ATOM     13  C   LIG    1      -22.180  79.787  35.592  0.00  0.00    +0.006 A 
ATOM     14  C   LIG    1      -23.227  80.704  35.481  0.00  0.00    +0.000 A 
ATOM     15  C   LIG    1      -23.027  82.034  35.840  0.00  0.00    +0.000 A 
ATOM     16  C   LIG    1      -21.781  82.444  36.307  0.00  0.00    +0.000 A 
ATOM     17  C   LIG    1      -20.732  81.526  36.428  0.00  0.00    +0.006 A 
ENDBRANCH  11  12
BRANCH  11  18
ATOM     18  O   LIG    1      -18.584  79.819  36.439  0.00  0.00    -0.378 OA
ATOM     19  H   LIG    1      -18.594  80.047  37.385  0.00  0.00    +0.211 HD
ENDBRANCH  11  18
ENDBRANCH   9  11
ENDBRANCH   3   7
BRANCH   1  20
ATOM     20  C   LIG    1      -21.874  76.410  29.952  0.00  0.00    +0.197 C 
ATOM     21  O   LIG    1      -21.941  76.534  28.720  0.00  0.00    -0.287 OA
BRANCH  20  29
ATOM     22  N   LIG    1      -24.169  74.456  32.047  0.00  0.00    -0.329 N 
ATOM     23  C   LIG    1      -24.996  75.513  31.748  0.00  0.00    +0.145 A 
ATOM     24  N   LIG    1      -26.263  75.667  32.175  0.00  0.00    -0.218 NA
ATOM     25  C   LIG    1      -26.804  76.820  31.739  0.00  0.00    +0.223 A 
ATOM     26  N   LIG    1      -26.229  77.767  30.971  0.00  0.00    -0.243 NA
ATOM     27  C   LIG    1      -24.952  77.567  30.571  0.00  0.00    +0.124 A 
ATOM     28  C   LIG    1      -24.281  76.398  30.946  0.00  0.00    +0.048 A 
ATOM     29  C   LIG    1      -22.984  75.836  30.708  0.00  0.00    +0.051 A 
ATOM     30  C   LIG    1      -22.965  74.629  31.397  0.00  0.00    +0.100 A 
BRANCH  22  32
ATOM     31  C   LIG    1      -23.917  72.022  32.476  0.00  0.00    +0.030 C 
ATOM     32  C   LIG    1      -24.465  73.360  32.974  0.00  0.00    +0.083 C 
ATOM     33  C   LIG    1      -23.931  73.641  34.386  0.00  0.00    +0.030 C 
ENDBRANCH  22  32
ENDBRANCH  20  29
ENDBRANCH   1  20
TORSDOF 7
ENDMDL
MODEL 9
REMARK VINA RESULT:      -5.9      3.335      5.807
REMARK  Name = pdb/CHEMBL3671396.pdb
REMARK                            x       y       z     vdW  Elec       q    Type
REMARK                         _______ _______ _______ _____ _____    ______ ____
ROOT
ATOM      1  C   LIG    1      -37.348  80.110  28.659  0.00  0.00    +0.042 A 
ATOM      2  C   LIG    1      -37.748  79.420  27.499  0.00  0.00    +0.038 A 
ATOM      3  C   LIG    1      -38.816  79.889  26.720  0.00  0.00    +0.052 A 
ATOM      4  C   LIG    1      -39.457  81.047  27.158  0.00  0.00    +0.134 A 
ATOM      5  N   LIG    1      -39.127  81.709  28.301  0.00  0.00    -0.261 NA
ATOM      6  C   LIG    1      -38.094  81.221  29.030  0.00  0.00    +0.122 A 
ENDROOT
BRANCH   3   7
ATOM      7  N   LIG    1      -39.182  79.138  25.572  0.00  0.00    -0.282 N 
ATOM      8  H   LIG    1      -38.817  79.467  24.683  0.00  0.00    +0.155 HD
ATOM      9  C   LIG    1      -40.110  78.103  25.519  0.00  0.00    +0.250 C 
ATOM     10  O   LIG    1      -40.765  77.717  26.490  0.00  0.00    -0.272 OA
BRANCH   9  11
ATOM     11  C   LIG    1      -40.285  77.442  24.108  0.00  0.00    +0.230 C 
BRANCH  11  12
ATOM     12  C   LIG    1      -40.229  75.919  24.076  0.00  0.00    -0.010 A 
ATOM     13  C   LIG    1      -39.094  75.272  24.603  0.00  0.00    +0.006 A 
ATOM     14  C   LIG    1      -38.987  73.879  24.589  0.00  0.00    +0.000 A 
ATOM     15  C   LIG    1      -40.015  73.108  24.056  0.00  0.00    +0.000 A 
ATOM     16  C   LIG    1      -41.148  73.730  23.537  0.00  0.00    +0.000 A 
ATOM     17  C   LIG    1      -41.264  75.125  23.558  0.00  0.00    +0.006 A 
ENDBRANCH  11  12
BRANCH  11  18
ATOM     18  O   LIG    1      -39.413  77.937  23.097  0.00  0.00    -0.378 OA
ATOM     19  H   LIG    1      -39.015  77.170  22.649  0.00  0.00    +0.211 HD
ENDBRANCH  11  18
ENDBRANCH   9  11
ENDBRANCH   3   7
BRANCH   1  20
ATOM     20  C   LIG    1      -36.216  79.677  29.523  0.00  0.00    +0.197 C 
ATOM     21  O   LIG    1      -36.049  80.256  30.607  0.00  0.00    -0.287 OA
BRANCH  20  29
ATOM     22  N   LIG    1      -34.378  76.572  28.853  0.00  0.00    -0.329 N 
ATOM     23  C   LIG    1      -33.694  77.414  28.009  0.00  0.00    +0.145 A 
ATOM     24  N   LIG    1      -32.666  77.067  27.211  0.00  0.00    -0.218 NA
ATOM     25  C   LIG    1      -32.224  78.107  26.480  0.00  0.00    +0.223 A 
ATOM     26  N   LIG    1      -32.688  79.373  26.472  0.00  0.00    -0.243 NA
ATOM     27  C   LIG    1      -33.726  79.671  27.288  0.00  0.00    +0.124 A 
ATOM     28  C   LIG    1      -34.269  78.679  28.113  0.00  0.00    +0.048 A 
ATOM     29  C   LIG    1      -35.312  78.614  29.093  0.00  0.00    +0.051 A 
ATOM     30  C   LIG    1      -35.335  77.296  29.534  0.00  0.00    +0.100 A 
BRANCH  22  32
ATOM     31  C   LIG    1      -34.237  74.644  30.414  0.00  0.00    +0.030 C 
ATOM     32  C   LIG    1      -34.198  75.122  28.961  0.00  0.00    +0.083 C 
ATOM     33  C   LIG    1      -35.240  74.350  28.138  0.00  0.00    +0.030 C 
ENDBRANCH  22  32
ENDBRANCH  20  29
ENDBRANCH   1  20
TORSDOF 7
ENDMDL
