MODEL 1
REMARK VINA RESULT:      -6.5      0.000      0.000
REMARK  Name = pdb/CHEMBL3915218.pdb
REMARK                            x       y       z     vdW  Elec       q    Type
REMARK                         _______ _______ _______ _____ _____    ______ ____
ROOT
ATOM      1  C   LIG    1      -21.968  82.466  15.806  0.00  0.00    +0.149 A 
ATOM      2  N   LIG    1      -20.681  82.075  15.831  0.00  0.00    -0.160 NA
ATOM      3  N   LIG    1      -20.717  80.711  15.696  0.00  0.00    -0.218 N 
ATOM      4  C   LIG    1      -22.040  80.238  15.586  0.00  0.00    +0.129 A 
ATOM      5  C   LIG    1      -22.830  81.366  15.614  0.00  0.00    +0.078 A 
ENDROOT
BRANCH   3   6
ATOM      6  C   LIG    1      -19.485  79.974  15.680  0.00  0.00    +0.067 A 
ATOM      7  C   LIG    1      -19.303  78.833  16.470  0.00  0.00    +0.028 A 
ATOM      8  C   LIG    1      -18.103  78.109  16.421  0.00  0.00    +0.002 A 
ATOM      9  C   LIG    1      -17.077  78.505  15.567  0.00  0.00    +0.000 A 
ATOM     10  C   LIG    1      -17.246  79.634  14.769  0.00  0.00    +0.002 A 
ATOM     11  C   LIG    1      -18.443  80.365  14.820  0.00  0.00    +0.028 A 
ENDBRANCH   3   6
BRANCH   4  12
ATOM     12  N   LIG    1      -22.506  78.910  15.548  0.00  0.00    -0.266 N 
ATOM     13  H   LIG    1      -23.059  78.585  16.337  0.00  0.00    +0.157 HD
ATOM     14  C   LIG    1      -22.309  78.012  14.425  0.00  0.00    +0.251 C 
ATOM     15  O   LIG    1      -21.708  78.354  13.434  0.00  0.00    -0.270 OA
BRANCH  14  16
ATOM     16  C   LIG    1      -22.922  76.644  14.510  0.00  0.00    +0.056 A 
ATOM     17  C   LIG    1      -23.988  76.203  13.729  0.00  0.00    +0.054 A 
ATOM     18 CL   LIG    1      -24.795  77.187  12.572  0.00  0.00    -0.083 Cl
ATOM     19  C   LIG    1      -24.503  74.920  13.911  0.00  0.00    +0.041 A 
ATOM     20  C   LIG    1      -23.994  74.062  14.898  0.00  0.00    +0.052 A 
ATOM     21 CL   LIG    1      -24.847  72.564  15.056  0.00  0.00    -0.083 Cl
ATOM     22  C   LIG    1      -22.922  74.460  15.720  0.00  0.00    +0.019 A 
ATOM     23  C   LIG    1      -22.410  75.768  15.492  0.00  0.00    +0.026 A 
BRANCH  22  24
ATOM     24  C   LIG    1      -22.344  73.649  16.827  0.00  0.00    +0.072 A 
ATOM     25  N   LIG    1      -21.114  73.134  16.560  0.00  0.00    -0.255 NA
ATOM     26  C   LIG    1      -20.496  72.408  17.523  0.00  0.00    +0.111 A 
ATOM     27  C   LIG    1      -21.037  72.167  18.770  0.00  0.00    +0.020 A 
ATOM     28  C   LIG    1      -22.299  72.672  19.034  0.00  0.00    +0.004 A 
ATOM     29  C   LIG    1      -22.969  73.395  18.047  0.00  0.00    +0.028 A 
ENDBRANCH  22  24
ENDBRANCH  14  16
ENDBRANCH   4  12
BRANCH   1  31
ATOM     30  N   LIG    1      -22.222  84.709  14.993  0.00  0.00    -0.246 NA
ATOM     31  C   LIG    1      -22.370  83.867  15.963  0.00  0.00    +0.236 C 
BRANCH  30  34
ATOM     32  C   LIG    1      -22.170  88.067  14.688  0.00  0.00    +0.119 C 
ATOM     33  C   LIG    1      -21.503  87.016  15.601  0.00  0.00    +0.058 C 
ATOM     34  C   LIG    1      -22.678  86.070  15.267  0.00  0.00    +0.114 C 
ATOM     35  C   LIG    1      -22.861  86.887  13.963  0.00  0.00    +0.058 C 
BRANCH  32  36
ATOM     36  O   LIG    1      -23.040  89.003  15.353  0.00  0.00    -0.392 OA
ATOM     37  H   LIG    1      -22.674  89.881  15.149  0.00  0.00    +0.210 HD
ENDBRANCH  32  36
ENDBRANCH  30  34
BRANCH  31  38
ATOM     38  O   LIG    1      -22.875  84.201  17.172  0.00  0.00    -0.491 OA
ATOM     39  H   LIG    1      -22.671  83.503  17.819  0.00  0.00    +0.294 HD
ENDBRANCH  31  38
ENDBRANCH   1  31
TORSDOF 8
ENDMDL
MODEL 2
REMARK VINA RESULT:      -6.4     17.984     21.317
REMARK  Name = pdb/CHEMBL3915218.pdb
REMARK                            x       y       z     vdW  Elec       q    Type
REMARK                         _______ _______ _______ _____ _____    ______ ____
ROOT
ATOM      1  C   LIG    1      -34.962  67.164  22.745  0.00  0.00    +0.149 A 
ATOM      2  N   LIG    1      -34.589  67.383  24.018  0.00  0.00    -0.160 NA
ATOM      3  N   LIG    1      -35.404  68.393  24.462  0.00  0.00    -0.218 N 
ATOM      4  C   LIG    1      -36.298  68.815  23.457  0.00  0.00    +0.129 A 
ATOM      5  C   LIG    1      -36.039  67.997  22.378  0.00  0.00    +0.078 A 
ENDROOT
BRANCH   3   6
ATOM      6  C   LIG    1      -35.264  68.869  25.809  0.00  0.00    +0.067 A 
ATOM      7  C   LIG    1      -36.304  68.755  26.739  0.00  0.00    +0.028 A 
ATOM      8  C   LIG    1      -36.139  69.200  28.059  0.00  0.00    +0.002 A 
ATOM      9  C   LIG    1      -34.927  69.747  28.470  0.00  0.00    +0.000 A 
ATOM     10  C   LIG    1      -33.881  69.861  27.559  0.00  0.00    +0.002 A 
ATOM     11  C   LIG    1      -34.044  69.423  26.236  0.00  0.00    +0.028 A 
ENDBRANCH   3   6
BRANCH   4  12
ATOM     12  N   LIG    1      -37.207  69.889  23.473  0.00  0.00    -0.266 N 
ATOM     13  H   LIG    1      -36.908  70.762  23.047  0.00  0.00    +0.157 HD
ATOM     14  C   LIG    1      -38.560  69.801  23.990  0.00  0.00    +0.251 C 
ATOM     15  O   LIG    1      -38.997  68.776  24.460  0.00  0.00    -0.270 OA
BRANCH  14  16
ATOM     16  C   LIG    1      -39.430  71.019  23.879  0.00  0.00    +0.056 A 
ATOM     17  C   LIG    1      -40.619  71.081  23.155  0.00  0.00    +0.054 A 
ATOM     18 CL   LIG    1      -41.247  69.769  22.237  0.00  0.00    -0.083 Cl
ATOM     19  C   LIG    1      -41.337  72.275  23.092  0.00  0.00    +0.041 A 
ATOM     20  C   LIG    1      -40.869  73.442  23.716  0.00  0.00    +0.052 A 
ATOM     21 CL   LIG    1      -41.830  74.850  23.416  0.00  0.00    -0.083 Cl
ATOM     22  C   LIG    1      -39.669  73.437  24.453  0.00  0.00    +0.019 A 
ATOM     23  C   LIG    1      -38.975  72.196  24.512  0.00  0.00    +0.026 A 
BRANCH  22  24
ATOM     24  C   LIG    1      -39.061  74.628  25.108  0.00  0.00    +0.072 A 
ATOM     25  N   LIG    1      -39.692  75.026  26.245  0.00  0.00    -0.255 NA
ATOM     26  C   LIG    1      -39.187  76.083  26.925  0.00  0.00    +0.111 A 
ATOM     27  C   LIG    1      -38.059  76.780  26.540  0.00  0.00    +0.020 A 
ATOM     28  C   LIG    1      -37.429  76.389  25.369  0.00  0.00    +0.004 A 
ATOM     29  C   LIG    1      -37.949  75.323  24.634  0.00  0.00    +0.028 A 
ENDBRANCH  22  24
ENDBRANCH  14  16
ENDBRANCH   4  12
BRANCH   1  31
ATOM     30  N   LIG    1      -33.622  66.547  20.852  0.00  0.00    -0.246 NA
ATOM     31  C   LIG    1      -34.300  66.174  21.888  0.00  0.00    +0.236 C 
BRANCH  30  34
ATOM     32  C   LIG    1      -32.148  65.178  18.146  0.00  0.00    +0.119 C 
ATOM     33  C   LIG    1      -33.591  65.345  18.669  0.00  0.00    +0.058 C 
ATOM     34  C   LIG    1      -32.995  65.469  20.090  0.00  0.00    +0.114 C 
ATOM     35  C   LIG    1      -31.681  65.935  19.412  0.00  0.00    +0.058 C 
BRANCH  32  36
ATOM     36  O   LIG    1      -31.692  63.817  18.013  0.00  0.00    -0.392 OA
ATOM     37  H   LIG    1      -32.095  63.338  18.758  0.00  0.00    +0.210 HD
ENDBRANCH  32  36
ENDBRANCH  30  34
BRANCH  31  38
ATOM     38  O   LIG    1      -34.468  64.881  22.245  0.00  0.00    -0.491 OA
ATOM     39  H   LIG    1      -34.821  64.374  21.493  0.00  0.00    +0.294 HD
ENDBRANCH  31  38
ENDBRANCH   1  31
TORSDOF 8
ENDMDL
MODEL 3
REMARK VINA RESULT:      -6.4     17.532     20.250
REMARK  Name = pdb/CHEMBL3915218.pdb
REMARK                            x       y       z     vdW  Elec       q    Type
REMARK                         _______ _______ _______ _____ _____    ______ ____
ROOT
ATOM      1  C   LIG    1      -26.709  76.147  31.956  0.00  0.00    +0.149 A 
ATOM      2  N   LIG    1      -25.625  75.767  31.255  0.00  0.00    -0.160 NA
ATOM      3  N   LIG    1      -24.613  76.585  31.688  0.00  0.00    -0.218 N 
ATOM      4  C   LIG    1      -25.064  77.490  32.671  0.00  0.00    +0.129 A 
ATOM      5  C   LIG    1      -26.391  77.177  32.867  0.00  0.00    +0.078 A 
ENDROOT
BRANCH   3   6
ATOM      6  C   LIG    1      -23.299  76.432  31.131  0.00  0.00    +0.067 A 
ATOM      7  C   LIG    1      -22.912  77.109  29.969  0.00  0.00    +0.028 A 
ATOM      8  C   LIG    1      -21.615  76.969  29.454  0.00  0.00    +0.002 A 
ATOM      9  C   LIG    1      -20.683  76.165  30.105  0.00  0.00    +0.000 A 
ATOM     10  C   LIG    1      -21.051  75.490  31.266  0.00  0.00    +0.002 A 
ATOM     11  C   LIG    1      -22.350  75.623  31.781  0.00  0.00    +0.028 A 
ENDBRANCH   3   6
BRANCH   4  12
ATOM     12  N   LIG    1      -24.374  78.556  33.277  0.00  0.00    -0.266 N 
ATOM     13  H   LIG    1      -24.612  79.498  32.979  0.00  0.00    +0.157 HD
ATOM     14  C   LIG    1      -23.407  78.394  34.346  0.00  0.00    +0.251 C 
ATOM     15  O   LIG    1      -23.118  77.304  34.785  0.00  0.00    -0.270 OA
BRANCH  14  16
ATOM     16  C   LIG    1      -22.801  79.635  34.934  0.00  0.00    +0.056 A 
ATOM     17  C   LIG    1      -21.449  79.966  34.868  0.00  0.00    +0.054 A 
ATOM     18 CL   LIG    1      -20.257  78.968  34.133  0.00  0.00    -0.083 Cl
ATOM     19  C   LIG    1      -20.985  81.132  35.477  0.00  0.00    +0.041 A 
ATOM     20  C   LIG    1      -21.848  81.974  36.195  0.00  0.00    +0.052 A 
ATOM     21 CL   LIG    1      -21.064  83.300  36.985  0.00  0.00    -0.083 Cl
ATOM     22  C   LIG    1      -23.222  81.682  36.300  0.00  0.00    +0.019 A 
ATOM     23  C   LIG    1      -23.662  80.496  35.650  0.00  0.00    +0.026 A 
BRANCH  22  24
ATOM     24  C   LIG    1      -24.210  82.479  37.079  0.00  0.00    +0.072 A 
ATOM     25  N   LIG    1      -25.181  83.060  36.325  0.00  0.00    -0.255 NA
ATOM     26  C   LIG    1      -26.142  83.778  36.953  0.00  0.00    +0.111 A 
ATOM     27  C   LIG    1      -26.204  83.949  38.322  0.00  0.00    +0.020 A 
ATOM     28  C   LIG    1      -25.203  83.376  39.089  0.00  0.00    +0.004 A 
ATOM     29  C   LIG    1      -24.184  82.659  38.461  0.00  0.00    +0.028 A 
ENDBRANCH  22  24
ENDBRANCH  14  16
ENDBRANCH   4  12
BRANCH   1  31
ATOM     30  N   LIG    1      -29.007  76.230  31.271  0.00  0.00    -0.246 NA
ATOM     31  C   LIG    1      -28.029  75.539  31.760  0.00  0.00    +0.236 C 
BRANCH  30  34
ATOM     32  C   LIG    1      -32.336  75.961  30.808  0.00  0.00    +0.119 C 
ATOM     33  C   LIG    1      -31.380  76.073  32.015  0.00  0.00    +0.058 C 
ATOM     34  C   LIG    1      -30.266  75.506  31.107  0.00  0.00    +0.114 C 
ATOM     35  C   LIG    1      -31.083  76.043  29.904  0.00  0.00    +0.058 C 
BRANCH  32  36
ATOM     36  O   LIG    1      -33.097  74.739  30.732  0.00  0.00    -0.392 OA
ATOM     37  H   LIG    1      -33.898  74.904  31.259  0.00  0.00    +0.210 HD
ENDBRANCH  32  36
ENDBRANCH  30  34
BRANCH  31  38
ATOM     38  O   LIG    1      -28.142  74.246  32.137  0.00  0.00    -0.491 OA
ATOM     39  H   LIG    1      -27.759  73.668  31.454  0.00  0.00    +0.294 HD
ENDBRANCH  31  38
ENDBRANCH   1  31
TORSDOF 8
ENDMDL
MODEL 4
REMARK VINA RESULT:      -6.3     15.572     17.819
REMARK  Name = pdb/CHEMBL3915218.pdb
REMARK                            x       y       z     vdW  Elec       q    Type
REMARK                         _______ _______ _______ _____ _____    ______ ____
ROOT
ATOM      1  C   LIG    1      -24.219  78.757  34.305  0.00  0.00    +0.149 A 
ATOM      2  N   LIG    1      -23.233  78.784  33.390  0.00  0.00    -0.160 NA
ATOM      3  N   LIG    1      -23.349  77.603  32.703  0.00  0.00    -0.218 N 
ATOM      4  C   LIG    1      -24.418  76.824  33.191  0.00  0.00    +0.129 A 
ATOM      5  C   LIG    1      -24.994  77.585  34.185  0.00  0.00    +0.078 A 
ENDROOT
BRANCH   3   6
ATOM      6  C   LIG    1      -22.433  77.318  31.635  0.00  0.00    +0.067 A 
ATOM      7  C   LIG    1      -22.877  76.846  30.394  0.00  0.00    +0.028 A 
ATOM      8  C   LIG    1      -21.971  76.600  29.353  0.00  0.00    +0.002 A 
ATOM      9  C   LIG    1      -20.611  76.840  29.533  0.00  0.00    +0.000 A 
ATOM     10  C   LIG    1      -20.155  77.316  30.759  0.00  0.00    +0.002 A 
ATOM     11  C   LIG    1      -21.058  77.558  31.806  0.00  0.00    +0.028 A 
ENDBRANCH   3   6
BRANCH   4  12
ATOM     12  N   LIG    1      -24.793  75.514  32.839  0.00  0.00    -0.266 N 
ATOM     13  H   LIG    1      -24.422  74.753  33.402  0.00  0.00    +0.157 HD
ATOM     14  C   LIG    1      -25.729  75.195  31.777  0.00  0.00    +0.251 C 
ATOM     15  O   LIG    1      -26.248  76.057  31.106  0.00  0.00    -0.270 OA
BRANCH  14  16
ATOM     16  C   LIG    1      -26.077  73.751  31.564  0.00  0.00    +0.056 A 
ATOM     17  C   LIG    1      -27.271  73.155  31.965  0.00  0.00    +0.054 A 
ATOM     18 CL   LIG    1      -28.516  73.987  32.811  0.00  0.00    -0.083 Cl
ATOM     19  C   LIG    1      -27.480  71.794  31.745  0.00  0.00    +0.041 A 
ATOM     20  C   LIG    1      -26.493  70.989  31.155  0.00  0.00    +0.052 A 
ATOM     21 CL   LIG    1      -26.888  69.305  31.085  0.00  0.00    -0.083 Cl
ATOM     22  C   LIG    1      -25.265  71.538  30.739  0.00  0.00    +0.019 A 
ATOM     23  C   LIG    1      -25.095  72.933  30.962  0.00  0.00    +0.026 A 
BRANCH  22  24
ATOM     24  C   LIG    1      -24.135  70.765  30.153  0.00  0.00    +0.072 A 
ATOM     25  N   LIG    1      -23.161  70.434  31.043  0.00  0.00    -0.255 NA
ATOM     26  C   LIG    1      -22.109  69.703  30.604  0.00  0.00    +0.111 A 
ATOM     27  C   LIG    1      -21.969  69.259  29.304  0.00  0.00    +0.020 A 
ATOM     28  C   LIG    1      -22.949  69.615  28.392  0.00  0.00    +0.004 A 
ATOM     29  C   LIG    1      -24.026  70.396  28.813  0.00  0.00    +0.028 A 
ENDBRANCH  22  24
ENDBRANCH  14  16
ENDBRANCH   4  12
BRANCH   1  31
ATOM     30  N   LIG    1      -23.440  80.611  35.615  0.00  0.00    -0.246 NA
ATOM     31  C   LIG    1      -24.418  79.833  35.282  0.00  0.00    +0.236 C 
BRANCH  30  34
ATOM     32  C   LIG    1      -22.801  82.727  38.161  0.00  0.00    +0.119 C 
ATOM     33  C   LIG    1      -23.320  81.281  38.012  0.00  0.00    +0.058 C 
ATOM     34  C   LIG    1      -23.770  81.656  36.582  0.00  0.00    +0.114 C 
ATOM     35  C   LIG    1      -22.690  82.766  36.619  0.00  0.00    +0.058 C 
BRANCH  32  36
ATOM     36  O   LIG    1      -23.725  83.658  38.757  0.00  0.00    -0.392 OA
ATOM     37  H   LIG    1      -24.579  83.482  38.326  0.00  0.00    +0.210 HD
ENDBRANCH  32  36
ENDBRANCH  30  34
BRANCH  31  38
ATOM     38  O   LIG    1      -25.661  79.930  35.804  0.00  0.00    -0.491 OA
ATOM     39  H   LIG    1      -25.612  79.922  36.777  0.00  0.00    +0.294 HD
ENDBRANCH  31  38
ENDBRANCH   1  31
TORSDOF 8
ENDMDL
MODEL 5
REMARK VINA RESULT:      -6.2     19.356     21.711
REMARK  Name = pdb/CHEMBL3915218.pdb
REMARK                            x       y       z     vdW  Elec       q    Type
REMARK                         _______ _______ _______ _____ _____    ______ ____
ROOT
ATOM      1  C   LIG    1      -37.334  76.331  25.993  0.00  0.00    +0.149 A 
ATOM      2  N   LIG    1      -37.932  77.519  25.787  0.00  0.00    -0.160 NA
ATOM      3  N   LIG    1      -39.019  77.241  24.998  0.00  0.00    -0.218 N 
ATOM      4  C   LIG    1      -39.107  75.865  24.705  0.00  0.00    +0.129 A 
ATOM      5  C   LIG    1      -38.053  75.286  25.378  0.00  0.00    +0.078 A 
ENDROOT
BRANCH   3   6
ATOM      6  C   LIG    1      -39.886  78.311  24.594  0.00  0.00    +0.067 A 
ATOM      7  C   LIG    1      -41.234  78.344  24.969  0.00  0.00    +0.028 A 
ATOM      8  C   LIG    1      -42.060  79.412  24.588  0.00  0.00    +0.002 A 
ATOM      9  C   LIG    1      -41.544  80.470  23.845  0.00  0.00    +0.000 A 
ATOM     10  C   LIG    1      -40.203  80.455  23.470  0.00  0.00    +0.002 A 
ATOM     11  C   LIG    1      -39.375  79.385  23.844  0.00  0.00    +0.028 A 
ENDBRANCH   3   6
BRANCH   4  12
ATOM     12  N   LIG    1      -39.998  75.197  23.845  0.00  0.00    -0.266 N 
ATOM     13  H   LIG    1      -39.724  75.098  22.871  0.00  0.00    +0.157 HD
ATOM     14  C   LIG    1      -41.238  74.581  24.279  0.00  0.00    +0.251 C 
ATOM     15  O   LIG    1      -41.596  74.615  25.434  0.00  0.00    -0.270 OA
BRANCH  14  16
ATOM     16  C   LIG    1      -42.051  73.850  23.251  0.00  0.00    +0.056 A 
ATOM     17  C   LIG    1      -41.854  72.521  22.882  0.00  0.00    +0.054 A 
ATOM     18 CL   LIG    1      -40.606  71.527  23.526  0.00  0.00    -0.083 Cl
ATOM     19  C   LIG    1      -42.649  71.946  21.891  0.00  0.00    +0.041 A 
ATOM     20  C   LIG    1      -43.631  72.690  21.220  0.00  0.00    +0.052 A 
ATOM     21 CL   LIG    1      -44.423  71.840  19.936  0.00  0.00    -0.083 Cl
ATOM     22  C   LIG    1      -43.867  74.039  21.548  0.00  0.00    +0.019 A 
ATOM     23  C   LIG    1      -43.051  74.585  22.577  0.00  0.00    +0.026 A 
BRANCH  22  24
ATOM     24  C   LIG    1      -44.846  74.928  20.864  0.00  0.00    +0.072 A 
ATOM     25  N   LIG    1      -46.033  75.061  21.516  0.00  0.00    -0.255 NA
ATOM     26  C   LIG    1      -46.973  75.877  20.983  0.00  0.00    +0.111 A 
ATOM     27  C   LIG    1      -46.797  76.597  19.817  0.00  0.00    +0.020 A 
ATOM     28  C   LIG    1      -45.597  76.445  19.142  0.00  0.00    +0.004 A 
ATOM     29  C   LIG    1      -44.626  75.584  19.654  0.00  0.00    +0.028 A 
ENDBRANCH  22  24
ENDBRANCH  14  16
ENDBRANCH   4  12
BRANCH   1  31
ATOM     30  N   LIG    1      -35.327  77.217  26.965  0.00  0.00    -0.246 NA
ATOM     31  C   LIG    1      -36.095  76.195  26.766  0.00  0.00    +0.236 C 
BRANCH  30  34
ATOM     32  C   LIG    1      -32.269  77.915  28.201  0.00  0.00    +0.119 C 
ATOM     33  C   LIG    1      -32.835  77.194  26.959  0.00  0.00    +0.058 C 
ATOM     34  C   LIG    1      -34.132  76.957  27.766  0.00  0.00    +0.114 C 
ATOM     35  C   LIG    1      -33.733  78.189  28.618  0.00  0.00    +0.058 C 
BRANCH  32  36
ATOM     36  O   LIG    1      -31.495  77.092  29.096  0.00  0.00    -0.392 OA
ATOM     37  H   LIG    1      -31.952  77.147  29.953  0.00  0.00    +0.210 HD
ENDBRANCH  32  36
ENDBRANCH  30  34
BRANCH  31  38
ATOM     38  O   LIG    1      -35.819  74.953  27.220  0.00  0.00    -0.491 OA
ATOM     39  H   LIG    1      -35.971  74.911  28.181  0.00  0.00    +0.294 HD
ENDBRANCH  31  38
ENDBRANCH   1  31
TORSDOF 8
ENDMDL
MODEL 6
REMARK VINA RESULT:      -6.2     19.043     21.169
REMARK  Name = pdb/CHEMBL3915218.pdb
REMARK                            x       y       z     vdW  Elec       q    Type
REMARK                         _______ _______ _______ _____ _____    ______ ____
ROOT
ATOM      1  C   LIG    1      -37.401  76.390  25.984  0.00  0.00    +0.149 A 
ATOM      2  N   LIG    1      -38.003  77.578  25.794  0.00  0.00    -0.160 NA
ATOM      3  N   LIG    1      -39.089  77.307  25.002  0.00  0.00    -0.218 N 
ATOM      4  C   LIG    1      -39.172  75.935  24.689  0.00  0.00    +0.129 A 
ATOM      5  C   LIG    1      -38.115  75.350  25.354  0.00  0.00    +0.078 A 
ENDROOT
BRANCH   3   6
ATOM      6  C   LIG    1      -39.960  78.380  24.613  0.00  0.00    +0.067 A 
ATOM      7  C   LIG    1      -41.301  78.417  25.013  0.00  0.00    +0.028 A 
ATOM      8  C   LIG    1      -42.130  79.487  24.646  0.00  0.00    +0.002 A 
ATOM      9  C   LIG    1      -41.625  80.542  23.891  0.00  0.00    +0.000 A 
ATOM     10  C   LIG    1      -40.291  80.523  23.491  0.00  0.00    +0.002 A 
ATOM     11  C   LIG    1      -39.460  79.450  23.851  0.00  0.00    +0.028 A 
ENDBRANCH   3   6
BRANCH   4  12
ATOM     12  N   LIG    1      -40.060  75.276  23.820  0.00  0.00    -0.266 N 
ATOM     13  H   LIG    1      -39.758  75.134  22.860  0.00  0.00    +0.157 HD
ATOM     14  C   LIG    1      -41.339  74.725  24.230  0.00  0.00    +0.251 C 
ATOM     15  O   LIG    1      -41.734  74.812  25.369  0.00  0.00    -0.270 OA
BRANCH  14  16
ATOM     16  C   LIG    1      -42.147  73.994  23.197  0.00  0.00    +0.056 A 
ATOM     17  C   LIG    1      -43.217  74.541  22.494  0.00  0.00    +0.054 A 
ATOM     18 CL   LIG    1      -43.804  76.140  22.740  0.00  0.00    -0.083 Cl
ATOM     19  C   LIG    1      -43.922  73.762  21.576  0.00  0.00    +0.041 A 
ATOM     20  C   LIG    1      -43.601  72.412  21.366  0.00  0.00    +0.052 A 
ATOM     21 CL   LIG    1      -44.669  71.580  20.288  0.00  0.00    -0.083 Cl
ATOM     22  C   LIG    1      -42.534  71.806  22.057  0.00  0.00    +0.019 A 
ATOM     23  C   LIG    1      -41.825  72.637  22.969  0.00  0.00    +0.026 A 
BRANCH  22  24
ATOM     24  C   LIG    1      -42.145  70.373  21.946  0.00  0.00    +0.072 A 
ATOM     25  N   LIG    1      -42.947  69.520  22.637  0.00  0.00    -0.255 NA
ATOM     26  C   LIG    1      -42.687  68.192  22.568  0.00  0.00    +0.111 A 
ATOM     27  C   LIG    1      -41.658  67.647  21.825  0.00  0.00    +0.020 A 
ATOM     28  C   LIG    1      -40.827  68.518  21.139  0.00  0.00    +0.004 A 
ATOM     29  C   LIG    1      -41.056  69.892  21.221  0.00  0.00    +0.028 A 
ENDBRANCH  22  24
ENDBRANCH  14  16
ENDBRANCH   4  12
BRANCH   1  31
ATOM     30  N   LIG    1      -35.443  77.284  27.045  0.00  0.00    -0.246 NA
ATOM     31  C   LIG    1      -36.161  76.248  26.754  0.00  0.00    +0.236 C 
BRANCH  30  34
ATOM     32  C   LIG    1      -32.313  77.888  28.144  0.00  0.00    +0.119 C 
ATOM     33  C   LIG    1      -32.958  77.110  26.978  0.00  0.00    +0.058 C 
ATOM     34  C   LIG    1      -34.242  77.014  27.832  0.00  0.00    +0.114 C 
ATOM     35  C   LIG    1      -33.747  78.281  28.575  0.00  0.00    +0.058 C 
BRANCH  32  36
ATOM     36  O   LIG    1      -31.563  77.090  29.081  0.00  0.00    -0.392 OA
ATOM     37  H   LIG    1      -32.077  76.272  29.189  0.00  0.00    +0.210 HD
ENDBRANCH  32  36
ENDBRANCH  30  34
BRANCH  31  38
ATOM     38  O   LIG    1      -35.830  74.986  27.107  0.00  0.00    -0.491 OA
ATOM     39  H   LIG    1      -35.037  74.704  26.617  0.00  0.00    +0.294 HD
ENDBRANCH  31  38
ENDBRANCH   1  31
TORSDOF 8
ENDMDL
MODEL 7
REMARK VINA RESULT:      -6.2     18.331     21.440
REMARK  Name = pdb/CHEMBL3915218.pdb
REMARK                            x       y       z     vdW  Elec       q    Type
REMARK                         _______ _______ _______ _____ _____    ______ ____
ROOT
ATOM      1  C   LIG    1      -40.685  73.095  23.722  0.00  0.00    +0.149 A 
ATOM      2  N   LIG    1      -40.877  74.424  23.807  0.00  0.00    -0.160 NA
ATOM      3  N   LIG    1      -39.743  74.913  24.405  0.00  0.00    -0.218 N 
ATOM      4  C   LIG    1      -38.829  73.881  24.700  0.00  0.00    +0.129 A 
ATOM      5  C   LIG    1      -39.418  72.730  24.223  0.00  0.00    +0.078 A 
ENDROOT
BRANCH   3   6
ATOM      6  C   LIG    1      -39.626  76.324  24.641  0.00  0.00    +0.067 A 
ATOM      7  C   LIG    1      -39.694  77.250  23.593  0.00  0.00    +0.028 A 
ATOM      8  C   LIG    1      -39.605  78.627  23.845  0.00  0.00    +0.002 A 
ATOM      9  C   LIG    1      -39.466  79.095  25.149  0.00  0.00    +0.000 A 
ATOM     10  C   LIG    1      -39.402  78.187  26.202  0.00  0.00    +0.002 A 
ATOM     11  C   LIG    1      -39.485  76.808  25.953  0.00  0.00    +0.028 A 
ENDBRANCH   3   6
BRANCH   4  12
ATOM     12  N   LIG    1      -37.614  73.949  25.407  0.00  0.00    -0.266 N 
ATOM     13  H   LIG    1      -36.767  74.116  24.869  0.00  0.00    +0.157 HD
ATOM     14  C   LIG    1      -37.510  73.872  26.852  0.00  0.00    +0.251 C 
ATOM     15  O   LIG    1      -38.484  73.728  27.554  0.00  0.00    -0.270 OA
BRANCH  14  16
ATOM     16  C   LIG    1      -36.147  74.024  27.462  0.00  0.00    +0.056 A 
ATOM     17  C   LIG    1      -35.496  73.041  28.204  0.00  0.00    +0.054 A 
ATOM     18 CL   LIG    1      -36.184  71.508  28.570  0.00  0.00    -0.083 Cl
ATOM     19  C   LIG    1      -34.240  73.299  28.755  0.00  0.00    +0.041 A 
ATOM     20  C   LIG    1      -33.622  74.550  28.611  0.00  0.00    +0.052 A 
ATOM     21 CL   LIG    1      -32.131  74.718  29.473  0.00  0.00    -0.083 Cl
ATOM     22  C   LIG    1      -34.241  75.583  27.878  0.00  0.00    +0.019 A 
ATOM     23  C   LIG    1      -35.511  75.277  27.315  0.00  0.00    +0.026 A 
BRANCH  22  24
ATOM     24  C   LIG    1      -33.696  76.958  27.710  0.00  0.00    +0.072 A 
ATOM     25  N   LIG    1      -32.776  77.079  26.716  0.00  0.00    -0.255 NA
ATOM     26  C   LIG    1      -32.250  78.303  26.470  0.00  0.00    +0.111 A 
ATOM     27  C   LIG    1      -32.601  79.445  27.162  0.00  0.00    +0.020 A 
ATOM     28  C   LIG    1      -33.522  79.318  28.189  0.00  0.00    +0.004 A 
ATOM     29  C   LIG    1      -34.053  78.062  28.483  0.00  0.00    +0.028 A 
ENDBRANCH  22  24
ENDBRANCH  14  16
ENDBRANCH   4  12
BRANCH   1  31
ATOM     30  N   LIG    1      -42.320  72.477  22.078  0.00  0.00    -0.246 NA
ATOM     31  C   LIG    1      -41.695  72.185  23.173  0.00  0.00    +0.236 C 
BRANCH  30  34
ATOM     32  C   LIG    1      -44.109  70.790  19.771  0.00  0.00    +0.119 C 
ATOM     33  C   LIG    1      -44.290  72.075  20.607  0.00  0.00    +0.058 C 
ATOM     34  C   LIG    1      -43.288  71.482  21.623  0.00  0.00    +0.114 C 
ATOM     35  C   LIG    1      -42.730  70.630  20.455  0.00  0.00    +0.058 C 
BRANCH  32  36
ATOM     36  O   LIG    1      -45.070  69.746  20.025  0.00  0.00    -0.392 OA
ATOM     37  H   LIG    1      -45.621  69.706  19.224  0.00  0.00    +0.210 HD
ENDBRANCH  32  36
ENDBRANCH  30  34
BRANCH  31  38
ATOM     38  O   LIG    1      -41.929  71.063  23.889  0.00  0.00    -0.491 OA
ATOM     39  H   LIG    1      -41.309  71.016  24.639  0.00  0.00    +0.294 HD
ENDBRANCH  31  38
ENDBRANCH   1  31
TORSDOF 8
ENDMDL
MODEL 8
REMARK VINA RESULT:      -6.2      4.486     10.357
REMARK  Name = pdb/CHEMBL3915218.pdb
REMARK                            x       y       z     vdW  Elec       q    Type
REMARK                         _______ _______ _______ _____ _____    ______ ____
ROOT
ATOM      1  C   LIG    1      -26.249  77.784  14.133  0.00  0.00    +0.149 A 
ATOM      2  N   LIG    1      -25.074  77.823  14.788  0.00  0.00    -0.160 NA
ATOM      3  N   LIG    1      -24.595  79.093  14.592  0.00  0.00    -0.218 N 
ATOM      4  C   LIG    1      -25.477  79.862  13.806  0.00  0.00    +0.129 A 
ATOM      5  C   LIG    1      -26.549  79.034  13.553  0.00  0.00    +0.078 A 
ENDROOT
BRANCH   3   6
ATOM      6  C   LIG    1      -23.338  79.468  15.176  0.00  0.00    +0.067 A 
ATOM      7  C   LIG    1      -23.227  80.570  16.032  0.00  0.00    +0.028 A 
ATOM      8  C   LIG    1      -21.996  80.905  16.615  0.00  0.00    +0.002 A 
ATOM      9  C   LIG    1      -20.866  80.132  16.364  0.00  0.00    +0.000 A 
ATOM     10  C   LIG    1      -20.962  79.030  15.519  0.00  0.00    +0.002 A 
ATOM     11  C   LIG    1      -22.191  78.695  14.929  0.00  0.00    +0.028 A 
ENDBRANCH   3   6
BRANCH   4  12
ATOM     12  N   LIG    1      -25.303  81.160  13.290  0.00  0.00    -0.266 N 
ATOM     13  H   LIG    1      -25.868  81.904  13.691  0.00  0.00    +0.157 HD
ATOM     14  C   LIG    1      -24.318  81.508  12.283  0.00  0.00    +0.251 C 
ATOM     15  O   LIG    1      -23.576  80.681  11.805  0.00  0.00    -0.270 OA
BRANCH  14  16
ATOM     16  C   LIG    1      -24.210  82.950  11.881  0.00  0.00    +0.056 A 
ATOM     17  C   LIG    1      -24.828  83.510  10.765  0.00  0.00    +0.054 A 
ATOM     18 CL   LIG    1      -25.779  82.611   9.648  0.00  0.00    -0.083 Cl
ATOM     19  C   LIG    1      -24.637  84.858  10.463  0.00  0.00    +0.041 A 
ATOM     20  C   LIG    1      -23.798  85.669  11.244  0.00  0.00    +0.052 A 
ATOM     21 CL   LIG    1      -23.586  87.276  10.637  0.00  0.00    -0.083 Cl
ATOM     22  C   LIG    1      -23.142  85.151  12.378  0.00  0.00    +0.019 A 
ATOM     23  C   LIG    1      -23.377  83.778  12.665  0.00  0.00    +0.026 A 
BRANCH  22  24
ATOM     24  C   LIG    1      -22.194  85.910  13.240  0.00  0.00    +0.072 A 
ATOM     25  N   LIG    1      -20.920  85.953  12.767  0.00  0.00    -0.255 NA
ATOM     26  C   LIG    1      -19.995  86.649  13.471  0.00  0.00    +0.111 A 
ATOM     27  C   LIG    1      -20.270  87.332  14.640  0.00  0.00    +0.020 A 
ATOM     28  C   LIG    1      -21.563  87.269  15.133  0.00  0.00    +0.004 A 
ATOM     29  C   LIG    1      -22.525  86.531  14.443  0.00  0.00    +0.028 A 
ENDBRANCH  22  24
ENDBRANCH  14  16
ENDBRANCH   4  12
BRANCH   1  31
ATOM     30  N   LIG    1      -26.528  75.401  14.112  0.00  0.00    -0.246 NA
ATOM     31  C   LIG    1      -27.073  76.574  14.061  0.00  0.00    +0.236 C 
BRANCH  30  34
ATOM     32  C   LIG    1      -27.373  72.159  13.740  0.00  0.00    +0.119 C 
ATOM     33  C   LIG    1      -27.199  73.382  12.815  0.00  0.00    +0.058 C 
ATOM     34  C   LIG    1      -27.457  74.275  14.050  0.00  0.00    +0.114 C 
ATOM     35  C   LIG    1      -26.971  73.083  14.914  0.00  0.00    +0.058 C 
BRANCH  32  36
ATOM     36  O   LIG    1      -28.704  71.606  13.791  0.00  0.00    -0.392 OA
ATOM     37  H   LIG    1      -29.252  72.210  13.261  0.00  0.00    +0.210 HD
ENDBRANCH  32  36
ENDBRANCH  30  34
BRANCH  31  38
ATOM     38  O   LIG    1      -28.402  76.775  13.922  0.00  0.00    -0.491 OA
ATOM     39  H   LIG    1      -28.837  76.723  14.792  0.00  0.00    +0.294 HD
ENDBRANCH  31  38
ENDBRANCH   1  31
TORSDOF 8
ENDMDL
MODEL 9
REMARK VINA RESULT:      -6.1     16.809     20.335
REMARK  Name = pdb/CHEMBL3915218.pdb
REMARK                            x       y       z     vdW  Elec       q    Type
REMARK                         _______ _______ _______ _____ _____    ______ ____
ROOT
ATOM      1  C   LIG    1      -24.949  74.072  31.907  0.00  0.00    +0.149 A 
ATOM      2  N   LIG    1      -23.880  74.222  31.104  0.00  0.00    -0.160 NA
ATOM      3  N   LIG    1      -23.144  75.231  31.671  0.00  0.00    -0.218 N 
ATOM      4  C   LIG    1      -23.757  75.723  32.842  0.00  0.00    +0.129 A 
ATOM      5  C   LIG    1      -24.886  74.951  33.009  0.00  0.00    +0.078 A 
ENDROOT
BRANCH   3   6
ATOM      6  C   LIG    1      -21.916  75.639  31.051  0.00  0.00    +0.067 A 
ATOM      7  C   LIG    1      -21.902  76.503  29.949  0.00  0.00    +0.028 A 
ATOM      8  C   LIG    1      -20.691  76.914  29.373  0.00  0.00    +0.002 A 
ATOM      9  C   LIG    1      -19.479  76.480  29.901  0.00  0.00    +0.000 A 
ATOM     10  C   LIG    1      -19.475  75.626  31.001  0.00  0.00    +0.002 A 
ATOM     11  C   LIG    1      -20.685  75.209  31.577  0.00  0.00    +0.028 A 
ENDBRANCH   3   6
BRANCH   4  12
ATOM     12  N   LIG    1      -23.387  76.819  33.642  0.00  0.00    -0.266 N 
ATOM     13  H   LIG    1      -22.939  76.619  34.533  0.00  0.00    +0.157 HD
ATOM     14  C   LIG    1      -23.536  78.205  33.241  0.00  0.00    +0.251 C 
ATOM     15  O   LIG    1      -24.011  78.512  32.172  0.00  0.00    -0.270 OA
BRANCH  14  16
ATOM     16  C   LIG    1      -23.034  79.262  34.182  0.00  0.00    +0.056 A 
ATOM     17  C   LIG    1      -21.690  79.536  34.423  0.00  0.00    +0.054 A 
ATOM     18 CL   LIG    1      -20.394  78.665  33.702  0.00  0.00    -0.083 Cl
ATOM     19  C   LIG    1      -21.332  80.522  35.343  0.00  0.00    +0.041 A 
ATOM     20  C   LIG    1      -22.302  81.229  36.069  0.00  0.00    +0.052 A 
ATOM     21 CL   LIG    1      -21.659  82.316  37.254  0.00  0.00    -0.083 Cl
ATOM     22  C   LIG    1      -23.675  80.986  35.872  0.00  0.00    +0.019 A 
ATOM     23  C   LIG    1      -24.002  79.988  34.911  0.00  0.00    +0.026 A 
BRANCH  22  24
ATOM     24  C   LIG    1      -24.779  81.642  36.625  0.00  0.00    +0.072 A 
ATOM     25  N   LIG    1      -24.970  82.951  36.312  0.00  0.00    -0.255 NA
ATOM     26  C   LIG    1      -25.975  83.621  36.926  0.00  0.00    +0.111 A 
ATOM     27  C   LIG    1      -26.830  83.049  37.848  0.00  0.00    +0.020 A 
ATOM     28  C   LIG    1      -26.621  81.722  38.184  0.00  0.00    +0.004 A 
ATOM     29  C   LIG    1      -25.571  81.021  37.589  0.00  0.00    +0.028 A 
ENDBRANCH  22  24
ENDBRANCH  14  16
ENDBRANCH   4  12
BRANCH   1  31
ATOM     30  N   LIG    1      -25.741  71.944  31.133  0.00  0.00    -0.246 NA
ATOM     31  C   LIG    1      -26.017  73.107  31.627  0.00  0.00    +0.236 C 
BRANCH  30  34
ATOM     32  C   LIG    1      -27.279  68.967  30.756  0.00  0.00    +0.119 C 
ATOM     33  C   LIG    1      -26.606  70.003  29.831  0.00  0.00    +0.058 C 
ATOM     34  C   LIG    1      -26.889  71.065  30.917  0.00  0.00    +0.114 C 
ATOM     35  C   LIG    1      -26.919  69.899  31.937  0.00  0.00    +0.058 C 
BRANCH  32  36
ATOM     36  O   LIG    1      -28.685  68.750  30.522  0.00  0.00    -0.392 OA
ATOM     37  H   LIG    1      -29.033  69.612  30.235  0.00  0.00    +0.210 HD
ENDBRANCH  32  36
ENDBRANCH  30  34
BRANCH  31  38
ATOM     38  O   LIG    1      -27.273  73.525  31.898  0.00  0.00    -0.491 OA
ATOM     39  H   LIG    1      -27.436  73.481  32.857  0.00  0.00    +0.294 HD
ENDBRANCH  31  38
ENDBRANCH   1  31
TORSDOF 8
ENDMDL
