MODEL 1
REMARK VINA RESULT:      -6.6      0.000      0.000
REMARK  Name = pdb/CHEMBL3676033.pdb
REMARK                            x       y       z     vdW  Elec       q    Type
REMARK                         _______ _______ _______ _____ _____    ______ ____
ROOT
ATOM      1  C   LIG    1      -20.620  79.038  34.383  0.00  0.00    +0.126 A 
ATOM      2  N   LIG    1      -20.774  78.539  33.172  0.00  0.00    -0.212 NA
ATOM      3  C   LIG    1      -19.658  78.070  32.517  0.00  0.00    +0.170 A 
ATOM      4  C   LIG    1      -19.493  77.452  31.290  0.00  0.00    +0.100 A 
ATOM      5  C   LIG    1      -18.097  77.273  31.170  0.00  0.00    +0.150 A 
ATOM      6  N   LIG    1      -17.422  77.709  32.234  0.00  0.00    -0.173 NA
ATOM      7  N   LIG    1      -18.381  78.170  33.069  0.00  0.00    -0.221 N 
ATOM      8  C   LIG    1      -18.210  78.678  34.343  0.00  0.00    +0.118 A 
ATOM      9  C   LIG    1      -19.267  79.091  35.050  0.00  0.00    +0.063 A 
ENDROOT
BRANCH   1  11
ATOM     10  C   LIG    1      -21.986  79.385  36.494  0.00  0.00    +0.110 C 
ATOM     11  N   LIG    1      -21.731  79.546  35.046  0.00  0.00    -0.308 N 
ATOM     12  C   LIG    1      -22.966  79.897  34.334  0.00  0.00    +0.107 C 
ATOM     13  C   LIG    1      -24.034  80.016  35.418  0.00  0.00    +0.021 C 
ATOM     14  C   LIG    1      -23.497  79.126  36.528  0.00  0.00    +0.029 C 
BRANCH  10  16
ATOM     15  C   LIG    1      -21.414  80.571  38.689  0.00  0.00    +0.220 A 
ATOM     16  C   LIG    1      -21.533  80.599  37.292  0.00  0.00    +0.037 A 
ATOM     17  C   LIG    1      -21.182  81.808  36.665  0.00  0.00    +0.050 A 
ATOM     18  C   LIG    1      -20.677  82.864  37.408  0.00  0.00    +0.142 A 
ATOM     19  F   LIG    1      -20.347  84.014  36.808  0.00  0.00    -0.204 F 
ATOM     20  C   LIG    1      -20.513  82.702  38.764  0.00  0.00    +0.153 A 
ATOM     21  N   LIG    1      -20.879  81.580  39.421  0.00  0.00    -0.218 NA
BRANCH  15  23
ATOM     22  C   LIG    1      -22.995  79.776  40.247  0.00  0.00    +0.279 C 
ATOM     23  O   LIG    1      -21.906  79.473  39.367  0.00  0.00    -0.479 OA
ENDBRANCH  15  23
ENDBRANCH  10  16
ENDBRANCH   1  11
BRANCH   4  24
ATOM     24  C   LIG    1      -20.499  77.052  30.330  0.00  0.00    +0.249 C 
ATOM     25  N   LIG    1      -21.745  76.769  30.876  0.00  0.00    -0.308 N 
ATOM     26  H   LIG    1      -21.889  77.102  31.827  0.00  0.00    +0.149 HD
ATOM     27  O   LIG    1      -20.247  76.961  29.142  0.00  0.00    -0.270 OA
BRANCH  25  28
ATOM     28  C   LIG    1      -22.872  76.397  30.030  0.00  0.00    +0.076 C 
ATOM     29  C   LIG    1      -23.793  77.589  29.716  0.00  0.00    +0.039 C 
ATOM     30  C   LIG    1      -24.800  77.913  30.817  0.00  0.00    +0.111 C 
ATOM     31  N   LIG    1      -25.517  76.683  31.227  0.00  0.00    -0.181 NA
ATOM     32  C   LIG    1      -24.587  75.656  31.744  0.00  0.00    +0.111 C 
ATOM     33  C   LIG    1      -23.664  75.221  30.622  0.00  0.00    +0.039 C 
BRANCH  31  34
ATOM     34  S   LIG    1      -26.941  76.897  32.137  0.00  0.00    +0.029 S 
ATOM     35  C   LIG    1      -27.427  75.206  32.419  0.00  0.00    +0.215 C 
ATOM     36  O   LIG    1      -27.941  77.510  31.282  0.00  0.00    -0.158 OA
ATOM     37  O   LIG    1      -26.582  77.481  33.407  0.00  0.00    -0.158 OA
ENDBRANCH  31  34
ENDBRANCH  25  28
ENDBRANCH   4  24
TORSDOF 6
ENDMDL
MODEL 2
REMARK VINA RESULT:      -6.3      2.304      3.227
REMARK  Name = pdb/CHEMBL3676033.pdb
REMARK                            x       y       z     vdW  Elec       q    Type
REMARK                         _______ _______ _______ _____ _____    ______ ____
ROOT
ATOM      1  C   LIG    1      -20.327  79.001  34.280  0.00  0.00    +0.126 A 
ATOM      2  N   LIG    1      -20.457  78.519  33.059  0.00  0.00    -0.212 NA
ATOM      3  C   LIG    1      -19.329  78.056  32.421  0.00  0.00    +0.170 A 
ATOM      4  C   LIG    1      -19.141  77.455  31.189  0.00  0.00    +0.100 A 
ATOM      5  C   LIG    1      -17.744  77.272  31.096  0.00  0.00    +0.150 A 
ATOM      6  N   LIG    1      -17.089  77.690  32.179  0.00  0.00    -0.173 NA
ATOM      7  N   LIG    1      -18.063  78.143  33.001  0.00  0.00    -0.221 N 
ATOM      8  C   LIG    1      -17.918  78.632  34.285  0.00  0.00    +0.118 A 
ATOM      9  C   LIG    1      -18.988  79.039  34.976  0.00  0.00    +0.063 A 
ENDROOT
BRANCH   1  11
ATOM     10  C   LIG    1      -22.814  78.950  34.786  0.00  0.00    +0.110 C 
ATOM     11  N   LIG    1      -21.449  79.503  34.927  0.00  0.00    -0.308 N 
ATOM     12  C   LIG    1      -21.493  80.874  35.452  0.00  0.00    +0.107 C 
ATOM     13  C   LIG    1      -22.972  81.160  35.704  0.00  0.00    +0.021 C 
ATOM     14  C   LIG    1      -23.673  80.220  34.736  0.00  0.00    +0.029 C 
BRANCH  10  16
ATOM     15  C   LIG    1      -22.835  76.630  35.867  0.00  0.00    +0.220 A 
ATOM     16  C   LIG    1      -23.161  77.994  35.916  0.00  0.00    +0.037 A 
ATOM     17  C   LIG    1      -23.807  78.433  37.086  0.00  0.00    +0.050 A 
ATOM     18  C   LIG    1      -24.021  77.560  38.141  0.00  0.00    +0.142 A 
ATOM     19  F   LIG    1      -24.638  77.981  39.252  0.00  0.00    -0.204 F 
ATOM     20  C   LIG    1      -23.578  76.262  38.028  0.00  0.00    +0.153 A 
ATOM     21  N   LIG    1      -22.998  75.777  36.909  0.00  0.00    -0.218 NA
BRANCH  15  23
ATOM     22  C   LIG    1      -21.141  75.370  34.817  0.00  0.00    +0.279 C 
ATOM     23  O   LIG    1      -22.359  76.113  34.679  0.00  0.00    -0.479 OA
ENDBRANCH  15  23
ENDBRANCH  10  16
ENDBRANCH   1  11
BRANCH   4  24
ATOM     24  C   LIG    1      -20.128  77.072  30.202  0.00  0.00    +0.249 C 
ATOM     25  N   LIG    1      -21.407  76.870  30.707  0.00  0.00    -0.308 N 
ATOM     26  H   LIG    1      -21.571  77.242  31.640  0.00  0.00    +0.149 HD
ATOM     27  O   LIG    1      -19.836  76.929  29.029  0.00  0.00    -0.270 OA
BRANCH  25  28
ATOM     28  C   LIG    1      -22.518  76.526  29.828  0.00  0.00    +0.076 C 
ATOM     29  C   LIG    1      -23.499  77.695  29.632  0.00  0.00    +0.039 C 
ATOM     30  C   LIG    1      -24.517  77.858  30.759  0.00  0.00    +0.111 C 
ATOM     31  N   LIG    1      -25.168  76.559  31.047  0.00  0.00    -0.181 NA
ATOM     32  C   LIG    1      -24.185  75.535  31.461  0.00  0.00    +0.111 C 
ATOM     33  C   LIG    1      -23.247  75.259  30.302  0.00  0.00    +0.039 C 
BRANCH  31  34
ATOM     34  S   LIG    1      -26.597  76.610  31.973  0.00  0.00    +0.029 S 
ATOM     35  C   LIG    1      -25.988  77.272  33.510  0.00  0.00    +0.215 C 
ATOM     36  O   LIG    1      -27.032  75.246  32.217  0.00  0.00    -0.158 OA
ATOM     37  O   LIG    1      -27.483  77.583  31.381  0.00  0.00    -0.158 OA
ENDBRANCH  31  34
ENDBRANCH  25  28
ENDBRANCH   4  24
TORSDOF 6
ENDMDL
MODEL 3
REMARK VINA RESULT:      -5.9     18.511     21.771
REMARK  Name = pdb/CHEMBL3676033.pdb
REMARK                            x       y       z     vdW  Elec       q    Type
REMARK                         _______ _______ _______ _____ _____    ______ ____
ROOT
ATOM      1  C   LIG    1      -20.131  84.993  13.074  0.00  0.00    +0.126 A 
ATOM      2  N   LIG    1      -19.988  83.868  13.748  0.00  0.00    -0.212 NA
ATOM      3  C   LIG    1      -18.846  83.128  13.541  0.00  0.00    +0.170 A 
ATOM      4  C   LIG    1      -18.381  81.959  14.116  0.00  0.00    +0.100 A 
ATOM      5  C   LIG    1      -17.177  81.683  13.430  0.00  0.00    +0.150 A 
ATOM      6  N   LIG    1      -16.876  82.604  12.515  0.00  0.00    -0.173 NA
ATOM      7  N   LIG    1      -17.883  83.503  12.603  0.00  0.00    -0.221 N 
ATOM      8  C   LIG    1      -18.016  84.686  11.904  0.00  0.00    +0.118 A 
ATOM      9  C   LIG    1      -19.075  85.476  12.110  0.00  0.00    +0.063 A 
ENDROOT
BRANCH   1  11
ATOM     10  C   LIG    1      -21.985  86.467  12.163  0.00  0.00    +0.110 C 
ATOM     11  N   LIG    1      -21.292  85.735  13.246  0.00  0.00    -0.308 N 
ATOM     12  C   LIG    1      -21.703  86.240  14.562  0.00  0.00    +0.107 C 
ATOM     13  C   LIG    1      -22.756  87.307  14.272  0.00  0.00    +0.021 C 
ATOM     14  C   LIG    1      -22.403  87.764  12.865  0.00  0.00    +0.029 C 
BRANCH  10  16
ATOM     15  C   LIG    1      -22.933  84.640  10.641  0.00  0.00    +0.220 A 
ATOM     16  C   LIG    1      -23.137  85.664  11.578  0.00  0.00    +0.037 A 
ATOM     17  C   LIG    1      -24.470  85.888  11.967  0.00  0.00    +0.050 A 
ATOM     18  C   LIG    1      -25.487  85.075  11.494  0.00  0.00    +0.142 A 
ATOM     19  F   LIG    1      -26.754  85.293  11.865  0.00  0.00    -0.204 F 
ATOM     20  C   LIG    1      -25.168  84.038  10.648  0.00  0.00    +0.153 A 
ATOM     21  N   LIG    1      -23.913  83.809  10.205  0.00  0.00    -0.218 NA
BRANCH  15  23
ATOM     22  C   LIG    1      -21.232  83.131  10.018  0.00  0.00    +0.279 C 
ATOM     23  O   LIG    1      -21.673  84.492  10.096  0.00  0.00    -0.479 OA
ENDBRANCH  15  23
ENDBRANCH  10  16
ENDBRANCH   1  11
BRANCH   4  24
ATOM     24  C   LIG    1      -18.960  81.179  15.188  0.00  0.00    +0.249 C 
ATOM     25  N   LIG    1      -20.349  81.177  15.222  0.00  0.00    -0.308 N 
ATOM     26  H   LIG    1      -20.805  81.504  14.372  0.00  0.00    +0.149 HD
ATOM     27  O   LIG    1      -18.265  80.591  15.998  0.00  0.00    -0.270 OA
BRANCH  25  28
ATOM     28  C   LIG    1      -21.078  80.398  16.216  0.00  0.00    +0.076 C 
ATOM     29  C   LIG    1      -21.401  78.975  15.731  0.00  0.00    +0.039 C 
ATOM     30  C   LIG    1      -22.635  78.879  14.835  0.00  0.00    +0.111 C 
ATOM     31  N   LIG    1      -23.776  79.579  15.469  0.00  0.00    -0.181 NA
ATOM     32  C   LIG    1      -23.482  81.011  15.695  0.00  0.00    +0.111 C 
ATOM     33  C   LIG    1      -22.345  81.127  16.691  0.00  0.00    +0.039 C 
BRANCH  31  34
ATOM     34  S   LIG    1      -25.323  79.247  14.836  0.00  0.00    +0.029 S 
ATOM     35  C   LIG    1      -24.947  77.953  13.670  0.00  0.00    +0.215 C 
ATOM     36  O   LIG    1      -25.768  80.407  14.085  0.00  0.00    -0.158 OA
ATOM     37  O   LIG    1      -26.130  78.683  15.891  0.00  0.00    -0.158 OA
ENDBRANCH  31  34
ENDBRANCH  25  28
ENDBRANCH   4  24
TORSDOF 6
ENDMDL
MODEL 4
REMARK VINA RESULT:      -5.9      3.166      6.164
REMARK  Name = pdb/CHEMBL3676033.pdb
REMARK                            x       y       z     vdW  Elec       q    Type
REMARK                         _______ _______ _______ _____ _____    ______ ____
ROOT
ATOM      1  C   LIG    1      -21.909  77.287  31.504  0.00  0.00    +0.126 A 
ATOM      2  N   LIG    1      -21.199  77.756  32.512  0.00  0.00    -0.212 NA
ATOM      3  C   LIG    1      -19.841  77.901  32.337  0.00  0.00    +0.170 A 
ATOM      4  C   LIG    1      -18.849  78.404  33.159  0.00  0.00    +0.100 A 
ATOM      5  C   LIG    1      -17.657  78.222  32.423  0.00  0.00    +0.150 A 
ATOM      6  N   LIG    1      -17.862  77.678  31.224  0.00  0.00    -0.173 NA
ATOM      7  N   LIG    1      -19.202  77.509  31.160  0.00  0.00    -0.221 N 
ATOM      8  C   LIG    1      -19.938  77.030  30.094  0.00  0.00    +0.118 A 
ATOM      9  C   LIG    1      -21.268  76.927  30.185  0.00  0.00    +0.063 A 
ENDROOT
BRANCH   1  11
ATOM     10  C   LIG    1      -23.900  75.846  32.139  0.00  0.00    +0.110 C 
ATOM     11  N   LIG    1      -23.276  77.104  31.674  0.00  0.00    -0.308 N 
ATOM     12  C   LIG    1      -24.262  77.957  31.000  0.00  0.00    +0.107 C 
ATOM     13  C   LIG    1      -25.586  77.204  31.110  0.00  0.00    +0.021 C 
ATOM     14  C   LIG    1      -25.146  75.756  31.250  0.00  0.00    +0.029 C 
BRANCH  10  16
ATOM     15  C   LIG    1      -23.236  75.466  34.582  0.00  0.00    +0.220 A 
ATOM     16  C   LIG    1      -24.187  75.870  33.633  0.00  0.00    +0.037 A 
ATOM     17  C   LIG    1      -25.415  76.325  34.144  0.00  0.00    +0.050 A 
ATOM     18  C   LIG    1      -25.612  76.430  35.512  0.00  0.00    +0.142 A 
ATOM     19  F   LIG    1      -26.783  76.861  35.994  0.00  0.00    -0.204 F 
ATOM     20  C   LIG    1      -24.580  76.095  36.358  0.00  0.00    +0.153 A 
ATOM     21  N   LIG    1      -23.399  75.606  35.921  0.00  0.00    -0.218 NA
BRANCH  15  23
ATOM     22  C   LIG    1      -20.925  75.146  34.926  0.00  0.00    +0.279 C 
ATOM     23  O   LIG    1      -22.083  74.852  34.134  0.00  0.00    -0.479 OA
ENDBRANCH  15  23
ENDBRANCH  10  16
ENDBRANCH   1  11
BRANCH   4  24
ATOM     24  C   LIG    1      -18.969  79.001  34.471  0.00  0.00    +0.249 C 
ATOM     25  N   LIG    1      -20.140  79.720  34.678  0.00  0.00    -0.308 N 
ATOM     26  H   LIG    1      -20.881  79.550  34.001  0.00  0.00    +0.149 HD
ATOM     27  O   LIG    1      -18.093  78.883  35.309  0.00  0.00    -0.270 OA
BRANCH  25  28
ATOM     28  C   LIG    1      -20.426  80.341  35.966  0.00  0.00    +0.076 C 
ATOM     29  C   LIG    1      -21.231  79.420  36.900  0.00  0.00    +0.039 C 
ATOM     30  C   LIG    1      -22.735  79.414  36.634  0.00  0.00    +0.111 C 
ATOM     31  N   LIG    1      -23.243  80.804  36.564  0.00  0.00    -0.181 NA
ATOM     32  C   LIG    1      -22.589  81.571  35.482  0.00  0.00    +0.111 C 
ATOM     33  C   LIG    1      -21.112  81.705  35.800  0.00  0.00    +0.039 C 
BRANCH  31  34
ATOM     34  S   LIG    1      -24.931  81.006  36.679  0.00  0.00    +0.029 S 
ATOM     35  C   LIG    1      -25.210  80.603  38.392  0.00  0.00    +0.215 C 
ATOM     36  O   LIG    1      -25.569  79.983  35.871  0.00  0.00    -0.158 OA
ATOM     37  O   LIG    1      -25.231  82.405  36.490  0.00  0.00    -0.158 OA
ENDBRANCH  31  34
ENDBRANCH  25  28
ENDBRANCH   4  24
TORSDOF 6
ENDMDL
MODEL 5
REMARK VINA RESULT:      -5.9      2.517      5.427
REMARK  Name = pdb/CHEMBL3676033.pdb
REMARK                            x       y       z     vdW  Elec       q    Type
REMARK                         _______ _______ _______ _____ _____    ______ ____
ROOT
ATOM      1  C   LIG    1      -23.887  78.861  35.904  0.00  0.00    +0.126 A 
ATOM      2  N   LIG    1      -24.447  78.292  34.854  0.00  0.00    -0.212 NA
ATOM      3  C   LIG    1      -25.796  78.022  34.905  0.00  0.00    +0.170 A 
ATOM      4  C   LIG    1      -26.672  77.494  33.974  0.00  0.00    +0.100 A 
ATOM      5  C   LIG    1      -27.906  77.414  34.657  0.00  0.00    +0.150 A 
ATOM      6  N   LIG    1      -27.841  77.874  35.906  0.00  0.00    -0.173 NA
ATOM      7  N   LIG    1      -26.556  78.272  36.047  0.00  0.00    -0.221 N 
ATOM      8  C   LIG    1      -25.982  78.881  37.147  0.00  0.00    +0.118 A 
ATOM      9  C   LIG    1      -24.690  79.223  37.130  0.00  0.00    +0.063 A 
ENDROOT
BRANCH   1  11
ATOM     10  C   LIG    1      -21.902  80.332  35.320  0.00  0.00    +0.110 C 
ATOM     11  N   LIG    1      -22.520  79.111  35.883  0.00  0.00    -0.308 N 
ATOM     12  C   LIG    1      -21.532  78.031  35.998  0.00  0.00    +0.107 C 
ATOM     13  C   LIG    1      -20.212  78.643  35.533  0.00  0.00    +0.021 C 
ATOM     14  C   LIG    1      -20.662  79.769  34.616  0.00  0.00    +0.029 C 
BRANCH  10  16
ATOM     15  C   LIG    1      -22.562  82.308  36.808  0.00  0.00    +0.220 A 
ATOM     16  C   LIG    1      -21.606  81.368  36.394  0.00  0.00    +0.037 A 
ATOM     17  C   LIG    1      -20.363  81.421  37.050  0.00  0.00    +0.050 A 
ATOM     18  C   LIG    1      -20.156  82.310  38.093  0.00  0.00    +0.142 A 
ATOM     19  F   LIG    1      -18.970  82.359  38.713  0.00  0.00    -0.204 F 
ATOM     20  C   LIG    1      -21.191  83.127  38.483  0.00  0.00    +0.153 A 
ATOM     21  N   LIG    1      -22.387  83.151  37.856  0.00  0.00    -0.218 NA
BRANCH  15  23
ATOM     22  C   LIG    1      -24.834  82.936  36.837  0.00  0.00    +0.279 C 
ATOM     23  O   LIG    1      -23.733  82.413  36.084  0.00  0.00    -0.479 OA
ENDBRANCH  15  23
ENDBRANCH  10  16
ENDBRANCH   1  11
BRANCH   4  24
ATOM     24  C   LIG    1      -26.420  77.114  32.600  0.00  0.00    +0.249 C 
ATOM     25  N   LIG    1      -25.170  76.556  32.370  0.00  0.00    -0.308 N 
ATOM     26  H   LIG    1      -24.670  76.248  33.203  0.00  0.00    +0.149 HD
ATOM     27  O   LIG    1      -27.249  77.295  31.726  0.00  0.00    -0.270 OA
BRANCH  25  28
ATOM     28  C   LIG    1      -24.787  76.081  31.046  0.00  0.00    +0.076 C 
ATOM     29  C   LIG    1      -23.839  74.871  31.103  0.00  0.00    +0.039 C 
ATOM     30  C   LIG    1      -22.373  75.232  31.333  0.00  0.00    +0.111 C 
ATOM     31  N   LIG    1      -21.955  76.288  30.382  0.00  0.00    -0.181 NA
ATOM     32  C   LIG    1      -22.760  77.518  30.543  0.00  0.00    +0.111 C 
ATOM     33  C   LIG    1      -24.201  77.210  30.184  0.00  0.00    +0.039 C 
BRANCH  31  34
ATOM     34  S   LIG    1      -20.278  76.536  30.205  0.00  0.00    +0.029 S 
ATOM     35  C   LIG    1      -20.038  77.991  31.205  0.00  0.00    +0.215 C 
ATOM     36  O   LIG    1      -20.014  76.897  28.824  0.00  0.00    -0.158 OA
ATOM     37  O   LIG    1      -19.591  75.436  30.837  0.00  0.00    -0.158 OA
ENDBRANCH  31  34
ENDBRANCH  25  28
ENDBRANCH   4  24
TORSDOF 6
ENDMDL
MODEL 6
REMARK VINA RESULT:      -5.8      2.465      3.236
REMARK  Name = pdb/CHEMBL3676033.pdb
REMARK                            x       y       z     vdW  Elec       q    Type
REMARK                         _______ _______ _______ _____ _____    ______ ____
ROOT
ATOM      1  C   LIG    1      -20.321  78.992  33.824  0.00  0.00    +0.126 A 
ATOM      2  N   LIG    1      -20.903  78.443  32.776  0.00  0.00    -0.212 NA
ATOM      3  C   LIG    1      -20.107  77.795  31.858  0.00  0.00    +0.170 A 
ATOM      4  C   LIG    1      -20.407  77.086  30.708  0.00  0.00    +0.100 A 
ATOM      5  C   LIG    1      -19.147  76.722  30.182  0.00  0.00    +0.150 A 
ATOM      6  N   LIG    1      -18.128  77.132  30.936  0.00  0.00    -0.173 NA
ATOM      7  N   LIG    1      -18.718  77.763  31.977  0.00  0.00    -0.221 N 
ATOM      8  C   LIG    1      -18.100  78.323  33.078  0.00  0.00    +0.118 A 
ATOM      9  C   LIG    1      -18.828  78.911  34.033  0.00  0.00    +0.063 A 
ENDROOT
BRANCH   1  11
ATOM     10  C   LIG    1      -22.574  79.549  34.853  0.00  0.00    +0.110 C 
ATOM     11  N   LIG    1      -21.104  79.678  34.744  0.00  0.00    -0.308 N 
ATOM     12  C   LIG    1      -20.639  80.912  35.392  0.00  0.00    +0.107 C 
ATOM     13  C   LIG    1      -21.893  81.551  35.985  0.00  0.00    +0.021 C 
ATOM     14  C   LIG    1      -23.007  80.998  35.109  0.00  0.00    +0.029 C 
BRANCH  10  16
ATOM     15  C   LIG    1      -24.326  78.300  36.239  0.00  0.00    +0.220 A 
ATOM     16  C   LIG    1      -22.981  78.564  35.938  0.00  0.00    +0.037 A 
ATOM     17  C   LIG    1      -22.029  77.843  36.680  0.00  0.00    +0.050 A 
ATOM     18  C   LIG    1      -22.430  76.880  37.591  0.00  0.00    +0.142 A 
ATOM     19  F   LIG    1      -21.520  76.198  38.298  0.00  0.00    -0.204 F 
ATOM     20  C   LIG    1      -23.774  76.632  37.746  0.00  0.00    +0.153 A 
ATOM     21  N   LIG    1      -24.731  77.329  37.095  0.00  0.00    -0.218 NA
BRANCH  15  23
ATOM     22  C   LIG    1      -26.221  79.653  36.609  0.00  0.00    +0.279 C 
ATOM     23  O   LIG    1      -25.295  79.099  35.666  0.00  0.00    -0.479 OA
ENDBRANCH  15  23
ENDBRANCH  10  16
ENDBRANCH   1  11
BRANCH   4  24
ATOM     24  C   LIG    1      -21.701  76.760  30.151  0.00  0.00    +0.249 C 
ATOM     25  N   LIG    1      -22.749  76.777  31.063  0.00  0.00    -0.308 N 
ATOM     26  H   LIG    1      -22.551  77.246  31.945  0.00  0.00    +0.149 HD
ATOM     27  O   LIG    1      -21.837  76.480  28.973  0.00  0.00    -0.270 OA
BRANCH  25  28
ATOM     28  C   LIG    1      -24.120  76.516  30.641  0.00  0.00    +0.076 C 
ATOM     29  C   LIG    1      -25.121  77.526  31.228  0.00  0.00    +0.039 C 
ATOM     30  C   LIG    1      -25.563  77.217  32.657  0.00  0.00    +0.111 C 
ATOM     31  N   LIG    1      -25.994  75.803  32.760  0.00  0.00    -0.181 NA
ATOM     32  C   LIG    1      -24.901  74.871  32.406  0.00  0.00    +0.111 C 
ATOM     33  C   LIG    1      -24.543  75.070  30.945  0.00  0.00    +0.039 C 
BRANCH  31  34
ATOM     34  S   LIG    1      -26.890  75.377  34.145  0.00  0.00    +0.029 S 
ATOM     35  C   LIG    1      -25.661  74.508  35.097  0.00  0.00    +0.215 C 
ATOM     36  O   LIG    1      -27.908  74.419  33.753  0.00  0.00    -0.158 OA
ATOM     37  O   LIG    1      -27.234  76.589  34.850  0.00  0.00    -0.158 OA
ENDBRANCH  31  34
ENDBRANCH  25  28
ENDBRANCH   4  24
TORSDOF 6
ENDMDL
MODEL 7
REMARK VINA RESULT:      -5.7     18.178     22.607
REMARK  Name = pdb/CHEMBL3676033.pdb
REMARK                            x       y       z     vdW  Elec       q    Type
REMARK                         _______ _______ _______ _____ _____    ______ ____
ROOT
ATOM      1  C   LIG    1      -42.231  73.008  23.268  0.00  0.00    +0.126 A 
ATOM      2  N   LIG    1      -42.032  71.822  22.725  0.00  0.00    -0.212 NA
ATOM      3  C   LIG    1      -42.632  71.552  21.517  0.00  0.00    +0.170 A 
ATOM      4  C   LIG    1      -42.579  70.451  20.680  0.00  0.00    +0.100 A 
ATOM      5  C   LIG    1      -43.463  70.768  19.625  0.00  0.00    +0.150 A 
ATOM      6  N   LIG    1      -44.016  71.974  19.752  0.00  0.00    -0.173 NA
ATOM      7  N   LIG    1      -43.484  72.465  20.895  0.00  0.00    -0.221 N 
ATOM      8  C   LIG    1      -43.689  73.715  21.447  0.00  0.00    +0.118 A 
ATOM      9  C   LIG    1      -43.081  74.055  22.588  0.00  0.00    +0.063 A 
ENDROOT
BRANCH   1  11
ATOM     10  C   LIG    1      -40.214  73.181  24.799  0.00  0.00    +0.110 C 
ATOM     11  N   LIG    1      -41.660  73.286  24.503  0.00  0.00    -0.308 N 
ATOM     12  C   LIG    1      -42.448  73.279  25.742  0.00  0.00    +0.107 C 
ATOM     13  C   LIG    1      -41.422  73.223  26.870  0.00  0.00    +0.021 C 
ATOM     14  C   LIG    1      -40.217  72.574  26.207  0.00  0.00    +0.029 C 
BRANCH  10  16
ATOM     15  C   LIG    1      -38.193  74.716  25.131  0.00  0.00    +0.220 A 
ATOM     16  C   LIG    1      -39.510  74.525  24.689  0.00  0.00    +0.037 A 
ATOM     17  C   LIG    1      -40.136  75.645  24.112  0.00  0.00    +0.050 A 
ATOM     18  C   LIG    1      -39.436  76.827  23.933  0.00  0.00    +0.142 A 
ATOM     19  F   LIG    1      -40.036  77.891  23.386  0.00  0.00    -0.204 F 
ATOM     20  C   LIG    1      -38.117  76.881  24.319  0.00  0.00    +0.153 A 
ATOM     21  N   LIG    1      -37.483  75.853  24.923  0.00  0.00    -0.218 NA
BRANCH  15  23
ATOM     22  C   LIG    1      -37.084  74.131  27.129  0.00  0.00    +0.279 C 
ATOM     23  O   LIG    1      -37.593  73.706  25.858  0.00  0.00    -0.479 OA
ENDBRANCH  15  23
ENDBRANCH  10  16
ENDBRANCH   1  11
BRANCH   4  24
ATOM     24  C   LIG    1      -41.796  69.242  20.815  0.00  0.00    +0.249 C 
ATOM     25  N   LIG    1      -40.456  69.447  21.122  0.00  0.00    -0.308 N 
ATOM     26  H   LIG    1      -40.224  70.380  21.456  0.00  0.00    +0.149 HD
ATOM     27  O   LIG    1      -42.290  68.141  20.653  0.00  0.00    -0.270 OA
BRANCH  25  28
ATOM     28  C   LIG    1      -39.551  68.324  21.335  0.00  0.00    +0.076 C 
ATOM     29  C   LIG    1      -39.636  67.761  22.764  0.00  0.00    +0.039 C 
ATOM     30  C   LIG    1      -38.822  68.538  23.796  0.00  0.00    +0.111 C 
ATOM     31  N   LIG    1      -37.440  68.741  23.304  0.00  0.00    -0.181 NA
ATOM     32  C   LIG    1      -37.418  69.501  22.035  0.00  0.00    +0.111 C 
ATOM     33  C   LIG    1      -38.104  68.680  20.960  0.00  0.00    +0.039 C 
BRANCH  31  34
ATOM     34  S   LIG    1      -36.281  69.221  24.457  0.00  0.00    +0.029 S 
ATOM     35  C   LIG    1      -36.874  68.381  25.912  0.00  0.00    +0.215 C 
ATOM     36  O   LIG    1      -36.421  70.649  24.679  0.00  0.00    -0.158 OA
ATOM     37  O   LIG    1      -35.011  68.641  24.088  0.00  0.00    -0.158 OA
ENDBRANCH  31  34
ENDBRANCH  25  28
ENDBRANCH   4  24
TORSDOF 6
ENDMDL
MODEL 8
REMARK VINA RESULT:      -5.7      2.894      4.353
REMARK  Name = pdb/CHEMBL3676033.pdb
REMARK                            x       y       z     vdW  Elec       q    Type
REMARK                         _______ _______ _______ _____ _____    ______ ____
ROOT
ATOM      1  C   LIG    1      -21.112  78.505  33.285  0.00  0.00    +0.126 A 
ATOM      2  N   LIG    1      -22.218  78.163  32.653  0.00  0.00    -0.212 NA
ATOM      3  C   LIG    1      -22.102  77.473  31.467  0.00  0.00    +0.170 A 
ATOM      4  C   LIG    1      -23.045  76.936  30.610  0.00  0.00    +0.100 A 
ATOM      5  C   LIG    1      -22.288  76.407  29.541  0.00  0.00    +0.150 A 
ATOM      6  N   LIG    1      -20.975  76.562  29.704  0.00  0.00    -0.173 NA
ATOM      7  N   LIG    1      -20.860  77.189  30.897  0.00  0.00    -0.221 N 
ATOM      8  C   LIG    1      -19.696  77.530  31.558  0.00  0.00    +0.118 A 
ATOM      9  C   LIG    1      -19.749  78.146  32.744  0.00  0.00    +0.063 A 
ENDROOT
BRANCH   1  11
ATOM     10  C   LIG    1      -22.429  79.941  34.912  0.00  0.00    +0.110 C 
ATOM     11  N   LIG    1      -21.211  79.230  34.466  0.00  0.00    -0.308 N 
ATOM     12  C   LIG    1      -20.024  79.739  35.164  0.00  0.00    +0.107 C 
ATOM     13  C   LIG    1      -20.551  80.787  36.142  0.00  0.00    +0.021 C 
ATOM     14  C   LIG    1      -21.850  81.238  35.493  0.00  0.00    +0.029 C 
BRANCH  10  16
ATOM     15  C   LIG    1      -24.523  79.506  36.318  0.00  0.00    +0.220 A 
ATOM     16  C   LIG    1      -23.244  79.115  35.895  0.00  0.00    +0.037 A 
ATOM     17  C   LIG    1      -22.768  77.896  36.412  0.00  0.00    +0.050 A 
ATOM     18  C   LIG    1      -23.573  77.116  37.226  0.00  0.00    +0.142 A 
ATOM     19  F   LIG    1      -23.115  75.958  37.718  0.00  0.00    -0.204 F 
ATOM     20  C   LIG    1      -24.849  77.547  37.507  0.00  0.00    +0.153 A 
ATOM     21  N   LIG    1      -25.337  78.731  37.078  0.00  0.00    -0.218 NA
BRANCH  15  23
ATOM     22  C   LIG    1      -25.614  81.463  37.055  0.00  0.00    +0.279 C 
ATOM     23  O   LIG    1      -24.967  80.769  35.980  0.00  0.00    -0.479 OA
ENDBRANCH  15  23
ENDBRANCH  10  16
ENDBRANCH   1  11
BRANCH   4  24
ATOM     24  C   LIG    1      -24.484  76.893  30.752  0.00  0.00    +0.249 C 
ATOM     25  N   LIG    1      -24.935  76.594  32.031  0.00  0.00    -0.308 N 
ATOM     26  H   LIG    1      -24.238  76.680  32.769  0.00  0.00    +0.149 HD
ATOM     27  O   LIG    1      -25.225  77.091  29.806  0.00  0.00    -0.270 OA
BRANCH  25  28
ATOM     28  C   LIG    1      -26.359  76.560  32.341  0.00  0.00    +0.076 C 
ATOM     29  C   LIG    1      -26.665  77.048  33.768  0.00  0.00    +0.039 C 
ATOM     30  C   LIG    1      -26.463  75.990  34.851  0.00  0.00    +0.111 C 
ATOM     31  N   LIG    1      -27.160  74.738  34.473  0.00  0.00    -0.181 NA
ATOM     32  C   LIG    1      -26.649  74.192  33.197  0.00  0.00    +0.111 C 
ATOM     33  C   LIG    1      -26.965  75.172  32.084  0.00  0.00    +0.039 C 
BRANCH  31  34
ATOM     34  S   LIG    1      -27.396  73.591  35.711  0.00  0.00    +0.029 S 
ATOM     35  C   LIG    1      -26.089  74.030  36.840  0.00  0.00    +0.215 C 
ATOM     36  O   LIG    1      -27.098  72.275  35.177  0.00  0.00    -0.158 OA
ATOM     37  O   LIG    1      -28.659  73.872  36.351  0.00  0.00    -0.158 OA
ENDBRANCH  31  34
ENDBRANCH  25  28
ENDBRANCH   4  24
TORSDOF 6
ENDMDL
MODEL 9
REMARK VINA RESULT:      -5.7      5.952     11.334
REMARK  Name = pdb/CHEMBL3676033.pdb
REMARK                            x       y       z     vdW  Elec       q    Type
REMARK                         _______ _______ _______ _____ _____    ______ ____
ROOT
ATOM      1  C   LIG    1      -31.545  75.467  29.844  0.00  0.00    +0.126 A 
ATOM      2  N   LIG    1      -30.504  75.976  30.473  0.00  0.00    -0.212 NA
ATOM      3  C   LIG    1      -29.672  75.116  31.153  0.00  0.00    +0.170 A 
ATOM      4  C   LIG    1      -28.495  75.322  31.851  0.00  0.00    +0.100 A 
ATOM      5  C   LIG    1      -28.165  74.049  32.367  0.00  0.00    +0.150 A 
ATOM      6  N   LIG    1      -29.032  73.101  32.012  0.00  0.00    -0.173 NA
ATOM      7  N   LIG    1      -29.938  73.750  31.245  0.00  0.00    -0.221 N 
ATOM      8  C   LIG    1      -31.018  73.204  30.579  0.00  0.00    +0.118 A 
ATOM      9  C   LIG    1      -31.824  73.983  29.851  0.00  0.00    +0.063 A 
ENDROOT
BRANCH   1  11
ATOM     10  C   LIG    1      -33.879  76.352  29.382  0.00  0.00    +0.110 C 
ATOM     11  N   LIG    1      -32.414  76.323  29.180  0.00  0.00    -0.308 N 
ATOM     12  C   LIG    1      -32.050  76.965  27.910  0.00  0.00    +0.107 C 
ATOM     13  C   LIG    1      -33.366  77.471  27.324  0.00  0.00    +0.021 C 
ATOM     14  C   LIG    1      -34.398  76.548  27.953  0.00  0.00    +0.029 C 
BRANCH  10  16
ATOM     15  C   LIG    1      -34.273  77.237  31.752  0.00  0.00    +0.220 A 
ATOM     16  C   LIG    1      -34.298  77.437  30.363  0.00  0.00    +0.037 A 
ATOM     17  C   LIG    1      -34.709  78.710  29.929  0.00  0.00    +0.050 A 
ATOM     18  C   LIG    1      -34.989  79.709  30.848  0.00  0.00    +0.142 A 
ATOM     19  F   LIG    1      -35.382  80.918  30.431  0.00  0.00    -0.204 F 
ATOM     20  C   LIG    1      -34.844  79.437  32.188  0.00  0.00    +0.153 A 
ATOM     21  N   LIG    1      -34.500  78.219  32.660  0.00  0.00    -0.218 NA
BRANCH  15  23
ATOM     22  C   LIG    1      -33.272  75.920  33.432  0.00  0.00    +0.279 C 
ATOM     23  O   LIG    1      -34.044  75.961  32.226  0.00  0.00    -0.479 OA
ENDBRANCH  15  23
ENDBRANCH  10  16
ENDBRANCH   1  11
BRANCH   4  24
ATOM     24  C   LIG    1      -27.740  76.544  32.021  0.00  0.00    +0.249 C 
ATOM     25  N   LIG    1      -26.361  76.390  31.956  0.00  0.00    -0.308 N 
ATOM     26  H   LIG    1      -26.039  75.509  31.559  0.00  0.00    +0.149 HD
ATOM     27  O   LIG    1      -28.290  77.612  32.221  0.00  0.00    -0.270 OA
BRANCH  25  28
ATOM     28  C   LIG    1      -25.468  77.538  32.063  0.00  0.00    +0.076 C 
ATOM     29  C   LIG    1      -25.096  78.127  30.692  0.00  0.00    +0.039 C 
ATOM     30  C   LIG    1      -23.967  77.388  29.975  0.00  0.00    +0.111 C 
ATOM     31  N   LIG    1      -22.817  77.208  30.892  0.00  0.00    -0.181 NA
ATOM     32  C   LIG    1      -23.191  76.424  32.089  0.00  0.00    +0.111 C 
ATOM     33  C   LIG    1      -24.214  77.208  32.888  0.00  0.00    +0.039 C 
BRANCH  31  34
ATOM     34  S   LIG    1      -21.331  76.778  30.177  0.00  0.00    +0.029 S 
ATOM     35  C   LIG    1      -20.849  75.395  31.190  0.00  0.00    +0.215 C 
ATOM     36  O   LIG    1      -20.384  77.853  30.411  0.00  0.00    -0.158 OA
ATOM     37  O   LIG    1      -21.597  76.291  28.844  0.00  0.00    -0.158 OA
ENDBRANCH  31  34
ENDBRANCH  25  28
ENDBRANCH   4  24
TORSDOF 6
ENDMDL
