MODEL 1
REMARK VINA RESULT:      -6.4      0.000      0.000
REMARK  Name = pdb/CHEMBL3675922.pdb
REMARK                            x       y       z     vdW  Elec       q    Type
REMARK                         _______ _______ _______ _____ _____    ______ ____
ROOT
ATOM      1  C   LIG    1      -19.310  77.361  31.564  0.00  0.00    +0.100 A 
ATOM      2  C   LIG    1      -19.532  78.077  32.732  0.00  0.00    +0.170 A 
ATOM      3  N   LIG    1      -20.642  78.715  33.243  0.00  0.00    -0.212 NA
ATOM      4  C   LIG    1      -20.550  79.260  34.442  0.00  0.00    +0.126 A 
ATOM      5  C   LIG    1      -19.232  79.312  35.184  0.00  0.00    +0.063 A 
ATOM      6  C   LIG    1      -18.190  78.676  34.645  0.00  0.00    +0.118 A 
ATOM      7  N   LIG    1      -18.325  78.027  33.434  0.00  0.00    -0.221 N 
ATOM      8  N   LIG    1      -17.375  77.317  32.784  0.00  0.00    -0.173 NA
ATOM      9  C   LIG    1      -17.983  76.896  31.678  0.00  0.00    +0.150 A 
ENDROOT
BRANCH   4  10
ATOM     10  N   LIG    1      -21.680  79.809  35.048  0.00  0.00    -0.308 N 
ATOM     11  C   LIG    1      -21.938  79.670  36.497  0.00  0.00    +0.108 C 
ATOM     12  C   LIG    1      -23.438  79.377  36.586  0.00  0.00    +0.029 C 
ATOM     13  C   LIG    1      -24.016  80.132  35.404  0.00  0.00    +0.021 C 
ATOM     14  C   LIG    1      -22.951  79.954  34.324  0.00  0.00    +0.107 C 
BRANCH  11  15
ATOM     15  C   LIG    1      -21.520  80.905  37.273  0.00  0.00    +0.011 A 
ATOM     16  C   LIG    1      -21.600  80.885  38.673  0.00  0.00    +0.129 A 
ATOM     17  F   LIG    1      -22.051  79.786  39.294  0.00  0.00    -0.205 F 
ATOM     18  C   LIG    1      -21.203  81.972  39.451  0.00  0.00    +0.041 A 
ATOM     19  C   LIG    1      -20.713  83.118  38.831  0.00  0.00    +0.041 A 
ATOM     20  C   LIG    1      -20.650  83.164  37.442  0.00  0.00    +0.124 A 
ATOM     21  F   LIG    1      -20.190  84.269  36.842  0.00  0.00    -0.205 F 
ATOM     22  C   LIG    1      -21.049  82.079  36.663  0.00  0.00    +0.046 A 
ENDBRANCH  11  15
ENDBRANCH   4  10
BRANCH   1  25
ATOM     23  N   LIG    1      -21.530  76.971  30.803  0.00  0.00    -0.308 N 
ATOM     24  H   LIG    1      -21.752  77.089  31.786  0.00  0.00    +0.149 HD
ATOM     25  C   LIG    1      -20.205  77.104  30.456  0.00  0.00    +0.249 C 
ATOM     26  O   LIG    1      -19.806  77.075  29.295  0.00  0.00    -0.270 OA
BRANCH  23  30
ATOM     27  N   LIG    1      -25.134  76.655  31.230  0.00  0.00    -0.181 NA
ATOM     28  C   LIG    1      -24.485  77.969  30.999  0.00  0.00    +0.111 C 
ATOM     29  C   LIG    1      -23.586  77.921  29.766  0.00  0.00    +0.039 C 
ATOM     30  C   LIG    1      -22.582  76.766  29.815  0.00  0.00    +0.076 C 
ATOM     31  C   LIG    1      -23.325  75.454  30.047  0.00  0.00    +0.039 C 
ATOM     32  C   LIG    1      -24.209  75.502  31.289  0.00  0.00    +0.111 C 
BRANCH  27  34
ATOM     33  C   LIG    1      -25.905  77.464  33.740  0.00  0.00    +0.215 C 
ATOM     34  S   LIG    1      -26.474  76.617  32.274  0.00  0.00    +0.029 S 
ATOM     35  O   LIG    1      -27.514  77.423  31.688  0.00  0.00    -0.158 OA
ATOM     36  O   LIG    1      -26.715  75.233  32.641  0.00  0.00    -0.158 OA
ENDBRANCH  27  34
ENDBRANCH  23  30
ENDBRANCH   1  25
TORSDOF 5
ENDMDL
MODEL 2
REMARK VINA RESULT:      -6.4      2.357      4.082
REMARK  Name = pdb/CHEMBL3675922.pdb
REMARK                            x       y       z     vdW  Elec       q    Type
REMARK                         _______ _______ _______ _____ _____    ______ ____
ROOT
ATOM      1  C   LIG    1      -22.901  77.071  30.536  0.00  0.00    +0.100 A 
ATOM      2  C   LIG    1      -21.891  77.488  31.393  0.00  0.00    +0.170 A 
ATOM      3  N   LIG    1      -21.891  77.910  32.705  0.00  0.00    -0.212 NA
ATOM      4  C   LIG    1      -20.729  78.178  33.272  0.00  0.00    +0.126 A 
ATOM      5  C   LIG    1      -19.441  78.161  32.477  0.00  0.00    +0.063 A 
ATOM      6  C   LIG    1      -19.498  77.741  31.211  0.00  0.00    +0.118 A 
ATOM      7  N   LIG    1      -20.708  77.373  30.656  0.00  0.00    -0.221 N 
ATOM      8  N   LIG    1      -20.918  76.900  29.407  0.00  0.00    -0.173 NA
ATOM      9  C   LIG    1      -22.231  76.693  29.354  0.00  0.00    +0.150 A 
ENDROOT
BRANCH   4  10
ATOM     10  N   LIG    1      -20.671  78.491  34.630  0.00  0.00    -0.308 N 
ATOM     11  C   LIG    1      -20.491  79.878  35.108  0.00  0.00    +0.108 C 
ATOM     12  C   LIG    1      -19.495  79.751  36.263  0.00  0.00    +0.029 C 
ATOM     13  C   LIG    1      -19.805  78.388  36.850  0.00  0.00    +0.021 C 
ATOM     14  C   LIG    1      -20.130  77.546  35.617  0.00  0.00    +0.107 C 
BRANCH  11  15
ATOM     15  C   LIG    1      -21.805  80.518  35.515  0.00  0.00    +0.011 A 
ATOM     16  C   LIG    1      -21.801  81.843  35.972  0.00  0.00    +0.129 A 
ATOM     17  F   LIG    1      -20.642  82.512  36.049  0.00  0.00    -0.205 F 
ATOM     18  C   LIG    1      -22.975  82.504  36.332  0.00  0.00    +0.041 A 
ATOM     19  C   LIG    1      -24.194  81.838  36.242  0.00  0.00    +0.041 A 
ATOM     20  C   LIG    1      -24.214  80.515  35.815  0.00  0.00    +0.124 A 
ATOM     21  F   LIG    1      -25.383  79.866  35.738  0.00  0.00    -0.205 F 
ATOM     22  C   LIG    1      -23.040  79.852  35.457  0.00  0.00    +0.046 A 
ENDBRANCH  11  15
ENDBRANCH   4  10
BRANCH   1  25
ATOM     23  N   LIG    1      -24.703  76.906  32.080  0.00  0.00    -0.308 N 
ATOM     24  H   LIG    1      -23.952  76.917  32.762  0.00  0.00    +0.149 HD
ATOM     25  C   LIG    1      -24.329  77.002  30.759  0.00  0.00    +0.249 C 
ATOM     26  O   LIG    1      -25.133  77.091  29.835  0.00  0.00    -0.270 OA
BRANCH  23  30
ATOM     27  N   LIG    1      -26.345  74.986  34.704  0.00  0.00    -0.181 NA
ATOM     28  C   LIG    1      -25.770  76.330  34.960  0.00  0.00    +0.111 C 
ATOM     29  C   LIG    1      -26.293  77.345  33.946  0.00  0.00    +0.039 C 
ATOM     30  C   LIG    1      -26.099  76.884  32.500  0.00  0.00    +0.076 C 
ATOM     31  C   LIG    1      -26.721  75.503  32.316  0.00  0.00    +0.039 C 
ATOM     32  C   LIG    1      -26.184  74.489  33.321  0.00  0.00    +0.111 C 
BRANCH  27  34
ATOM     33  C   LIG    1      -24.567  73.202  35.801  0.00  0.00    +0.215 C 
ATOM     34  S   LIG    1      -26.230  73.837  35.951  0.00  0.00    +0.029 S 
ATOM     35  O   LIG    1      -26.312  74.536  37.207  0.00  0.00    -0.158 OA
ATOM     36  O   LIG    1      -27.138  72.747  35.637  0.00  0.00    -0.158 OA
ENDBRANCH  27  34
ENDBRANCH  23  30
ENDBRANCH   1  25
TORSDOF 5
ENDMDL
MODEL 3
REMARK VINA RESULT:      -6.4      2.176      3.287
REMARK  Name = pdb/CHEMBL3675922.pdb
REMARK                            x       y       z     vdW  Elec       q    Type
REMARK                         _______ _______ _______ _____ _____    ______ ____
ROOT
ATOM      1  C   LIG    1      -20.046  76.948  30.647  0.00  0.00    +0.100 A 
ATOM      2  C   LIG    1      -19.858  77.727  31.780  0.00  0.00    +0.170 A 
ATOM      3  N   LIG    1      -20.733  78.363  32.635  0.00  0.00    -0.212 NA
ATOM      4  C   LIG    1      -20.234  78.982  33.688  0.00  0.00    +0.126 A 
ATOM      5  C   LIG    1      -18.739  79.117  33.888  0.00  0.00    +0.063 A 
ATOM      6  C   LIG    1      -17.938  78.479  33.033  0.00  0.00    +0.118 A 
ATOM      7  N   LIG    1      -18.476  77.754  31.987  0.00  0.00    -0.221 N 
ATOM      8  N   LIG    1      -17.798  77.033  31.067  0.00  0.00    -0.173 NA
ATOM      9  C   LIG    1      -18.749  76.529  30.284  0.00  0.00    +0.150 A 
ENDROOT
BRANCH   4  10
ATOM     10  N   LIG    1      -21.087  79.535  34.643  0.00  0.00    -0.308 N 
ATOM     11  C   LIG    1      -22.521  79.180  34.713  0.00  0.00    +0.108 C 
ATOM     12  C   LIG    1      -23.227  80.513  34.972  0.00  0.00    +0.029 C 
ATOM     13  C   LIG    1      -22.217  81.294  35.792  0.00  0.00    +0.021 C 
ATOM     14  C   LIG    1      -20.881  80.891  35.170  0.00  0.00    +0.107 C 
BRANCH  11  15
ATOM     15  C   LIG    1      -22.800  78.134  35.777  0.00  0.00    +0.011 A 
ATOM     16  C   LIG    1      -22.678  76.778  35.443  0.00  0.00    +0.129 A 
ATOM     17  F   LIG    1      -22.330  76.433  34.195  0.00  0.00    -0.205 F 
ATOM     18  C   LIG    1      -22.888  75.766  36.379  0.00  0.00    +0.041 A 
ATOM     19  C   LIG    1      -23.232  76.099  37.686  0.00  0.00    +0.041 A 
ATOM     20  C   LIG    1      -23.381  77.438  38.028  0.00  0.00    +0.124 A 
ATOM     21  F   LIG    1      -23.724  77.762  39.281  0.00  0.00    -0.205 F 
ATOM     22  C   LIG    1      -23.174  78.451  37.093  0.00  0.00    +0.046 A 
ENDBRANCH  11  15
ENDBRANCH   4  10
BRANCH   1  25
ATOM     23  N   LIG    1      -22.360  76.417  30.782  0.00  0.00    -0.308 N 
ATOM     24  H   LIG    1      -22.207  76.569  31.773  0.00  0.00    +0.149 HD
ATOM     25  C   LIG    1      -21.271  76.598  29.961  0.00  0.00    +0.249 C 
ATOM     26  O   LIG    1      -21.333  76.537  28.736  0.00  0.00    -0.270 OA
BRANCH  23  30
ATOM     27  N   LIG    1      -25.632  76.776  32.343  0.00  0.00    -0.181 NA
ATOM     28  C   LIG    1      -25.022  77.867  31.544  0.00  0.00    +0.111 C 
ATOM     29  C   LIG    1      -24.586  77.356  30.173  0.00  0.00    +0.039 C 
ATOM     30  C   LIG    1      -23.691  76.118  30.265  0.00  0.00    +0.076 C 
ATOM     31  C   LIG    1      -24.388  75.043  31.093  0.00  0.00    +0.039 C 
ATOM     32  C   LIG    1      -24.807  75.554  32.467  0.00  0.00    +0.111 C 
BRANCH  27  34
ATOM     33  C   LIG    1      -26.413  75.818  34.798  0.00  0.00    +0.215 C 
ATOM     34  S   LIG    1      -26.552  77.222  33.701  0.00  0.00    +0.029 S 
ATOM     35  O   LIG    1      -25.891  78.331  34.338  0.00  0.00    -0.158 OA
ATOM     36  O   LIG    1      -27.941  77.311  33.289  0.00  0.00    -0.158 OA
ENDBRANCH  27  34
ENDBRANCH  23  30
ENDBRANCH   1  25
TORSDOF 5
ENDMDL
MODEL 4
REMARK VINA RESULT:      -6.3     18.650     21.960
REMARK  Name = pdb/CHEMBL3675922.pdb
REMARK                            x       y       z     vdW  Elec       q    Type
REMARK                         _______ _______ _______ _____ _____    ______ ____
ROOT
ATOM      1  C   LIG    1      -24.356  82.540  12.050  0.00  0.00    +0.100 A 
ATOM      2  C   LIG    1      -23.856  83.812  11.806  0.00  0.00    +0.170 A 
ATOM      3  N   LIG    1      -23.296  84.771  12.622  0.00  0.00    -0.212 NA
ATOM      4  C   LIG    1      -22.842  85.877  12.063  0.00  0.00    +0.126 A 
ATOM      5  C   LIG    1      -23.050  86.157  10.589  0.00  0.00    +0.063 A 
ATOM      6  C   LIG    1      -23.594  85.192   9.844  0.00  0.00    +0.118 A 
ATOM      7  N   LIG    1      -23.979  84.000  10.426  0.00  0.00    -0.221 N 
ATOM      8  N   LIG    1      -24.509  82.926   9.800  0.00  0.00    -0.173 NA
ATOM      9  C   LIG    1      -24.705  82.044  10.777  0.00  0.00    +0.150 A 
ENDROOT
BRANCH   4  10
ATOM     10  N   LIG    1      -22.161  86.820  12.832  0.00  0.00    -0.308 N 
ATOM     11  C   LIG    1      -21.116  86.433  13.803  0.00  0.00    +0.108 C 
ATOM     12  C   LIG    1      -21.388  87.319  15.022  0.00  0.00    +0.029 C 
ATOM     13  C   LIG    1      -21.948  88.591  14.415  0.00  0.00    +0.021 C 
ATOM     14  C   LIG    1      -22.796  88.077  13.253  0.00  0.00    +0.107 C 
BRANCH  11  15
ATOM     15  C   LIG    1      -19.718  86.601  13.237  0.00  0.00    +0.011 A 
ATOM     16  C   LIG    1      -18.804  85.545  13.364  0.00  0.00    +0.129 A 
ATOM     17  F   LIG    1      -19.178  84.418  13.987  0.00  0.00    -0.205 F 
ATOM     18  C   LIG    1      -17.514  85.618  12.840  0.00  0.00    +0.041 A 
ATOM     19  C   LIG    1      -17.108  86.771  12.172  0.00  0.00    +0.041 A 
ATOM     20  C   LIG    1      -17.994  87.837  12.059  0.00  0.00    +0.124 A 
ATOM     21  F   LIG    1      -17.603  88.951  11.427  0.00  0.00    -0.205 F 
ATOM     22  C   LIG    1      -19.283  87.766  12.585  0.00  0.00    +0.046 A 
ENDBRANCH  11  15
ENDBRANCH   4  10
BRANCH   1  25
ATOM     23  N   LIG    1      -23.421  81.943  14.154  0.00  0.00    -0.308 N 
ATOM     24  H   LIG    1      -22.654  82.526  13.835  0.00  0.00    +0.149 HD
ATOM     25  C   LIG    1      -24.496  81.830  13.303  0.00  0.00    +0.249 C 
ATOM     26  O   LIG    1      -25.527  81.231  13.596  0.00  0.00    -0.270 OA
BRANCH  23  30
ATOM     27  N   LIG    1      -20.773  80.154  15.903  0.00  0.00    -0.181 NA
ATOM     28  C   LIG    1      -20.936  81.624  16.023  0.00  0.00    +0.111 C 
ATOM     29  C   LIG    1      -22.369  81.980  16.412  0.00  0.00    +0.039 C 
ATOM     30  C   LIG    1      -23.406  81.343  15.483  0.00  0.00    +0.076 C 
ATOM     31  C   LIG    1      -23.176  79.836  15.418  0.00  0.00    +0.039 C 
ATOM     32  C   LIG    1      -21.748  79.486  15.014  0.00  0.00    +0.111 C 
BRANCH  27  34
ATOM     33  C   LIG    1      -18.812  79.320  14.168  0.00  0.00    +0.215 C 
ATOM     34  S   LIG    1      -19.188  79.541  15.901  0.00  0.00    +0.029 S 
ATOM     35  O   LIG    1      -18.315  80.569  16.403  0.00  0.00    -0.158 OA
ATOM     36  O   LIG    1      -19.220  78.221  16.507  0.00  0.00    -0.158 OA
ENDBRANCH  27  34
ENDBRANCH  23  30
ENDBRANCH   1  25
TORSDOF 5
ENDMDL
MODEL 5
REMARK VINA RESULT:      -6.3      1.943      2.339
REMARK  Name = pdb/CHEMBL3675922.pdb
REMARK                            x       y       z     vdW  Elec       q    Type
REMARK                         _______ _______ _______ _____ _____    ______ ____
ROOT
ATOM      1  C   LIG    1      -20.225  78.132  32.226  0.00  0.00    +0.100 A 
ATOM      2  C   LIG    1      -20.813  78.700  33.348  0.00  0.00    +0.170 A 
ATOM      3  N   LIG    1      -22.123  78.834  33.752  0.00  0.00    -0.212 NA
ATOM      4  C   LIG    1      -22.358  79.373  34.934  0.00  0.00    +0.126 A 
ATOM      5  C   LIG    1      -21.239  79.957  35.770  0.00  0.00    +0.063 A 
ATOM      6  C   LIG    1      -19.988  79.795  35.333  0.00  0.00    +0.118 A 
ATOM      7  N   LIG    1      -19.749  79.145  34.139  0.00  0.00    -0.221 N 
ATOM      8  N   LIG    1      -18.544  78.878  33.588  0.00  0.00    -0.173 NA
ATOM      9  C   LIG    1      -18.838  78.244  32.455  0.00  0.00    +0.150 A 
ENDROOT
BRANCH   4  10
ATOM     10  N   LIG    1      -23.659  79.419  35.434  0.00  0.00    -0.308 N 
ATOM     11  C   LIG    1      -23.941  79.440  36.885  0.00  0.00    +0.108 C 
ATOM     12  C   LIG    1      -25.131  78.491  37.051  0.00  0.00    +0.029 C 
ATOM     13  C   LIG    1      -25.896  78.653  35.751  0.00  0.00    +0.021 C 
ATOM     14  C   LIG    1      -24.786  78.810  34.714  0.00  0.00    +0.107 C 
BRANCH  11  15
ATOM     15  C   LIG    1      -24.215  80.842  37.396  0.00  0.00    +0.011 A 
ATOM     16  C   LIG    1      -23.709  81.218  38.649  0.00  0.00    +0.129 A 
ATOM     17  F   LIG    1      -23.007  80.333  39.371  0.00  0.00    -0.205 F 
ATOM     18  C   LIG    1      -23.895  82.500  39.165  0.00  0.00    +0.041 A 
ATOM     19  C   LIG    1      -24.605  83.443  38.426  0.00  0.00    +0.041 A 
ATOM     20  C   LIG    1      -25.134  83.079  37.192  0.00  0.00    +0.124 A 
ATOM     21  F   LIG    1      -25.827  83.979  36.484  0.00  0.00    -0.205 F 
ATOM     22  C   LIG    1      -24.951  81.797  36.676  0.00  0.00    +0.046 A 
ENDBRANCH  11  15
ENDBRANCH   4  10
BRANCH   1  25
ATOM     23  N   LIG    1      -22.120  77.058  31.271  0.00  0.00    -0.308 N 
ATOM     24  H   LIG    1      -22.507  77.197  32.199  0.00  0.00    +0.149 HD
ATOM     25  C   LIG    1      -20.845  77.531  31.065  0.00  0.00    +0.249 C 
ATOM     26  O   LIG    1      -20.288  77.512  29.971  0.00  0.00    -0.270 OA
BRANCH  23  30
ATOM     27  N   LIG    1      -25.605  75.997  31.252  0.00  0.00    -0.181 NA
ATOM     28  C   LIG    1      -25.204  77.375  30.874  0.00  0.00    +0.111 C 
ATOM     29  C   LIG    1      -24.114  77.349  29.806  0.00  0.00    +0.039 C 
ATOM     30  C   LIG    1      -22.923  76.474  30.203  0.00  0.00    +0.076 C 
ATOM     31  C   LIG    1      -23.415  75.077  30.569  0.00  0.00    +0.039 C 
ATOM     32  C   LIG    1      -24.492  75.107  31.648  0.00  0.00    +0.111 C 
BRANCH  27  34
ATOM     33  C   LIG    1      -27.361  74.049  32.072  0.00  0.00    +0.215 C 
ATOM     34  S   LIG    1      -27.072  75.812  32.091  0.00  0.00    +0.029 S 
ATOM     35  O   LIG    1      -26.849  76.196  33.460  0.00  0.00    -0.158 OA
ATOM     36  O   LIG    1      -28.120  76.430  31.299  0.00  0.00    -0.158 OA
ENDBRANCH  27  34
ENDBRANCH  23  30
ENDBRANCH   1  25
TORSDOF 5
ENDMDL
MODEL 6
REMARK VINA RESULT:      -6.2      1.560      2.135
REMARK  Name = pdb/CHEMBL3675922.pdb
REMARK                            x       y       z     vdW  Elec       q    Type
REMARK                         _______ _______ _______ _____ _____    ______ ____
ROOT
ATOM      1  C   LIG    1      -19.165  77.434  31.363  0.00  0.00    +0.100 A 
ATOM      2  C   LIG    1      -19.401  77.822  32.674  0.00  0.00    +0.170 A 
ATOM      3  N   LIG    1      -20.539  77.854  33.451  0.00  0.00    -0.212 NA
ATOM      4  C   LIG    1      -20.420  78.218  34.715  0.00  0.00    +0.126 A 
ATOM      5  C   LIG    1      -19.104  78.722  35.269  0.00  0.00    +0.063 A 
ATOM      6  C   LIG    1      -18.034  78.666  34.474  0.00  0.00    +0.118 A 
ATOM      7  N   LIG    1      -18.153  78.194  33.182  0.00  0.00    -0.221 N 
ATOM      8  N   LIG    1      -17.159  78.048  32.277  0.00  0.00    -0.173 NA
ATOM      9  C   LIG    1      -17.770  77.564  31.198  0.00  0.00    +0.150 A 
ENDROOT
BRANCH   4  10
ATOM     10  N   LIG    1      -21.521  78.148  35.568  0.00  0.00    -0.308 N 
ATOM     11  C   LIG    1      -21.543  78.834  36.877  0.00  0.00    +0.108 C 
ATOM     12  C   LIG    1      -22.187  77.817  37.824  0.00  0.00    +0.029 C 
ATOM     13  C   LIG    1      -23.153  77.064  36.929  0.00  0.00    +0.021 C 
ATOM     14  C   LIG    1      -22.395  76.968  35.605  0.00  0.00    +0.107 C 
BRANCH  11  15
ATOM     15  C   LIG    1      -22.285  80.156  36.819  0.00  0.00    +0.011 A 
ATOM     16  C   LIG    1      -21.546  81.347  36.785  0.00  0.00    +0.129 A 
ATOM     17  F   LIG    1      -20.207  81.295  36.815  0.00  0.00    -0.205 F 
ATOM     18  C   LIG    1      -22.162  82.595  36.699  0.00  0.00    +0.041 A 
ATOM     19  C   LIG    1      -23.551  82.675  36.649  0.00  0.00    +0.041 A 
ATOM     20  C   LIG    1      -24.299  81.504  36.706  0.00  0.00    +0.124 A 
ATOM     21  F   LIG    1      -25.636  81.577  36.670  0.00  0.00    -0.205 F 
ATOM     22  C   LIG    1      -23.686  80.256  36.795  0.00  0.00    +0.046 A 
ENDBRANCH  11  15
ENDBRANCH   4  10
BRANCH   1  25
ATOM     23  N   LIG    1      -21.376  76.754  30.810  0.00  0.00    -0.308 N 
ATOM     24  H   LIG    1      -21.547  76.955  31.790  0.00  0.00    +0.149 HD
ATOM     25  C   LIG    1      -20.097  76.975  30.355  0.00  0.00    +0.249 C 
ATOM     26  O   LIG    1      -19.771  76.861  29.177  0.00  0.00    -0.270 OA
BRANCH  23  30
ATOM     27  N   LIG    1      -24.978  76.751  31.352  0.00  0.00    -0.181 NA
ATOM     28  C   LIG    1      -24.276  77.919  30.766  0.00  0.00    +0.111 C 
ATOM     29  C   LIG    1      -23.413  77.494  29.581  0.00  0.00    +0.039 C 
ATOM     30  C   LIG    1      -22.462  76.345  29.928  0.00  0.00    +0.076 C 
ATOM     31  C   LIG    1      -23.259  75.184  30.516  0.00  0.00    +0.039 C 
ATOM     32  C   LIG    1      -24.107  75.610  31.709  0.00  0.00    +0.111 C 
BRANCH  27  34
ATOM     33  C   LIG    1      -26.707  75.462  33.056  0.00  0.00    +0.215 C 
ATOM     34  S   LIG    1      -26.292  77.065  32.384  0.00  0.00    +0.029 S 
ATOM     35  O   LIG    1      -25.815  77.877  33.473  0.00  0.00    -0.158 OA
ATOM     36  O   LIG    1      -27.411  77.491  31.564  0.00  0.00    -0.158 OA
ENDBRANCH  27  34
ENDBRANCH  23  30
ENDBRANCH   1  25
TORSDOF 5
ENDMDL
MODEL 7
REMARK VINA RESULT:      -6.2     19.060     22.064
REMARK  Name = pdb/CHEMBL3675922.pdb
REMARK                            x       y       z     vdW  Elec       q    Type
REMARK                         _______ _______ _______ _____ _____    ______ ____
ROOT
ATOM      1  C   LIG    1      -18.084  84.670  12.841  0.00  0.00    +0.100 A 
ATOM      2  C   LIG    1      -18.578  83.440  13.255  0.00  0.00    +0.170 A 
ATOM      3  N   LIG    1      -19.612  83.080  14.093  0.00  0.00    -0.212 NA
ATOM      4  C   LIG    1      -19.882  81.796  14.232  0.00  0.00    +0.126 A 
ATOM      5  C   LIG    1      -19.003  80.734  13.606  0.00  0.00    +0.063 A 
ATOM      6  C   LIG    1      -18.018  81.138  12.801  0.00  0.00    +0.118 A 
ATOM      7  N   LIG    1      -17.805  82.486  12.588  0.00  0.00    -0.221 N 
ATOM      8  N   LIG    1      -16.875  83.042  11.780  0.00  0.00    -0.173 NA
ATOM      9  C   LIG    1      -17.069  84.352  11.916  0.00  0.00    +0.150 A 
ENDROOT
BRANCH   4  10
ATOM     10  N   LIG    1      -20.992  81.391  14.972  0.00  0.00    -0.308 N 
ATOM     11  C   LIG    1      -22.131  82.296  15.236  0.00  0.00    +0.108 C 
ATOM     12  C   LIG    1      -22.488  82.036  16.701  0.00  0.00    +0.029 C 
ATOM     13  C   LIG    1      -22.143  80.571  16.894  0.00  0.00    +0.021 C 
ATOM     14  C   LIG    1      -20.881  80.399  16.050  0.00  0.00    +0.107 C 
BRANCH  11  15
ATOM     15  C   LIG    1      -23.287  82.054  14.283  0.00  0.00    +0.011 A 
ATOM     16  C   LIG    1      -23.406  82.861  13.143  0.00  0.00    +0.129 A 
ATOM     17  F   LIG    1      -22.508  83.831  12.923  0.00  0.00    -0.205 F 
ATOM     18  C   LIG    1      -24.424  82.673  12.208  0.00  0.00    +0.041 A 
ATOM     19  C   LIG    1      -25.359  81.660  12.405  0.00  0.00    +0.041 A 
ATOM     20  C   LIG    1      -25.270  80.866  13.543  0.00  0.00    +0.124 A 
ATOM     21  F   LIG    1      -26.174  79.898  13.741  0.00  0.00    -0.205 F 
ATOM     22  C   LIG    1      -24.254  81.055  14.479  0.00  0.00    +0.046 A 
ENDBRANCH  11  15
ENDBRANCH   4  10
BRANCH   1  25
ATOM     23  N   LIG    1      -19.720  86.078  13.841  0.00  0.00    -0.308 N 
ATOM     24  H   LIG    1      -20.205  85.198  13.985  0.00  0.00    +0.149 HD
ATOM     25  C   LIG    1      -18.491  86.004  13.227  0.00  0.00    +0.249 C 
ATOM     26  O   LIG    1      -17.756  86.975  13.070  0.00  0.00    -0.270 OA
BRANCH  23  30
ATOM     27  N   LIG    1      -22.530  88.073  12.659  0.00  0.00    -0.181 NA
ATOM     28  C   LIG    1      -22.700  87.006  13.676  0.00  0.00    +0.111 C 
ATOM     29  C   LIG    1      -21.716  87.194  14.829  0.00  0.00    +0.039 C 
ATOM     30  C   LIG    1      -20.268  87.329  14.349  0.00  0.00    +0.076 C 
ATOM     31  C   LIG    1      -20.176  88.447  13.314  0.00  0.00    +0.039 C 
ATOM     32  C   LIG    1      -21.149  88.246  12.158  0.00  0.00    +0.111 C 
BRANCH  27  34
ATOM     33  C   LIG    1      -22.939  88.513   9.978  0.00  0.00    +0.215 C 
ATOM     34  S   LIG    1      -23.786  88.288  11.535  0.00  0.00    +0.029 S 
ATOM     35  O   LIG    1      -24.521  87.054  11.450  0.00  0.00    -0.158 OA
ATOM     36  O   LIG    1      -24.453  89.540  11.847  0.00  0.00    -0.158 OA
ENDBRANCH  27  34
ENDBRANCH  23  30
ENDBRANCH   1  25
TORSDOF 5
ENDMDL
MODEL 8
REMARK VINA RESULT:      -6.2     14.381     18.076
REMARK  Name = pdb/CHEMBL3675922.pdb
REMARK                            x       y       z     vdW  Elec       q    Type
REMARK                         _______ _______ _______ _____ _____    ______ ____
ROOT
ATOM      1  C   LIG    1      -40.114  75.504  24.217  0.00  0.00    +0.100 A 
ATOM      2  C   LIG    1      -39.455  76.302  25.142  0.00  0.00    +0.170 A 
ATOM      3  N   LIG    1      -38.719  76.014  26.271  0.00  0.00    -0.212 NA
ATOM      4  C   LIG    1      -38.148  77.016  26.913  0.00  0.00    +0.126 A 
ATOM      5  C   LIG    1      -38.401  78.454  26.514  0.00  0.00    +0.063 A 
ATOM      6  C   LIG    1      -39.118  78.676  25.411  0.00  0.00    +0.118 A 
ATOM      7  N   LIG    1      -39.632  77.614  24.693  0.00  0.00    -0.221 N 
ATOM      8  N   LIG    1      -40.344  77.679  23.546  0.00  0.00    -0.173 NA
ATOM      9  C   LIG    1      -40.604  76.408  23.251  0.00  0.00    +0.150 A 
ENDROOT
BRANCH   4  10
ATOM     10  N   LIG    1      -37.296  76.761  27.988  0.00  0.00    -0.308 N 
ATOM     11  C   LIG    1      -36.005  76.062  27.817  0.00  0.00    +0.108 C 
ATOM     12  C   LIG    1      -35.933  75.107  29.011  0.00  0.00    +0.029 C 
ATOM     13  C   LIG    1      -36.677  75.850  30.104  0.00  0.00    +0.021 C 
ATOM     14  C   LIG    1      -37.812  76.536  29.345  0.00  0.00    +0.107 C 
BRANCH  11  15
ATOM     15  C   LIG    1      -34.836  77.028  27.748  0.00  0.00    +0.011 A 
ATOM     16  C   LIG    1      -33.567  76.532  27.417  0.00  0.00    +0.129 A 
ATOM     17  F   LIG    1      -33.409  75.223  27.179  0.00  0.00    -0.205 F 
ATOM     18  C   LIG    1      -32.455  77.367  27.305  0.00  0.00    +0.041 A 
ATOM     19  C   LIG    1      -32.596  78.734  27.529  0.00  0.00    +0.041 A 
ATOM     20  C   LIG    1      -33.843  79.238  27.882  0.00  0.00    +0.124 A 
ATOM     21  F   LIG    1      -33.980  80.550  28.110  0.00  0.00    -0.205 F 
ATOM     22  C   LIG    1      -34.955  78.404  27.998  0.00  0.00    +0.046 A 
ENDBRANCH  11  15
ENDBRANCH   4  10
BRANCH   1  25
ATOM     23  N   LIG    1      -39.450  73.375  25.044  0.00  0.00    -0.308 N 
ATOM     24  H   LIG    1      -38.829  73.934  25.620  0.00  0.00    +0.149 HD
ATOM     25  C   LIG    1      -40.278  74.066  24.191  0.00  0.00    +0.249 C 
ATOM     26  O   LIG    1      -41.140  73.525  23.503  0.00  0.00    -0.270 OA
BRANCH  23  30
ATOM     27  N   LIG    1      -36.858  70.987  25.966  0.00  0.00    -0.181 NA
ATOM     28  C   LIG    1      -37.726  71.631  26.982  0.00  0.00    +0.111 C 
ATOM     29  C   LIG    1      -39.200  71.462  26.621  0.00  0.00    +0.039 C 
ATOM     30  C   LIG    1      -39.512  71.926  25.196  0.00  0.00    +0.076 C 
ATOM     31  C   LIG    1      -38.586  71.216  24.213  0.00  0.00    +0.039 C 
ATOM     32  C   LIG    1      -37.115  71.401  24.569  0.00  0.00    +0.111 C 
BRANCH  27  34
ATOM     33  C   LIG    1      -34.828  72.047  27.486  0.00  0.00    +0.215 C 
ATOM     34  S   LIG    1      -35.239  70.694  26.393  0.00  0.00    +0.029 S 
ATOM     35  O   LIG    1      -35.199  69.484  27.172  0.00  0.00    -0.158 OA
ATOM     36  O   LIG    1      -34.428  70.844  25.197  0.00  0.00    -0.158 OA
ENDBRANCH  27  34
ENDBRANCH  23  30
ENDBRANCH   1  25
TORSDOF 5
ENDMDL
MODEL 9
REMARK VINA RESULT:      -6.1     13.183     16.884
REMARK  Name = pdb/CHEMBL3675922.pdb
REMARK                            x       y       z     vdW  Elec       q    Type
REMARK                         _______ _______ _______ _____ _____    ______ ____
ROOT
ATOM      1  C   LIG    1      -37.317  71.214  24.809  0.00  0.00    +0.100 A 
ATOM      2  C   LIG    1      -36.327  71.076  25.773  0.00  0.00    +0.170 A 
ATOM      3  N   LIG    1      -35.997  71.816  26.888  0.00  0.00    -0.212 NA
ATOM      4  C   LIG    1      -35.023  71.374  27.662  0.00  0.00    +0.126 A 
ATOM      5  C   LIG    1      -34.193  70.168  27.274  0.00  0.00    +0.063 A 
ATOM      6  C   LIG    1      -34.560  69.487  26.186  0.00  0.00    +0.118 A 
ATOM      7  N   LIG    1      -35.641  69.906  25.437  0.00  0.00    -0.221 N 
ATOM      8  N   LIG    1      -36.148  69.304  24.337  0.00  0.00    -0.173 NA
ATOM      9  C   LIG    1      -37.171  70.080  23.984  0.00  0.00    +0.150 A 
ENDROOT
BRANCH   4  10
ATOM     10  N   LIG    1      -34.735  72.024  28.862  0.00  0.00    -0.308 N 
ATOM     11  C   LIG    1      -33.352  72.364  29.258  0.00  0.00    +0.108 C 
ATOM     12  C   LIG    1      -33.293  72.025  30.749  0.00  0.00    +0.029 C 
ATOM     13  C   LIG    1      -34.704  72.302  31.231  0.00  0.00    +0.021 C 
ATOM     14  C   LIG    1      -35.567  71.838  30.059  0.00  0.00    +0.107 C 
BRANCH  11  15
ATOM     15  C   LIG    1      -33.009  73.811  28.956  0.00  0.00    +0.011 A 
ATOM     16  C   LIG    1      -31.889  74.385  29.573  0.00  0.00    +0.129 A 
ATOM     17  F   LIG    1      -31.153  73.653  30.420  0.00  0.00    -0.205 F 
ATOM     18  C   LIG    1      -31.498  75.699  29.317  0.00  0.00    +0.041 A 
ATOM     19  C   LIG    1      -32.236  76.475  28.427  0.00  0.00    +0.041 A 
ATOM     20  C   LIG    1      -33.364  75.928  27.825  0.00  0.00    +0.124 A 
ATOM     21  F   LIG    1      -34.082  76.675  26.976  0.00  0.00    -0.205 F 
ATOM     22  C   LIG    1      -33.757  74.616  28.082  0.00  0.00    +0.046 A 
ENDBRANCH  11  15
ENDBRANCH   4  10
BRANCH   1  25
ATOM     23  N   LIG    1      -37.905  73.505  25.059  0.00  0.00    -0.308 N 
ATOM     24  H   LIG    1      -36.955  73.580  25.407  0.00  0.00    +0.149 HD
ATOM     25  C   LIG    1      -38.309  72.255  24.649  0.00  0.00    +0.249 C 
ATOM     26  O   LIG    1      -39.397  72.037  24.125  0.00  0.00    -0.270 OA
BRANCH  23  30
ATOM     27  N   LIG    1      -37.877  76.651  26.896  0.00  0.00    -0.181 NA
ATOM     28  C   LIG    1      -37.082  76.460  25.657  0.00  0.00    +0.111 C 
ATOM     29  C   LIG    1      -37.962  75.938  24.524  0.00  0.00    +0.039 C 
ATOM     30  C   LIG    1      -38.749  74.686  24.920  0.00  0.00    +0.076 C 
ATOM     31  C   LIG    1      -39.542  74.964  26.194  0.00  0.00    +0.039 C 
ATOM     32  C   LIG    1      -38.657  75.471  27.327  0.00  0.00    +0.111 C 
BRANCH  27  34
ATOM     33  C   LIG    1      -38.606  78.384  28.900  0.00  0.00    +0.215 C 
ATOM     34  S   LIG    1      -37.195  77.610  28.122  0.00  0.00    +0.029 S 
ATOM     35  O   LIG    1      -36.599  76.730  29.092  0.00  0.00    -0.158 OA
ATOM     36  O   LIG    1      -36.422  78.663  27.487  0.00  0.00    -0.158 OA
ENDBRANCH  27  34
ENDBRANCH  23  30
ENDBRANCH   1  25
TORSDOF 5
ENDMDL
