MODEL 1
REMARK VINA RESULT:      -6.1      0.000      0.000
REMARK  Name = pdb/CHEMBL3675938.pdb
REMARK                            x       y       z     vdW  Elec       q    Type
REMARK                         _______ _______ _______ _____ _____    ______ ____
ROOT
ATOM      1  C   LIG    1      -36.717  68.247  22.135  0.00  0.00    +0.100 A 
ATOM      2  C   LIG    1      -37.857  68.988  22.410  0.00  0.00    +0.170 A 
ATOM      3  N   LIG    1      -38.212  69.807  23.455  0.00  0.00    -0.212 NA
ATOM      4  C   LIG    1      -39.411  70.360  23.450  0.00  0.00    +0.126 A 
ATOM      5  C   LIG    1      -40.409  70.063  22.357  0.00  0.00    +0.063 A 
ATOM      6  C   LIG    1      -40.009  69.273  21.355  0.00  0.00    +0.118 A 
ATOM      7  N   LIG    1      -38.730  68.745  21.347  0.00  0.00    -0.221 N 
ATOM      8  N   LIG    1      -38.180  67.951  20.398  0.00  0.00    -0.173 NA
ATOM      9  C   LIG    1      -36.969  67.666  20.875  0.00  0.00    +0.150 A 
ENDROOT
BRANCH   4  10
ATOM     10  N   LIG    1      -39.761  71.217  24.492  0.00  0.00    -0.308 N 
ATOM     11  C   LIG    1      -39.182  72.568  24.712  0.00  0.00    +0.106 C 
ATOM     12  C   LIG    1      -39.031  72.609  26.246  0.00  0.00    +0.029 C 
ATOM     13  C   LIG    1      -40.238  71.828  26.744  0.00  0.00    +0.021 C 
ATOM     14  C   LIG    1      -40.298  70.671  25.752  0.00  0.00    +0.107 C 
BRANCH  11  15
ATOM     15  C   LIG    1      -40.089  73.687  24.163  0.00  0.00    -0.013 A 
ATOM     16  C   LIG    1      -39.800  75.080  24.228  0.00  0.00    +0.060 A 
ATOM     17  C   LIG    1      -40.724  76.012  23.678  0.00  0.00    +0.015 A 
ATOM     18  C   LIG    1      -41.922  75.607  23.104  0.00  0.00    +0.039 A 
ATOM     19  C   LIG    1      -42.214  74.259  23.066  0.00  0.00    +0.124 A 
ATOM     20  F   LIG    1      -43.374  73.849  22.540  0.00  0.00    -0.205 F 
ATOM     21  C   LIG    1      -41.322  73.319  23.570  0.00  0.00    +0.044 A 
BRANCH  16  22
ATOM     22  C   LIG    1      -38.586  75.737  24.859  0.00  0.00    +0.418 C 
ATOM     23  F   LIG    1      -38.382  76.993  24.365  0.00  0.00    -0.166 F 
ATOM     24  F   LIG    1      -37.439  75.052  24.580  0.00  0.00    -0.166 F 
ATOM     25  F   LIG    1      -38.626  75.868  26.207  0.00  0.00    -0.166 F 
ENDBRANCH  16  22
ENDBRANCH  11  15
ENDBRANCH   4  10
BRANCH   1  28
ATOM     26  N   LIG    1      -35.577  68.552  24.202  0.00  0.00    -0.309 N 
ATOM     27  H   LIG    1      -36.464  68.925  24.531  0.00  0.00    +0.149 HD
ATOM     28  C   LIG    1      -35.522  68.065  22.925  0.00  0.00    +0.249 C 
ATOM     29  O   LIG    1      -34.543  67.445  22.490  0.00  0.00    -0.270 OA
BRANCH  26  30
ATOM     30  C   LIG    1      -34.497  68.367  25.149  0.00  0.00    +0.138 C 
BRANCH  30  31
ATOM     31  C   LIG    1      -34.141  69.636  25.939  0.00  0.00    +0.157 C 
BRANCH  31  32
ATOM     32  O   LIG    1      -33.600  69.280  27.222  0.00  0.00    -0.388 OA
ATOM     33  H   LIG    1      -34.358  68.950  27.740  0.00  0.00    +0.210 HD
ENDBRANCH  31  32
BRANCH  31  34
ATOM     34  C   LIG    1      -35.409  70.469  26.156  0.00  0.00    +0.188 C 
BRANCH  34  35
ATOM     35  O   LIG    1      -35.706  71.237  24.991  0.00  0.00    -0.392 OA
ATOM     36  H   LIG    1      -36.626  71.033  24.745  0.00  0.00    +0.210 HD
ENDBRANCH  34  35
ENDBRANCH  31  34
ENDBRANCH  30  31
ENDBRANCH  26  30
ENDBRANCH   1  28
TORSDOF 9
ENDMDL
MODEL 2
REMARK VINA RESULT:      -5.9     22.358     23.934
REMARK  Name = pdb/CHEMBL3675938.pdb
REMARK                            x       y       z     vdW  Elec       q    Type
REMARK                         _______ _______ _______ _____ _____    ______ ____
ROOT
ATOM      1  C   LIG    1      -18.961  85.898  12.523  0.00  0.00    +0.100 A 
ATOM      2  C   LIG    1      -19.239  84.604  12.943  0.00  0.00    +0.170 A 
ATOM      3  N   LIG    1      -20.184  84.078  13.789  0.00  0.00    -0.212 NA
ATOM      4  C   LIG    1      -20.175  82.777  14.023  0.00  0.00    +0.126 A 
ATOM      5  C   LIG    1      -19.116  81.880  13.428  0.00  0.00    +0.063 A 
ATOM      6  C   LIG    1      -18.229  82.439  12.597  0.00  0.00    +0.118 A 
ATOM      7  N   LIG    1      -18.287  83.793  12.320  0.00  0.00    -0.221 N 
ATOM      8  N   LIG    1      -17.475  84.493  11.492  0.00  0.00    -0.173 NA
ATOM      9  C   LIG    1      -17.894  85.752  11.613  0.00  0.00    +0.150 A 
ENDROOT
BRANCH   4  10
ATOM     10  N   LIG    1      -21.153  82.237  14.855  0.00  0.00    -0.308 N 
ATOM     11  C   LIG    1      -22.503  82.819  15.069  0.00  0.00    +0.106 C 
ATOM     12  C   LIG    1      -22.713  82.602  16.580  0.00  0.00    +0.029 C 
ATOM     13  C   LIG    1      -22.027  81.271  16.848  0.00  0.00    +0.021 C 
ATOM     14  C   LIG    1      -20.768  81.386  15.996  0.00  0.00    +0.107 C 
BRANCH  11  15
ATOM     15  C   LIG    1      -23.578  82.131  14.204  0.00  0.00    -0.013 A 
ATOM     16  C   LIG    1      -23.970  82.550  12.900  0.00  0.00    +0.060 A 
ATOM     17  C   LIG    1      -24.975  81.822  12.205  0.00  0.00    +0.015 A 
ATOM     18  C   LIG    1      -25.615  80.728  12.773  0.00  0.00    +0.039 A 
ATOM     19  C   LIG    1      -25.255  80.339  14.046  0.00  0.00    +0.124 A 
ATOM     20  F   LIG    1      -25.875  79.303  14.622  0.00  0.00    -0.205 F 
ATOM     21  C   LIG    1      -24.256  81.011  14.744  0.00  0.00    +0.044 A 
BRANCH  16  22
ATOM     22  C   LIG    1      -23.446  83.744  12.123  0.00  0.00    +0.418 C 
ATOM     23  F   LIG    1      -23.303  84.840  12.924  0.00  0.00    -0.166 F 
ATOM     24  F   LIG    1      -24.314  84.128  11.142  0.00  0.00    -0.166 F 
ATOM     25  F   LIG    1      -22.248  83.566  11.516  0.00  0.00    -0.166 F 
ENDBRANCH  16  22
ENDBRANCH  11  15
ENDBRANCH   4  10
BRANCH   1  28
ATOM     26  N   LIG    1      -20.937  87.109  13.062  0.00  0.00    -0.309 N 
ATOM     27  H   LIG    1      -21.401  86.207  12.982  0.00  0.00    +0.149 HD
ATOM     28  C   LIG    1      -19.579  87.145  12.907  0.00  0.00    +0.249 C 
ATOM     29  O   LIG    1      -18.908  88.157  13.146  0.00  0.00    -0.270 OA
BRANCH  26  30
ATOM     30  C   LIG    1      -21.694  88.251  13.532  0.00  0.00    +0.138 C 
BRANCH  30  31
ATOM     31  C   LIG    1      -22.555  87.956  14.771  0.00  0.00    +0.157 C 
BRANCH  31  32
ATOM     32  O   LIG    1      -22.695  89.146  15.565  0.00  0.00    -0.388 OA
ATOM     33  H   LIG    1      -21.876  89.654  15.418  0.00  0.00    +0.210 HD
ENDBRANCH  31  32
BRANCH  31  34
ATOM     34  C   LIG    1      -21.868  86.880  15.619  0.00  0.00    +0.188 C 
BRANCH  34  35
ATOM     35  O   LIG    1      -21.265  87.465  16.773  0.00  0.00    -0.392 OA
ATOM     36  H   LIG    1      -20.760  88.239  16.467  0.00  0.00    +0.210 HD
ENDBRANCH  34  35
ENDBRANCH  31  34
ENDBRANCH  30  31
ENDBRANCH  26  30
ENDBRANCH   1  28
TORSDOF 9
ENDMDL
MODEL 3
REMARK VINA RESULT:      -5.7     17.322     20.704
REMARK  Name = pdb/CHEMBL3675938.pdb
REMARK                            x       y       z     vdW  Elec       q    Type
REMARK                         _______ _______ _______ _____ _____    ______ ____
ROOT
ATOM      1  C   LIG    1      -19.954  76.832  30.640  0.00  0.00    +0.100 A 
ATOM      2  C   LIG    1      -19.710  77.575  31.787  0.00  0.00    +0.170 A 
ATOM      3  N   LIG    1      -20.535  78.155  32.720  0.00  0.00    -0.212 NA
ATOM      4  C   LIG    1      -19.991  78.845  33.707  0.00  0.00    +0.126 A 
ATOM      5  C   LIG    1      -18.499  79.054  33.791  0.00  0.00    +0.063 A 
ATOM      6  C   LIG    1      -17.739  78.453  32.869  0.00  0.00    +0.118 A 
ATOM      7  N   LIG    1      -18.320  77.689  31.873  0.00  0.00    -0.221 N 
ATOM      8  N   LIG    1      -17.685  77.010  30.888  0.00  0.00    -0.173 NA
ATOM      9  C   LIG    1      -18.673  76.492  30.160  0.00  0.00    +0.150 A 
ENDROOT
BRANCH   4  10
ATOM     10  N   LIG    1      -20.825  79.407  34.672  0.00  0.00    -0.308 N 
ATOM     11  C   LIG    1      -22.306  79.292  34.687  0.00  0.00    +0.106 C 
ATOM     12  C   LIG    1      -22.736  80.704  35.132  0.00  0.00    +0.029 C 
ATOM     13  C   LIG    1      -21.648  81.116  36.113  0.00  0.00    +0.021 C 
ATOM     14  C   LIG    1      -20.389  80.598  35.425  0.00  0.00    +0.107 C 
BRANCH  11  15
ATOM     15  C   LIG    1      -22.794  78.183  35.641  0.00  0.00    -0.013 A 
ATOM     16  C   LIG    1      -24.151  77.785  35.807  0.00  0.00    +0.060 A 
ATOM     17  C   LIG    1      -24.468  76.741  36.720  0.00  0.00    +0.015 A 
ATOM     18  C   LIG    1      -23.493  76.114  37.486  0.00  0.00    +0.039 A 
ATOM     19  C   LIG    1      -22.181  76.518  37.344  0.00  0.00    +0.124 A 
ATOM     20  F   LIG    1      -21.229  75.945  38.089  0.00  0.00    -0.205 F 
ATOM     21  C   LIG    1      -21.834  77.517  36.441  0.00  0.00    +0.044 A 
BRANCH  16  22
ATOM     22  C   LIG    1      -25.371  78.373  35.119  0.00  0.00    +0.418 C 
ATOM     23  F   LIG    1      -25.752  79.550  35.694  0.00  0.00    -0.166 F 
ATOM     24  F   LIG    1      -26.457  77.553  35.228  0.00  0.00    -0.166 F 
ATOM     25  F   LIG    1      -25.227  78.633  33.797  0.00  0.00    -0.166 F 
ENDBRANCH  16  22
ENDBRANCH  11  15
ENDBRANCH   4  10
BRANCH   1  28
ATOM     26  N   LIG    1      -22.240  76.216  30.889  0.00  0.00    -0.309 N 
ATOM     27  H   LIG    1      -22.080  76.379  31.880  0.00  0.00    +0.149 HD
ATOM     28  C   LIG    1      -21.210  76.471  30.026  0.00  0.00    +0.249 C 
ATOM     29  O   LIG    1      -21.354  76.463  28.797  0.00  0.00    -0.270 OA
BRANCH  26  30
ATOM     30  C   LIG    1      -23.584  75.932  30.430  0.00  0.00    +0.138 C 
BRANCH  30  31
ATOM     31  C   LIG    1      -24.654  76.854  31.035  0.00  0.00    +0.157 C 
BRANCH  31  32
ATOM     32  O   LIG    1      -25.961  76.436  30.608  0.00  0.00    -0.388 OA
ATOM     33  H   LIG    1      -25.824  75.998  29.748  0.00  0.00    +0.210 HD
ENDBRANCH  31  32
BRANCH  31  34
ATOM     34  C   LIG    1      -24.417  78.289  30.553  0.00  0.00    +0.188 C 
BRANCH  34  35
ATOM     35  O   LIG    1      -23.683  78.288  29.328  0.00  0.00    -0.392 OA
ATOM     36  H   LIG    1      -24.124  78.922  28.734  0.00  0.00    +0.210 HD
ENDBRANCH  34  35
ENDBRANCH  31  34
ENDBRANCH  30  31
ENDBRANCH  26  30
ENDBRANCH   1  28
TORSDOF 9
ENDMDL
MODEL 4
REMARK VINA RESULT:      -5.7      4.489      7.556
REMARK  Name = pdb/CHEMBL3675938.pdb
REMARK                            x       y       z     vdW  Elec       q    Type
REMARK                         _______ _______ _______ _____ _____    ______ ____
ROOT
ATOM      1  C   LIG    1      -37.324  76.193  26.303  0.00  0.00    +0.100 A 
ATOM      2  C   LIG    1      -38.056  75.214  25.646  0.00  0.00    +0.170 A 
ATOM      3  N   LIG    1      -37.881  73.860  25.494  0.00  0.00    -0.212 NA
ATOM      4  C   LIG    1      -38.752  73.185  24.764  0.00  0.00    +0.126 A 
ATOM      5  C   LIG    1      -39.888  73.880  24.054  0.00  0.00    +0.063 A 
ATOM      6  C   LIG    1      -40.024  75.196  24.249  0.00  0.00    +0.118 A 
ATOM      7  N   LIG    1      -39.135  75.879  25.060  0.00  0.00    -0.221 N 
ATOM      8  N   LIG    1      -39.155  77.199  25.365  0.00  0.00    -0.173 NA
ATOM      9  C   LIG    1      -38.070  77.375  26.119  0.00  0.00    +0.150 A 
ENDROOT
BRANCH   4  10
ATOM     10  N   LIG    1      -38.595  71.806  24.635  0.00  0.00    -0.308 N 
ATOM     11  C   LIG    1      -37.304  71.082  24.762  0.00  0.00    +0.106 C 
ATOM     12  C   LIG    1      -37.414  70.027  23.643  0.00  0.00    +0.029 C 
ATOM     13  C   LIG    1      -38.891  69.663  23.640  0.00  0.00    +0.021 C 
ATOM     14  C   LIG    1      -39.553  71.023  23.834  0.00  0.00    +0.107 C 
BRANCH  11  15
ATOM     15  C   LIG    1      -37.118  70.463  26.161  0.00  0.00    -0.013 A 
ATOM     16  C   LIG    1      -35.898  69.926  26.663  0.00  0.00    +0.060 A 
ATOM     17  C   LIG    1      -35.860  69.386  27.979  0.00  0.00    +0.015 A 
ATOM     18  C   LIG    1      -36.990  69.333  28.784  0.00  0.00    +0.039 A 
ATOM     19  C   LIG    1      -38.179  69.827  28.287  0.00  0.00    +0.124 A 
ATOM     20  F   LIG    1      -39.285  69.765  29.036  0.00  0.00    -0.205 F 
ATOM     21  C   LIG    1      -38.245  70.388  27.016  0.00  0.00    +0.044 A 
BRANCH  16  22
ATOM     22  C   LIG    1      -34.569  69.830  25.935  0.00  0.00    +0.418 C 
ATOM     23  F   LIG    1      -34.618  68.920  24.920  0.00  0.00    -0.166 F 
ATOM     24  F   LIG    1      -33.571  69.395  26.759  0.00  0.00    -0.166 F 
ATOM     25  F   LIG    1      -34.122  70.984  25.381  0.00  0.00    -0.166 F 
ENDBRANCH  16  22
ENDBRANCH  11  15
ENDBRANCH   4  10
BRANCH   1  28
ATOM     26  N   LIG    1      -35.113  76.996  26.665  0.00  0.00    -0.309 N 
ATOM     27  H   LIG    1      -35.367  77.724  26.002  0.00  0.00    +0.149 HD
ATOM     28  C   LIG    1      -36.073  76.087  27.016  0.00  0.00    +0.249 C 
ATOM     29  O   LIG    1      -35.914  75.270  27.932  0.00  0.00    -0.270 OA
BRANCH  26  30
ATOM     30  C   LIG    1      -33.839  77.082  27.350  0.00  0.00    +0.138 C 
BRANCH  30  31
ATOM     31  C   LIG    1      -33.463  78.507  27.783  0.00  0.00    +0.157 C 
BRANCH  31  32
ATOM     32  O   LIG    1      -34.553  79.405  27.516  0.00  0.00    -0.388 OA
ATOM     33  H   LIG    1      -35.320  79.027  27.985  0.00  0.00    +0.210 HD
ENDBRANCH  31  32
BRANCH  31  34
ATOM     34  C   LIG    1      -32.240  78.972  26.985  0.00  0.00    +0.188 C 
BRANCH  34  35
ATOM     35  O   LIG    1      -32.409  78.679  25.598  0.00  0.00    -0.392 OA
ATOM     36  H   LIG    1      -32.294  77.717  25.497  0.00  0.00    +0.210 HD
ENDBRANCH  34  35
ENDBRANCH  31  34
ENDBRANCH  30  31
ENDBRANCH  26  30
ENDBRANCH   1  28
TORSDOF 9
ENDMDL
MODEL 5
REMARK VINA RESULT:      -5.6     21.806     23.548
REMARK  Name = pdb/CHEMBL3675938.pdb
REMARK                            x       y       z     vdW  Elec       q    Type
REMARK                         _______ _______ _______ _____ _____    ______ ____
ROOT
ATOM      1  C   LIG    1      -18.376  84.870  12.792  0.00  0.00    +0.100 A 
ATOM      2  C   LIG    1      -18.852  83.605  13.107  0.00  0.00    +0.170 A 
ATOM      3  N   LIG    1      -19.843  83.161  13.948  0.00  0.00    -0.212 NA
ATOM      4  C   LIG    1      -20.042  81.860  14.063  0.00  0.00    +0.126 A 
ATOM      5  C   LIG    1      -19.168  80.864  13.341  0.00  0.00    +0.063 A 
ATOM      6  C   LIG    1      -18.228  81.348  12.522  0.00  0.00    +0.118 A 
ATOM      7  N   LIG    1      -18.068  82.713  12.369  0.00  0.00    -0.221 N 
ATOM      8  N   LIG    1      -17.180  83.348  11.568  0.00  0.00    -0.173 NA
ATOM      9  C   LIG    1      -17.379  84.641  11.821  0.00  0.00    +0.150 A 
ENDROOT
BRANCH   4  10
ATOM     10  N   LIG    1      -21.069  81.408  14.891  0.00  0.00    -0.308 N 
ATOM     11  C   LIG    1      -22.392  80.927  14.417  0.00  0.00    +0.106 C 
ATOM     12  C   LIG    1      -23.349  81.524  15.468  0.00  0.00    +0.029 C 
ATOM     13  C   LIG    1      -22.545  81.461  16.758  0.00  0.00    +0.021 C 
ATOM     14  C   LIG    1      -21.155  81.874  16.287  0.00  0.00    +0.107 C 
BRANCH  11  15
ATOM     15  C   LIG    1      -22.460  79.389  14.343  0.00  0.00    -0.013 A 
ATOM     16  C   LIG    1      -23.491  78.645  13.698  0.00  0.00    +0.060 A 
ATOM     17  C   LIG    1      -23.433  77.224  13.699  0.00  0.00    +0.015 A 
ATOM     18  C   LIG    1      -22.414  76.531  14.341  0.00  0.00    +0.039 A 
ATOM     19  C   LIG    1      -21.431  77.250  14.988  0.00  0.00    +0.124 A 
ATOM     20  F   LIG    1      -20.454  76.603  15.633  0.00  0.00    -0.205 F 
ATOM     21  C   LIG    1      -21.443  78.641  14.984  0.00  0.00    +0.044 A 
BRANCH  16  22
ATOM     22  C   LIG    1      -24.717  79.197  12.994  0.00  0.00    +0.418 C 
ATOM     23  F   LIG    1      -25.428  78.209  12.377  0.00  0.00    -0.166 F 
ATOM     24  F   LIG    1      -24.379  80.069  11.999  0.00  0.00    -0.166 F 
ATOM     25  F   LIG    1      -25.600  79.854  13.785  0.00  0.00    -0.166 F 
ENDBRANCH  16  22
ENDBRANCH  11  15
ENDBRANCH   4  10
BRANCH   1  28
ATOM     26  N   LIG    1      -19.860  86.159  14.134  0.00  0.00    -0.309 N 
ATOM     27  H   LIG    1      -20.267  85.260  14.384  0.00  0.00    +0.149 HD
ATOM     28  C   LIG    1      -18.766  86.159  13.314  0.00  0.00    +0.249 C 
ATOM     29  O   LIG    1      -18.104  87.180  13.087  0.00  0.00    -0.270 OA
BRANCH  26  30
ATOM     30  C   LIG    1      -20.322  87.353  14.811  0.00  0.00    +0.138 C 
BRANCH  30  31
ATOM     31  C   LIG    1      -21.824  87.626  14.632  0.00  0.00    +0.157 C 
BRANCH  31  32
ATOM     32  O   LIG    1      -22.308  88.437  15.716  0.00  0.00    -0.388 OA
ATOM     33  H   LIG    1      -21.911  88.056  16.521  0.00  0.00    +0.210 HD
ENDBRANCH  31  32
BRANCH  31  34
ATOM     34  C   LIG    1      -22.584  86.295  14.638  0.00  0.00    +0.188 C 
BRANCH  34  35
ATOM     35  O   LIG    1      -22.339  85.588  15.854  0.00  0.00    -0.392 OA
ATOM     36  H   LIG    1      -23.197  85.496  16.305  0.00  0.00    +0.210 HD
ENDBRANCH  34  35
ENDBRANCH  31  34
ENDBRANCH  30  31
ENDBRANCH  26  30
ENDBRANCH   1  28
TORSDOF 9
ENDMDL
MODEL 6
REMARK VINA RESULT:      -5.5     22.123     23.883
REMARK  Name = pdb/CHEMBL3675938.pdb
REMARK                            x       y       z     vdW  Elec       q    Type
REMARK                         _______ _______ _______ _____ _____    ______ ____
ROOT
ATOM      1  C   LIG    1      -18.750  85.579  13.169  0.00  0.00    +0.100 A 
ATOM      2  C   LIG    1      -18.566  84.216  13.353  0.00  0.00    +0.170 A 
ATOM      3  N   LIG    1      -19.271  83.262  14.047  0.00  0.00    -0.212 NA
ATOM      4  C   LIG    1      -18.814  82.022  14.064  0.00  0.00    +0.126 A 
ATOM      5  C   LIG    1      -17.514  81.654  13.391  0.00  0.00    +0.063 A 
ATOM      6  C   LIG    1      -16.875  82.615  12.715  0.00  0.00    +0.118 A 
ATOM      7  N   LIG    1      -17.395  83.896  12.661  0.00  0.00    -0.221 N 
ATOM      8  N   LIG    1      -16.875  84.962  12.007  0.00  0.00    -0.173 NA
ATOM      9  C   LIG    1      -17.701  85.964  12.309  0.00  0.00    +0.150 A 
ENDROOT
BRANCH   4  10
ATOM     10  N   LIG    1      -19.545  81.047  14.739  0.00  0.00    -0.308 N 
ATOM     11  C   LIG    1      -21.016  81.080  14.950  0.00  0.00    +0.106 C 
ATOM     12  C   LIG    1      -21.148  80.557  16.394  0.00  0.00    +0.029 C 
ATOM     13  C   LIG    1      -20.037  79.523  16.502  0.00  0.00    +0.021 C 
ATOM     14  C   LIG    1      -18.893  80.207  15.761  0.00  0.00    +0.107 C 
BRANCH  11  15
ATOM     15  C   LIG    1      -21.771  80.213  13.922  0.00  0.00    -0.013 A 
ATOM     16  C   LIG    1      -23.169  79.942  13.950  0.00  0.00    +0.060 A 
ATOM     17  C   LIG    1      -23.744  79.128  12.935  0.00  0.00    +0.015 A 
ATOM     18  C   LIG    1      -22.976  78.555  11.930  0.00  0.00    +0.039 A 
ATOM     19  C   LIG    1      -21.617  78.795  11.919  0.00  0.00    +0.124 A 
ATOM     20  F   LIG    1      -20.854  78.235  10.973  0.00  0.00    -0.205 F 
ATOM     21  C   LIG    1      -21.027  79.609  12.879  0.00  0.00    +0.044 A 
BRANCH  16  22
ATOM     22  C   LIG    1      -24.175  80.415  14.984  0.00  0.00    +0.418 C 
ATOM     23  F   LIG    1      -25.457  80.260  14.544  0.00  0.00    -0.166 F 
ATOM     24  F   LIG    1      -24.044  81.749  15.244  0.00  0.00    -0.166 F 
ATOM     25  F   LIG    1      -24.115  79.790  16.186  0.00  0.00    -0.166 F 
ENDBRANCH  16  22
ENDBRANCH  11  15
ENDBRANCH   4  10
BRANCH   1  28
ATOM     26  N   LIG    1      -21.051  86.142  13.401  0.00  0.00    -0.309 N 
ATOM     27  H   LIG    1      -21.218  85.281  12.886  0.00  0.00    +0.149 HD
ATOM     28  C   LIG    1      -19.757  86.457  13.716  0.00  0.00    +0.249 C 
ATOM     29  O   LIG    1      -19.465  87.388  14.476  0.00  0.00    -0.270 OA
BRANCH  26  30
ATOM     30  C   LIG    1      -22.180  86.867  13.947  0.00  0.00    +0.138 C 
BRANCH  30  31
ATOM     31  C   LIG    1      -22.634  86.361  15.324  0.00  0.00    +0.157 C 
BRANCH  31  32
ATOM     32  O   LIG    1      -21.771  86.884  16.348  0.00  0.00    -0.388 OA
ATOM     33  H   LIG    1      -22.226  87.674  16.692  0.00  0.00    +0.210 HD
ENDBRANCH  31  32
BRANCH  31  34
ATOM     34  C   LIG    1      -22.556  84.831  15.352  0.00  0.00    +0.188 C 
BRANCH  34  35
ATOM     35  O   LIG    1      -23.018  84.285  14.117  0.00  0.00    -0.392 OA
ATOM     36  H   LIG    1      -22.810  83.334  14.132  0.00  0.00    +0.210 HD
ENDBRANCH  34  35
ENDBRANCH  31  34
ENDBRANCH  30  31
ENDBRANCH  26  30
ENDBRANCH   1  28
TORSDOF 9
ENDMDL
MODEL 7
REMARK VINA RESULT:      -5.5     16.877     19.997
REMARK  Name = pdb/CHEMBL3675938.pdb
REMARK                            x       y       z     vdW  Elec       q    Type
REMARK                         _______ _______ _______ _____ _____    ______ ____
ROOT
ATOM      1  C   LIG    1      -23.759  77.413  30.878  0.00  0.00    +0.100 A 
ATOM      2  C   LIG    1      -22.615  77.708  31.607  0.00  0.00    +0.170 A 
ATOM      3  N   LIG    1      -22.413  78.152  32.892  0.00  0.00    -0.212 NA
ATOM      4  C   LIG    1      -21.176  78.379  33.298  0.00  0.00    +0.126 A 
ATOM      5  C   LIG    1      -20.000  78.217  32.366  0.00  0.00    +0.063 A 
ATOM      6  C   LIG    1      -20.249  77.765  31.131  0.00  0.00    +0.118 A 
ATOM      7  N   LIG    1      -21.545  77.480  30.738  0.00  0.00    -0.221 N 
ATOM      8  N   LIG    1      -21.948  77.003  29.537  0.00  0.00    -0.173 NA
ATOM      9  C   LIG    1      -23.276  76.956  29.634  0.00  0.00    +0.150 A 
ENDROOT
BRANCH   4  10
ATOM     10  N   LIG    1      -20.967  78.799  34.610  0.00  0.00    -0.308 N 
ATOM     11  C   LIG    1      -21.482  80.066  35.190  0.00  0.00    +0.106 C 
ATOM     12  C   LIG    1      -20.295  80.531  36.057  0.00  0.00    +0.029 C 
ATOM     13  C   LIG    1      -19.708  79.231  36.585  0.00  0.00    +0.021 C 
ATOM     14  C   LIG    1      -19.788  78.326  35.360  0.00  0.00    +0.107 C 
BRANCH  11  15
ATOM     15  C   LIG    1      -22.776  79.851  36.001  0.00  0.00    -0.013 A 
ATOM     16  C   LIG    1      -23.593  80.892  36.528  0.00  0.00    +0.060 A 
ATOM     17  C   LIG    1      -24.768  80.557  37.258  0.00  0.00    +0.015 A 
ATOM     18  C   LIG    1      -25.128  79.239  37.504  0.00  0.00    +0.039 A 
ATOM     19  C   LIG    1      -24.322  78.231  37.017  0.00  0.00    +0.124 A 
ATOM     20  F   LIG    1      -24.637  76.954  37.263  0.00  0.00    -0.205 F 
ATOM     21  C   LIG    1      -23.181  78.523  36.276  0.00  0.00    +0.044 A 
BRANCH  16  22
ATOM     22  C   LIG    1      -23.353  82.387  36.427  0.00  0.00    +0.418 C 
ATOM     23  F   LIG    1      -22.904  82.741  35.188  0.00  0.00    -0.166 F 
ATOM     24  F   LIG    1      -22.384  82.804  37.293  0.00  0.00    -0.166 F 
ATOM     25  F   LIG    1      -24.433  83.170  36.669  0.00  0.00    -0.166 F 
ENDBRANCH  16  22
ENDBRANCH  11  15
ENDBRANCH   4  10
BRANCH   1  28
ATOM     26  N   LIG    1      -25.502  76.937  32.427  0.00  0.00    -0.309 N 
ATOM     27  H   LIG    1      -24.763  76.524  32.991  0.00  0.00    +0.149 HD
ATOM     28  C   LIG    1      -25.148  77.538  31.251  0.00  0.00    +0.249 C 
ATOM     29  O   LIG    1      -25.944  78.207  30.579  0.00  0.00    -0.270 OA
BRANCH  26  30
ATOM     30  C   LIG    1      -26.834  77.049  32.985  0.00  0.00    +0.138 C 
BRANCH  30  31
ATOM     31  C   LIG    1      -27.758  75.876  32.624  0.00  0.00    +0.157 C 
BRANCH  31  32
ATOM     32  O   LIG    1      -27.003  74.839  31.975  0.00  0.00    -0.388 OA
ATOM     33  H   LIG    1      -26.124  75.226  31.806  0.00  0.00    +0.210 HD
ENDBRANCH  31  32
BRANCH  31  34
ATOM     34  C   LIG    1      -28.845  76.366  31.661  0.00  0.00    +0.188 C 
BRANCH  34  35
ATOM     35  O   LIG    1      -28.701  77.765  31.417  0.00  0.00    -0.392 OA
ATOM     36  H   LIG    1      -28.235  77.857  30.568  0.00  0.00    +0.210 HD
ENDBRANCH  34  35
ENDBRANCH  31  34
ENDBRANCH  30  31
ENDBRANCH  26  30
ENDBRANCH   1  28
TORSDOF 9
ENDMDL
MODEL 8
REMARK VINA RESULT:      -5.5     17.857     20.594
REMARK  Name = pdb/CHEMBL3675938.pdb
REMARK                            x       y       z     vdW  Elec       q    Type
REMARK                         _______ _______ _______ _____ _____    ______ ____
ROOT
ATOM      1  C   LIG    1      -22.580  77.260  30.440  0.00  0.00    +0.100 A 
ATOM      2  C   LIG    1      -23.262  77.478  31.629  0.00  0.00    +0.170 A 
ATOM      3  N   LIG    1      -22.846  77.717  32.917  0.00  0.00    -0.212 NA
ATOM      4  C   LIG    1      -23.757  77.853  33.864  0.00  0.00    +0.126 A 
ATOM      5  C   LIG    1      -25.228  77.693  33.568  0.00  0.00    +0.063 A 
ATOM      6  C   LIG    1      -25.582  77.478  32.296  0.00  0.00    +0.118 A 
ATOM      7  N   LIG    1      -24.619  77.392  31.307  0.00  0.00    -0.221 N 
ATOM      8  N   LIG    1      -24.823  77.198  29.982  0.00  0.00    -0.173 NA
ATOM      9  C   LIG    1      -23.595  77.130  29.470  0.00  0.00    +0.150 A 
ENDROOT
BRANCH   4  10
ATOM     10  N   LIG    1      -23.338  78.128  35.164  0.00  0.00    -0.308 N 
ATOM     11  C   LIG    1      -22.417  79.230  35.545  0.00  0.00    +0.106 C 
ATOM     12  C   LIG    1      -21.538  78.560  36.620  0.00  0.00    +0.029 C 
ATOM     13  C   LIG    1      -22.501  77.625  37.336  0.00  0.00    +0.021 C 
ATOM     14  C   LIG    1      -23.312  77.057  36.177  0.00  0.00    +0.107 C 
BRANCH  11  15
ATOM     15  C   LIG    1      -23.174  80.467  36.069  0.00  0.00    -0.013 A 
ATOM     16  C   LIG    1      -22.577  81.723  36.374  0.00  0.00    +0.060 A 
ATOM     17  C   LIG    1      -23.392  82.789  36.848  0.00  0.00    +0.015 A 
ATOM     18  C   LIG    1      -24.757  82.633  37.055  0.00  0.00    +0.039 A 
ATOM     19  C   LIG    1      -25.330  81.408  36.785  0.00  0.00    +0.124 A 
ATOM     20  F   LIG    1      -26.639  81.229  37.001  0.00  0.00    -0.205 F 
ATOM     21  C   LIG    1      -24.567  80.353  36.295  0.00  0.00    +0.044 A 
BRANCH  16  22
ATOM     22  C   LIG    1      -21.107  82.088  36.277  0.00  0.00    +0.418 C 
ATOM     23  F   LIG    1      -20.622  81.889  35.018  0.00  0.00    -0.166 F 
ATOM     24  F   LIG    1      -20.336  81.304  37.086  0.00  0.00    -0.166 F 
ATOM     25  F   LIG    1      -20.800  83.370  36.596  0.00  0.00    -0.166 F 
ENDBRANCH  16  22
ENDBRANCH  11  15
ENDBRANCH   4  10
BRANCH   1  28
ATOM     26  N   LIG    1      -20.356  77.405  31.275  0.00  0.00    -0.309 N 
ATOM     27  H   LIG    1      -20.802  77.546  32.178  0.00  0.00    +0.149 HD
ATOM     28  C   LIG    1      -21.160  77.165  30.195  0.00  0.00    +0.249 C 
ATOM     29  O   LIG    1      -20.712  76.820  29.095  0.00  0.00    -0.270 OA
BRANCH  26  30
ATOM     30  C   LIG    1      -18.916  77.258  31.217  0.00  0.00    +0.138 C 
BRANCH  30  31
ATOM     31  C   LIG    1      -18.159  78.192  32.174  0.00  0.00    +0.157 C 
BRANCH  31  32
ATOM     32  O   LIG    1      -16.883  77.621  32.510  0.00  0.00    -0.388 OA
ATOM     33  H   LIG    1      -16.829  77.666  33.483  0.00  0.00    +0.210 HD
ENDBRANCH  31  32
BRANCH  31  34
ATOM     34  C   LIG    1      -18.973  78.365  33.461  0.00  0.00    +0.188 C 
BRANCH  34  35
ATOM     35  O   LIG    1      -19.996  79.343  33.277  0.00  0.00    -0.392 OA
ATOM     36  H   LIG    1      -20.036  79.534  32.323  0.00  0.00    +0.210 HD
ENDBRANCH  34  35
ENDBRANCH  31  34
ENDBRANCH  30  31
ENDBRANCH  26  30
ENDBRANCH   1  28
TORSDOF 9
ENDMDL
MODEL 9
REMARK VINA RESULT:      -5.4      6.573      9.098
REMARK  Name = pdb/CHEMBL3675938.pdb
REMARK                            x       y       z     vdW  Elec       q    Type
REMARK                         _______ _______ _______ _____ _____    ______ ____
ROOT
ATOM      1  C   LIG    1      -37.449  76.405  26.140  0.00  0.00    +0.100 A 
ATOM      2  C   LIG    1      -38.377  77.354  25.734  0.00  0.00    +0.170 A 
ATOM      3  N   LIG    1      -38.636  78.642  26.138  0.00  0.00    -0.212 NA
ATOM      4  C   LIG    1      -39.632  79.298  25.570  0.00  0.00    +0.126 A 
ATOM      5  C   LIG    1      -40.519  78.641  24.540  0.00  0.00    +0.063 A 
ATOM      6  C   LIG    1      -40.214  77.393  24.169  0.00  0.00    +0.118 A 
ATOM      7  N   LIG    1      -39.133  76.739  24.734  0.00  0.00    -0.221 N 
ATOM      8  N   LIG    1      -38.693  75.490  24.449  0.00  0.00    -0.173 NA
ATOM      9  C   LIG    1      -37.677  75.303  25.290  0.00  0.00    +0.150 A 
ENDROOT
BRANCH   4  10
ATOM     10  N   LIG    1      -39.876  80.615  25.955  0.00  0.00    -0.308 N 
ATOM     11  C   LIG    1      -38.856  81.694  25.981  0.00  0.00    +0.106 C 
ATOM     12  C   LIG    1      -39.218  82.450  27.275  0.00  0.00    +0.029 C 
ATOM     13  C   LIG    1      -40.736  82.360  27.327  0.00  0.00    +0.021 C 
ATOM     14  C   LIG    1      -40.984  80.925  26.876  0.00  0.00    +0.107 C 
BRANCH  11  15
ATOM     15  C   LIG    1      -38.917  82.584  24.724  0.00  0.00    -0.013 A 
ATOM     16  C   LIG    1      -38.050  83.682  24.455  0.00  0.00    +0.060 A 
ATOM     17  C   LIG    1      -38.211  84.422  23.250  0.00  0.00    +0.015 A 
ATOM     18  C   LIG    1      -39.215  84.128  22.337  0.00  0.00    +0.039 A 
ATOM     19  C   LIG    1      -40.072  83.083  22.611  0.00  0.00    +0.124 A 
ATOM     20  F   LIG    1      -41.061  82.797  21.756  0.00  0.00    -0.205 F 
ATOM     21  C   LIG    1      -39.926  82.321  23.765  0.00  0.00    +0.044 A 
BRANCH  16  22
ATOM     22  C   LIG    1      -36.933  84.207  25.339  0.00  0.00    +0.418 C 
ATOM     23  F   LIG    1      -36.246  85.217  24.731  0.00  0.00    -0.166 F 
ATOM     24  F   LIG    1      -36.000  83.245  25.599  0.00  0.00    -0.166 F 
ATOM     25  F   LIG    1      -37.320  84.691  26.544  0.00  0.00    -0.166 F 
ENDBRANCH  16  22
ENDBRANCH  11  15
ENDBRANCH   4  10
BRANCH   1  28
ATOM     26  N   LIG    1      -35.159  76.482  26.781  0.00  0.00    -0.309 N 
ATOM     27  H   LIG    1      -34.976  76.531  25.782  0.00  0.00    +0.149 HD
ATOM     28  C   LIG    1      -36.463  76.470  27.193  0.00  0.00    +0.249 C 
ATOM     29  O   LIG    1      -36.787  76.577  28.382  0.00  0.00    -0.270 OA
BRANCH  26  30
ATOM     30  C   LIG    1      -34.056  76.638  27.707  0.00  0.00    +0.138 C 
BRANCH  30  31
ATOM     31  C   LIG    1      -33.310  77.974  27.564  0.00  0.00    +0.157 C 
BRANCH  31  32
ATOM     32  O   LIG    1      -34.236  79.017  27.218  0.00  0.00    -0.388 OA
ATOM     33  H   LIG    1      -34.036  79.244  26.290  0.00  0.00    +0.210 HD
ENDBRANCH  31  32
BRANCH  31  34
ATOM     34  C   LIG    1      -32.267  77.854  26.447  0.00  0.00    +0.188 C 
BRANCH  34  35
ATOM     35  O   LIG    1      -32.353  78.971  25.563  0.00  0.00    -0.392 OA
ATOM     36  H   LIG    1      -31.536  78.976  25.033  0.00  0.00    +0.210 HD
ENDBRANCH  34  35
ENDBRANCH  31  34
ENDBRANCH  30  31
ENDBRANCH  26  30
ENDBRANCH   1  28
TORSDOF 9
ENDMDL
