MODEL 1
REMARK VINA RESULT:      -6.8      0.000      0.000
REMARK  Name = pdb/CHEMBL3916820.pdb
REMARK                            x       y       z     vdW  Elec       q    Type
REMARK                         _______ _______ _______ _____ _____    ______ ____
ROOT
ATOM      1  C   LIG    1      -37.965  75.983  24.960  0.00  0.00    +0.098 A 
ATOM      2  C   LIG    1      -38.519  74.744  24.705  0.00  0.00    +0.179 A 
ATOM      3  N   LIG    1      -38.069  73.470  24.940  0.00  0.00    -0.211 NA
ATOM      4  C   LIG    1      -38.880  72.466  24.674  0.00  0.00    +0.126 A 
ATOM      5  C   LIG    1      -40.273  72.691  24.130  0.00  0.00    +0.063 A 
ATOM      6  C   LIG    1      -40.637  73.952  23.871  0.00  0.00    +0.118 A 
ATOM      7  N   LIG    1      -39.765  74.997  24.135  0.00  0.00    -0.220 N 
ATOM      8  N   LIG    1      -39.975  76.319  23.921  0.00  0.00    -0.171 NA
ATOM      9  C   LIG    1      -38.883  76.905  24.423  0.00  0.00    +0.160 A 
ENDROOT
BRANCH   4  10
ATOM     10  N   LIG    1      -38.440  71.170  24.886  0.00  0.00    -0.308 N 
ATOM     11  C   LIG    1      -37.441  70.520  24.029  0.00  0.00    +0.105 C 
ATOM     12  C   LIG    1      -36.683  69.557  24.962  0.00  0.00    +0.029 C 
ATOM     13  C   LIG    1      -37.251  69.789  26.355  0.00  0.00    +0.021 C 
ATOM     14  C   LIG    1      -38.609  70.423  26.123  0.00  0.00    +0.107 C 
BRANCH  11  15
ATOM     15  C   LIG    1      -38.083  69.757  22.874  0.00  0.00    -0.024 A 
ATOM     16  C   LIG    1      -37.280  69.307  21.814  0.00  0.00    +0.043 A 
ATOM     17  C   LIG    1      -37.835  68.559  20.778  0.00  0.00    +0.124 A 
ATOM     18  F   LIG    1      -37.049  68.135  19.779  0.00  0.00    -0.205 F 
ATOM     19  C   LIG    1      -39.185  68.234  20.766  0.00  0.00    +0.038 A 
ATOM     20  C   LIG    1      -39.998  68.670  21.806  0.00  0.00    +0.003 A 
ATOM     21  C   LIG    1      -39.451  69.425  22.848  0.00  0.00    +0.005 A 
ENDBRANCH  11  15
ENDBRANCH   4  10
BRANCH   1  23
ATOM     22  C   LIG    1      -36.589  76.105  26.987  0.00  0.00    +0.267 C 
ATOM     23  N   LIG    1      -36.761  76.164  25.616  0.00  0.00    -0.276 N 
ATOM     24  H   LIG    1      -35.941  76.321  25.037  0.00  0.00    +0.155 HD
ATOM     25  O   LIG    1      -37.467  75.909  27.812  0.00  0.00    -0.268 OA
BRANCH  22  28
ATOM     26  C   LIG    1      -33.406  77.766  27.716  0.00  0.00    +0.215 A 
ATOM     27  N   LIG    1      -34.674  77.574  27.295  0.00  0.00    -0.208 NA
ATOM     28  C   LIG    1      -35.166  76.313  27.424  0.00  0.00    +0.129 A 
ATOM     29  C   LIG    1      -34.434  75.245  27.933  0.00  0.00    +0.033 A 
ATOM     30  C   LIG    1      -33.124  75.480  28.348  0.00  0.00    +0.007 A 
ATOM     31  C   LIG    1      -32.602  76.764  28.243  0.00  0.00    +0.067 A 
BRANCH  26  33
ATOM     32  C   LIG    1      -33.806  80.063  27.561  0.00  0.00    +0.279 C 
ATOM     33  O   LIG    1      -32.839  79.022  27.640  0.00  0.00    -0.480 OA
ENDBRANCH  26  33
ENDBRANCH  22  28
ENDBRANCH   1  23
TORSDOF 5
ENDMDL
MODEL 2
REMARK VINA RESULT:      -6.7      1.869      3.371
REMARK  Name = pdb/CHEMBL3916820.pdb
REMARK                            x       y       z     vdW  Elec       q    Type
REMARK                         _______ _______ _______ _____ _____    ______ ____
ROOT
ATOM      1  C   LIG    1      -37.782  76.033  25.152  0.00  0.00    +0.098 A 
ATOM      2  C   LIG    1      -38.359  74.827  24.805  0.00  0.00    +0.179 A 
ATOM      3  N   LIG    1      -37.938  73.530  24.951  0.00  0.00    -0.211 NA
ATOM      4  C   LIG    1      -38.767  72.565  24.610  0.00  0.00    +0.126 A 
ATOM      5  C   LIG    1      -40.151  72.857  24.076  0.00  0.00    +0.063 A 
ATOM      6  C   LIG    1      -40.487  74.141  23.905  0.00  0.00    +0.118 A 
ATOM      7  N   LIG    1      -39.596  75.146  24.248  0.00  0.00    -0.220 N 
ATOM      8  N   LIG    1      -39.777  76.484  24.128  0.00  0.00    -0.171 NA
ATOM      9  C   LIG    1      -38.677  77.010  24.676  0.00  0.00    +0.160 A 
ENDROOT
BRANCH   4  10
ATOM     10  N   LIG    1      -38.355  71.248  24.732  0.00  0.00    -0.308 N 
ATOM     11  C   LIG    1      -38.251  70.565  26.028  0.00  0.00    +0.105 C 
ATOM     12  C   LIG    1      -38.565  69.088  25.724  0.00  0.00    +0.029 C 
ATOM     13  C   LIG    1      -38.927  69.031  24.247  0.00  0.00    +0.021 C 
ATOM     14  C   LIG    1      -38.316  70.282  23.645  0.00  0.00    +0.107 C 
BRANCH  11  15
ATOM     15  C   LIG    1      -36.863  70.707  26.643  0.00  0.00    -0.024 A 
ATOM     16  C   LIG    1      -35.815  69.898  26.173  0.00  0.00    +0.043 A 
ATOM     17  C   LIG    1      -34.526  70.050  26.679  0.00  0.00    +0.124 A 
ATOM     18  F   LIG    1      -33.541  69.272  26.212  0.00  0.00    -0.205 F 
ATOM     19  C   LIG    1      -34.240  71.001  27.651  0.00  0.00    +0.038 A 
ATOM     20  C   LIG    1      -35.263  71.811  28.130  0.00  0.00    +0.003 A 
ATOM     21  C   LIG    1      -36.561  71.663  27.631  0.00  0.00    +0.005 A 
ENDBRANCH  11  15
ENDBRANCH   4  10
BRANCH   1  23
ATOM     22  C   LIG    1      -36.389  75.839  27.161  0.00  0.00    +0.267 C 
ATOM     23  N   LIG    1      -36.579  76.142  25.825  0.00  0.00    -0.276 N 
ATOM     24  H   LIG    1      -35.773  76.437  25.282  0.00  0.00    +0.155 HD
ATOM     25  O   LIG    1      -37.249  75.456  27.939  0.00  0.00    -0.268 OA
BRANCH  22  28
ATOM     26  C   LIG    1      -32.921  77.012  27.288  0.00  0.00    +0.215 A 
ATOM     27  N   LIG    1      -34.185  76.823  26.855  0.00  0.00    -0.208 NA
ATOM     28  C   LIG    1      -34.971  76.024  27.623  0.00  0.00    +0.129 A 
ATOM     29  C   LIG    1      -34.534  75.397  28.787  0.00  0.00    +0.033 A 
ATOM     30  C   LIG    1      -33.218  75.608  29.196  0.00  0.00    +0.007 A 
ATOM     31  C   LIG    1      -32.398  76.434  28.437  0.00  0.00    +0.067 A 
BRANCH  26  33
ATOM     32  C   LIG    1      -32.403  79.207  26.675  0.00  0.00    +0.279 C 
ATOM     33  O   LIG    1      -32.065  77.828  26.576  0.00  0.00    -0.480 OA
ENDBRANCH  26  33
ENDBRANCH  22  28
ENDBRANCH   1  23
TORSDOF 5
ENDMDL
MODEL 3
REMARK VINA RESULT:      -6.7     12.499     18.742
REMARK  Name = pdb/CHEMBL3916820.pdb
REMARK                            x       y       z     vdW  Elec       q    Type
REMARK                         _______ _______ _______ _____ _____    ______ ____
ROOT
ATOM      1  C   LIG    1      -22.909  76.825  30.730  0.00  0.00    +0.098 A 
ATOM      2  C   LIG    1      -21.658  77.201  31.178  0.00  0.00    +0.179 A 
ATOM      3  N   LIG    1      -21.223  77.700  32.379  0.00  0.00    -0.211 NA
ATOM      4  C   LIG    1      -19.928  77.872  32.549  0.00  0.00    +0.126 A 
ATOM      5  C   LIG    1      -18.931  77.528  31.465  0.00  0.00    +0.063 A 
ATOM      6  C   LIG    1      -19.418  77.094  30.295  0.00  0.00    +0.118 A 
ATOM      7  N   LIG    1      -20.784  76.940  30.124  0.00  0.00    -0.220 N 
ATOM      8  N   LIG    1      -21.433  76.525  29.009  0.00  0.00    -0.171 NA
ATOM      9  C   LIG    1      -22.714  76.459  29.385  0.00  0.00    +0.160 A 
ENDROOT
BRANCH   4  10
ATOM     10  N   LIG    1      -19.467  78.392  33.747  0.00  0.00    -0.308 N 
ATOM     11  C   LIG    1      -20.226  78.289  35.000  0.00  0.00    +0.105 C 
ATOM     12  C   LIG    1      -19.155  78.216  36.106  0.00  0.00    +0.029 C 
ATOM     13  C   LIG    1      -17.813  78.190  35.389  0.00  0.00    +0.021 C 
ATOM     14  C   LIG    1      -18.090  78.773  34.017  0.00  0.00    +0.107 C 
BRANCH  11  15
ATOM     15  C   LIG    1      -21.144  79.487  35.217  0.00  0.00    -0.024 A 
ATOM     16  C   LIG    1      -22.534  79.321  35.100  0.00  0.00    +0.043 A 
ATOM     17  C   LIG    1      -23.395  80.387  35.351  0.00  0.00    +0.124 A 
ATOM     18  F   LIG    1      -24.717  80.204  35.237  0.00  0.00    -0.205 F 
ATOM     19  C   LIG    1      -22.909  81.633  35.726  0.00  0.00    +0.038 A 
ATOM     20  C   LIG    1      -21.537  81.819  35.848  0.00  0.00    +0.003 A 
ATOM     21  C   LIG    1      -20.665  80.756  35.594  0.00  0.00    +0.005 A 
ENDBRANCH  11  15
ENDBRANCH   4  10
BRANCH   1  23
ATOM     22  C   LIG    1      -25.215  77.506  31.212  0.00  0.00    +0.267 C 
ATOM     23  N   LIG    1      -24.043  76.840  31.521  0.00  0.00    -0.276 N 
ATOM     24  H   LIG    1      -24.015  76.292  32.376  0.00  0.00    +0.155 HD
ATOM     25  O   LIG    1      -25.412  78.188  30.219  0.00  0.00    -0.268 OA
BRANCH  22  28
ATOM     26  C   LIG    1      -28.529  77.004  32.690  0.00  0.00    +0.215 A 
ATOM     27  N   LIG    1      -27.563  77.194  31.767  0.00  0.00    -0.208 NA
ATOM     28  C   LIG    1      -26.296  77.328  32.241  0.00  0.00    +0.129 A 
ATOM     29  C   LIG    1      -25.969  77.299  33.593  0.00  0.00    +0.033 A 
ATOM     30  C   LIG    1      -26.995  77.111  34.517  0.00  0.00    +0.007 A 
ATOM     31  C   LIG    1      -28.298  76.956  34.058  0.00  0.00    +0.067 A 
BRANCH  26  33
ATOM     32  C   LIG    1      -29.973  75.956  31.181  0.00  0.00    +0.279 C 
ATOM     33  O   LIG    1      -29.840  76.838  32.290  0.00  0.00    -0.480 OA
ENDBRANCH  26  33
ENDBRANCH  22  28
ENDBRANCH   1  23
TORSDOF 5
ENDMDL
MODEL 4
REMARK VINA RESULT:      -6.5     13.569     18.632
REMARK  Name = pdb/CHEMBL3916820.pdb
REMARK                            x       y       z     vdW  Elec       q    Type
REMARK                         _______ _______ _______ _____ _____    ______ ____
ROOT
ATOM      1  C   LIG    1      -24.267  79.957  35.448  0.00  0.00    +0.098 A 
ATOM      2  C   LIG    1      -22.888  80.017  35.491  0.00  0.00    +0.179 A 
ATOM      3  N   LIG    1      -21.916  79.281  34.864  0.00  0.00    -0.211 NA
ATOM      4  C   LIG    1      -20.660  79.644  35.026  0.00  0.00    +0.126 A 
ATOM      5  C   LIG    1      -20.281  80.840  35.870  0.00  0.00    +0.063 A 
ATOM      6  C   LIG    1      -21.268  81.488  36.500  0.00  0.00    +0.118 A 
ATOM      7  N   LIG    1      -22.582  81.081  36.338  0.00  0.00    -0.220 N 
ATOM      8  N   LIG    1      -23.688  81.618  36.910  0.00  0.00    -0.171 NA
ATOM      9  C   LIG    1      -24.699  80.933  36.366  0.00  0.00    +0.160 A 
ENDROOT
BRANCH   4  10
ATOM     10  N   LIG    1      -19.660  78.904  34.417  0.00  0.00    -0.308 N 
ATOM     11  C   LIG    1      -19.469  78.875  32.961  0.00  0.00    +0.105 C 
ATOM     12  C   LIG    1      -17.954  78.680  32.764  0.00  0.00    +0.029 C 
ATOM     13  C   LIG    1      -17.344  78.701  34.158  0.00  0.00    +0.021 C 
ATOM     14  C   LIG    1      -18.490  78.367  35.093  0.00  0.00    +0.107 C 
BRANCH  11  15
ATOM     15  C   LIG    1      -20.249  77.743  32.301  0.00  0.00    -0.024 A 
ATOM     16  C   LIG    1      -20.498  77.790  30.920  0.00  0.00    +0.043 A 
ATOM     17  C   LIG    1      -21.157  76.739  30.286  0.00  0.00    +0.124 A 
ATOM     18  F   LIG    1      -21.380  76.803  28.966  0.00  0.00    -0.205 F 
ATOM     19  C   LIG    1      -21.579  75.620  30.994  0.00  0.00    +0.038 A 
ATOM     20  C   LIG    1      -21.343  75.554  32.362  0.00  0.00    +0.003 A 
ATOM     21  C   LIG    1      -20.685  76.605  33.008  0.00  0.00    +0.005 A 
ENDBRANCH  11  15
ENDBRANCH   4  10
BRANCH   1  23
ATOM     22  C   LIG    1      -25.864  78.132  35.086  0.00  0.00    +0.267 C 
ATOM     23  N   LIG    1      -24.972  79.088  34.636  0.00  0.00    -0.276 N 
ATOM     24  H   LIG    1      -24.842  79.186  33.633  0.00  0.00    +0.155 HD
ATOM     25  O   LIG    1      -26.142  77.902  36.253  0.00  0.00    -0.268 OA
BRANCH  22  28
ATOM     26  C   LIG    1      -26.513  76.736  31.762  0.00  0.00    +0.215 A 
ATOM     27  N   LIG    1      -25.952  77.468  32.747  0.00  0.00    -0.208 NA
ATOM     28  C   LIG    1      -26.509  77.343  33.980  0.00  0.00    +0.129 A 
ATOM     29  C   LIG    1      -27.607  76.534  34.256  0.00  0.00    +0.033 A 
ATOM     30  C   LIG    1      -28.166  75.801  33.210  0.00  0.00    +0.007 A 
ATOM     31  C   LIG    1      -27.606  75.899  31.941  0.00  0.00    +0.067 A 
BRANCH  26  33
ATOM     32  C   LIG    1      -24.817  77.586  30.397  0.00  0.00    +0.279 C 
ATOM     33  O   LIG    1      -25.994  76.791  30.484  0.00  0.00    -0.480 OA
ENDBRANCH  26  33
ENDBRANCH  22  28
ENDBRANCH   1  23
TORSDOF 5
ENDMDL
MODEL 5
REMARK VINA RESULT:      -6.5      6.701      9.441
REMARK  Name = pdb/CHEMBL3916820.pdb
REMARK                            x       y       z     vdW  Elec       q    Type
REMARK                         _______ _______ _______ _____ _____    ______ ____
ROOT
ATOM      1  C   LIG    1      -36.077  83.958  25.861  0.00  0.00    +0.098 A 
ATOM      2  C   LIG    1      -37.197  84.091  25.065  0.00  0.00    +0.179 A 
ATOM      3  N   LIG    1      -38.058  83.169  24.527  0.00  0.00    -0.211 NA
ATOM      4  C   LIG    1      -39.118  83.610  23.882  0.00  0.00    +0.126 A 
ATOM      5  C   LIG    1      -39.400  85.088  23.733  0.00  0.00    +0.063 A 
ATOM      6  C   LIG    1      -38.499  85.941  24.233  0.00  0.00    +0.118 A 
ATOM      7  N   LIG    1      -37.376  85.462  24.890  0.00  0.00    -0.220 N 
ATOM      8  N   LIG    1      -36.371  86.186  25.440  0.00  0.00    -0.171 NA
ATOM      9  C   LIG    1      -35.592  85.270  26.023  0.00  0.00    +0.160 A 
ENDROOT
BRANCH   4  10
ATOM     10  N   LIG    1      -39.991  82.697  23.314  0.00  0.00    -0.308 N 
ATOM     11  C   LIG    1      -40.912  81.877  24.112  0.00  0.00    +0.105 C 
ATOM     12  C   LIG    1      -42.140  81.665  23.206  0.00  0.00    +0.029 C 
ATOM     13  C   LIG    1      -41.876  82.475  21.945  0.00  0.00    +0.021 C 
ATOM     14  C   LIG    1      -40.372  82.668  21.911  0.00  0.00    +0.107 C 
BRANCH  11  15
ATOM     15  C   LIG    1      -40.296  80.539  24.506  0.00  0.00    -0.024 A 
ATOM     16  C   LIG    1      -40.321  79.472  23.593  0.00  0.00    +0.043 A 
ATOM     17  C   LIG    1      -39.713  78.259  23.910  0.00  0.00    +0.124 A 
ATOM     18  F   LIG    1      -39.745  77.256  23.022  0.00  0.00    -0.205 F 
ATOM     19  C   LIG    1      -39.065  78.072  25.125  0.00  0.00    +0.038 A 
ATOM     20  C   LIG    1      -39.029  79.115  26.043  0.00  0.00    +0.003 A 
ATOM     21  C   LIG    1      -39.640  80.335  25.736  0.00  0.00    +0.005 A 
ENDBRANCH  11  15
ENDBRANCH   4  10
BRANCH   1  23
ATOM     22  C   LIG    1      -36.135  82.084  27.442  0.00  0.00    +0.267 C 
ATOM     23  N   LIG    1      -35.618  82.745  26.343  0.00  0.00    -0.276 N 
ATOM     24  H   LIG    1      -34.866  82.299  25.826  0.00  0.00    +0.155 HD
ATOM     25  O   LIG    1      -37.046  82.478  28.154  0.00  0.00    -0.268 OA
BRANCH  22  28
ATOM     26  C   LIG    1      -33.611  79.429  27.463  0.00  0.00    +0.215 A 
ATOM     27  N   LIG    1      -34.227  80.597  27.183  0.00  0.00    -0.208 NA
ATOM     28  C   LIG    1      -35.461  80.770  27.725  0.00  0.00    +0.129 A 
ATOM     29  C   LIG    1      -36.103  79.818  28.511  0.00  0.00    +0.033 A 
ATOM     30  C   LIG    1      -35.440  78.619  28.769  0.00  0.00    +0.007 A 
ATOM     31  C   LIG    1      -34.169  78.422  28.240  0.00  0.00    +0.067 A 
BRANCH  26  33
ATOM     32  C   LIG    1      -32.190  77.855  26.480  0.00  0.00    +0.279 C 
ATOM     33  O   LIG    1      -32.346  79.183  26.969  0.00  0.00    -0.480 OA
ENDBRANCH  26  33
ENDBRANCH  22  28
ENDBRANCH   1  23
TORSDOF 5
ENDMDL
MODEL 6
REMARK VINA RESULT:      -6.5      3.659      8.807
REMARK  Name = pdb/CHEMBL3916820.pdb
REMARK                            x       y       z     vdW  Elec       q    Type
REMARK                         _______ _______ _______ _____ _____    ______ ____
ROOT
ATOM      1  C   LIG    1      -39.636  78.613  25.379  0.00  0.00    +0.098 A 
ATOM      2  C   LIG    1      -38.851  79.234  26.331  0.00  0.00    +0.179 A 
ATOM      3  N   LIG    1      -38.006  78.740  27.291  0.00  0.00    -0.211 NA
ATOM      4  C   LIG    1      -37.301  79.598  27.999  0.00  0.00    +0.126 A 
ATOM      5  C   LIG    1      -37.402  81.090  27.772  0.00  0.00    +0.063 A 
ATOM      6  C   LIG    1      -38.282  81.516  26.859  0.00  0.00    +0.118 A 
ATOM      7  N   LIG    1      -39.033  80.602  26.136  0.00  0.00    -0.220 N 
ATOM      8  N   LIG    1      -39.968  80.868  25.191  0.00  0.00    -0.171 NA
ATOM      9  C   LIG    1      -40.325  79.661  24.740  0.00  0.00    +0.160 A 
ENDROOT
BRANCH   4  10
ATOM     10  N   LIG    1      -36.454  79.123  28.987  0.00  0.00    -0.308 N 
ATOM     11  C   LIG    1      -35.138  79.716  29.258  0.00  0.00    +0.105 C 
ATOM     12  C   LIG    1      -34.914  79.509  30.768  0.00  0.00    +0.029 C 
ATOM     13  C   LIG    1      -36.190  78.874  31.299  0.00  0.00    +0.021 C 
ATOM     14  C   LIG    1      -36.855  78.256  30.084  0.00  0.00    +0.107 C 
BRANCH  11  15
ATOM     15  C   LIG    1      -34.030  79.047  28.451  0.00  0.00    -0.024 A 
ATOM     16  C   LIG    1      -33.590  77.764  28.815  0.00  0.00    +0.043 A 
ATOM     17  C   LIG    1      -32.620  77.111  28.058  0.00  0.00    +0.124 A 
ATOM     18  F   LIG    1      -32.219  75.884  28.421  0.00  0.00    -0.205 F 
ATOM     19  C   LIG    1      -32.067  77.701  26.929  0.00  0.00    +0.038 A 
ATOM     20  C   LIG    1      -32.488  78.971  26.552  0.00  0.00    +0.003 A 
ATOM     21  C   LIG    1      -33.458  79.637  27.307  0.00  0.00    +0.005 A 
ENDBRANCH  11  15
ENDBRANCH   4  10
BRANCH   1  23
ATOM     22  C   LIG    1      -38.643  76.512  24.594  0.00  0.00    +0.267 C 
ATOM     23  N   LIG    1      -39.659  77.245  25.179  0.00  0.00    -0.276 N 
ATOM     24  H   LIG    1      -40.475  76.744  25.520  0.00  0.00    +0.155 HD
ATOM     25  O   LIG    1      -37.597  76.962  24.152  0.00  0.00    -0.268 OA
BRANCH  22  28
ATOM     26  C   LIG    1      -38.206  72.892  24.943  0.00  0.00    +0.215 A 
ATOM     27  N   LIG    1      -37.939  74.214  24.974  0.00  0.00    -0.208 NA
ATOM     28  C   LIG    1      -38.925  75.037  24.529  0.00  0.00    +0.129 A 
ATOM     29  C   LIG    1      -40.148  74.586  24.041  0.00  0.00    +0.033 A 
ATOM     30  C   LIG    1      -40.382  73.212  24.015  0.00  0.00    +0.007 A 
ATOM     31  C   LIG    1      -39.396  72.349  24.479  0.00  0.00    +0.067 A 
BRANCH  26  33
ATOM     32  C   LIG    1      -36.942  72.170  26.772  0.00  0.00    +0.279 C 
ATOM     33  O   LIG    1      -37.265  71.990  25.397  0.00  0.00    -0.480 OA
ENDBRANCH  26  33
ENDBRANCH  22  28
ENDBRANCH   1  23
TORSDOF 5
ENDMDL
MODEL 7
REMARK VINA RESULT:      -6.4      2.976      6.005
REMARK  Name = pdb/CHEMBL3916820.pdb
REMARK                            x       y       z     vdW  Elec       q    Type
REMARK                         _______ _______ _______ _____ _____    ______ ____
ROOT
ATOM      1  C   LIG    1      -36.305  70.748  25.485  0.00  0.00    +0.098 A 
ATOM      2  C   LIG    1      -36.156  69.638  24.678  0.00  0.00    +0.179 A 
ATOM      3  N   LIG    1      -36.706  69.300  23.468  0.00  0.00    -0.211 NA
ATOM      4  C   LIG    1      -36.286  68.197  22.881  0.00  0.00    +0.126 A 
ATOM      5  C   LIG    1      -35.224  67.319  23.504  0.00  0.00    +0.063 A 
ATOM      6  C   LIG    1      -34.763  67.671  24.709  0.00  0.00    +0.118 A 
ATOM      7  N   LIG    1      -35.230  68.822  25.325  0.00  0.00    -0.220 N 
ATOM      8  N   LIG    1      -34.876  69.308  26.540  0.00  0.00    -0.171 NA
ATOM      9  C   LIG    1      -35.530  70.470  26.627  0.00  0.00    +0.160 A 
ENDROOT
BRANCH   4  10
ATOM     10  N   LIG    1      -36.841  67.827  21.667  0.00  0.00    -0.308 N 
ATOM     11  C   LIG    1      -37.679  68.730  20.868  0.00  0.00    +0.105 C 
ATOM     12  C   LIG    1      -37.416  68.326  19.405  0.00  0.00    +0.029 C 
ATOM     13  C   LIG    1      -36.344  67.247  19.455  0.00  0.00    +0.021 C 
ATOM     14  C   LIG    1      -36.411  66.692  20.865  0.00  0.00    +0.107 C 
BRANCH  11  15
ATOM     15  C   LIG    1      -39.159  68.591  21.208  0.00  0.00    -0.024 A 
ATOM     16  C   LIG    1      -39.800  69.610  21.933  0.00  0.00    +0.043 A 
ATOM     17  C   LIG    1      -41.164  69.531  22.204  0.00  0.00    +0.124 A 
ATOM     18  F   LIG    1      -41.755  70.516  22.893  0.00  0.00    -0.205 F 
ATOM     19  C   LIG    1      -41.926  68.456  21.765  0.00  0.00    +0.038 A 
ATOM     20  C   LIG    1      -41.312  67.437  21.045  0.00  0.00    +0.003 A 
ATOM     21  C   LIG    1      -39.942  67.504  20.772  0.00  0.00    +0.005 A 
ENDBRANCH  11  15
ENDBRANCH   4  10
BRANCH   1  23
ATOM     22  C   LIG    1      -38.457  71.857  25.087  0.00  0.00    +0.267 C 
ATOM     23  N   LIG    1      -37.075  71.845  25.144  0.00  0.00    -0.276 N 
ATOM     24  H   LIG    1      -36.581  72.713  24.954  0.00  0.00    +0.155 HD
ATOM     25  O   LIG    1      -39.192  70.906  25.304  0.00  0.00    -0.268 OA
BRANCH  22  28
ATOM     26  C   LIG    1      -38.769  75.478  24.631  0.00  0.00    +0.215 A 
ATOM     27  N   LIG    1      -38.264  74.281  24.994  0.00  0.00    -0.208 NA
ATOM     28  C   LIG    1      -39.032  73.195  24.714  0.00  0.00    +0.129 A 
ATOM     29  C   LIG    1      -40.284  73.266  24.110  0.00  0.00    +0.033 A 
ATOM     30  C   LIG    1      -40.777  74.522  23.760  0.00  0.00    +0.007 A 
ATOM     31  C   LIG    1      -40.004  75.649  24.020  0.00  0.00    +0.067 A 
BRANCH  26  33
ATOM     32  C   LIG    1      -37.498  76.689  26.175  0.00  0.00    +0.279 C 
ATOM     33  O   LIG    1      -38.042  76.629  24.861  0.00  0.00    -0.480 OA
ENDBRANCH  26  33
ENDBRANCH  22  28
ENDBRANCH   1  23
TORSDOF 5
ENDMDL
MODEL 8
REMARK VINA RESULT:      -6.4     14.784     18.368
REMARK  Name = pdb/CHEMBL3916820.pdb
REMARK                            x       y       z     vdW  Elec       q    Type
REMARK                         _______ _______ _______ _____ _____    ______ ____
ROOT
ATOM      1  C   LIG    1      -19.106  78.877  32.981  0.00  0.00    +0.098 A 
ATOM      2  C   LIG    1      -19.846  78.095  32.116  0.00  0.00    +0.179 A 
ATOM      3  N   LIG    1      -21.196  77.903  31.975  0.00  0.00    -0.211 NA
ATOM      4  C   LIG    1      -21.617  77.159  30.973  0.00  0.00    +0.126 A 
ATOM      5  C   LIG    1      -20.656  76.532  29.989  0.00  0.00    +0.063 A 
ATOM      6  C   LIG    1      -19.348  76.710  30.207  0.00  0.00    +0.118 A 
ATOM      7  N   LIG    1      -18.918  77.476  31.279  0.00  0.00    -0.220 N 
ATOM      8  N   LIG    1      -17.640  77.743  31.642  0.00  0.00    -0.171 NA
ATOM      9  C   LIG    1      -17.764  78.588  32.669  0.00  0.00    +0.160 A 
ENDROOT
BRANCH   4  10
ATOM     10  N   LIG    1      -22.977  76.937  30.822  0.00  0.00    -0.308 N 
ATOM     11  C   LIG    1      -23.809  76.364  31.888  0.00  0.00    +0.105 C 
ATOM     12  C   LIG    1      -25.200  76.995  31.686  0.00  0.00    +0.029 C 
ATOM     13  C   LIG    1      -25.049  77.987  30.542  0.00  0.00    +0.021 C 
ATOM     14  C   LIG    1      -23.811  77.534  29.792  0.00  0.00    +0.107 C 
BRANCH  11  15
ATOM     15  C   LIG    1      -23.889  74.843  31.800  0.00  0.00    -0.024 A 
ATOM     16  C   LIG    1      -25.086  74.239  31.381  0.00  0.00    +0.043 A 
ATOM     17  C   LIG    1      -25.164  72.856  31.238  0.00  0.00    +0.124 A 
ATOM     18  F   LIG    1      -26.315  72.301  30.833  0.00  0.00    -0.205 F 
ATOM     19  C   LIG    1      -24.069  72.040  31.496  0.00  0.00    +0.038 A 
ATOM     20  C   LIG    1      -22.876  72.619  31.912  0.00  0.00    +0.003 A 
ATOM     21  C   LIG    1      -22.788  74.006  32.063  0.00  0.00    +0.005 A 
ENDBRANCH  11  15
ENDBRANCH   4  10
BRANCH   1  23
ATOM     22  C   LIG    1      -19.806  79.448  35.261  0.00  0.00    +0.267 C 
ATOM     23  N   LIG    1      -19.668  79.729  33.914  0.00  0.00    -0.276 N 
ATOM     24  H   LIG    1      -19.971  80.640  33.582  0.00  0.00    +0.155 HD
ATOM     25  O   LIG    1      -19.477  78.410  35.815  0.00  0.00    -0.268 OA
BRANCH  22  28
ATOM     26  C   LIG    1      -22.124  82.108  36.245  0.00  0.00    +0.215 A 
ATOM     27  N   LIG    1      -21.551  81.124  35.522  0.00  0.00    -0.208 NA
ATOM     28  C   LIG    1      -20.428  80.567  36.048  0.00  0.00    +0.129 A 
ATOM     29  C   LIG    1      -19.853  80.972  37.250  0.00  0.00    +0.033 A 
ATOM     30  C   LIG    1      -20.468  82.000  37.963  0.00  0.00    +0.007 A 
ATOM     31  C   LIG    1      -21.628  82.575  37.455  0.00  0.00    +0.067 A 
BRANCH  26  33
ATOM     32  C   LIG    1      -24.305  82.757  36.778  0.00  0.00    +0.279 C 
ATOM     33  O   LIG    1      -23.280  82.711  35.791  0.00  0.00    -0.480 OA
ENDBRANCH  26  33
ENDBRANCH  22  28
ENDBRANCH   1  23
TORSDOF 5
ENDMDL
MODEL 9
REMARK VINA RESULT:      -6.3      2.838      6.287
REMARK  Name = pdb/CHEMBL3916820.pdb
REMARK                            x       y       z     vdW  Elec       q    Type
REMARK                         _______ _______ _______ _____ _____    ______ ____
ROOT
ATOM      1  C   LIG    1      -34.771  75.200  28.204  0.00  0.00    +0.098 A 
ATOM      2  C   LIG    1      -35.730  75.962  27.565  0.00  0.00    +0.179 A 
ATOM      3  N   LIG    1      -36.538  75.707  26.488  0.00  0.00    -0.211 NA
ATOM      4  C   LIG    1      -37.445  76.607  26.165  0.00  0.00    +0.126 A 
ATOM      5  C   LIG    1      -37.610  77.887  26.951  0.00  0.00    +0.063 A 
ATOM      6  C   LIG    1      -36.758  78.105  27.960  0.00  0.00    +0.118 A 
ATOM      7  N   LIG    1      -35.794  77.160  28.274  0.00  0.00    -0.220 N 
ATOM      8  N   LIG    1      -34.857  77.232  29.250  0.00  0.00    -0.171 NA
ATOM      9  C   LIG    1      -34.245  76.045  29.199  0.00  0.00    +0.160 A 
ENDROOT
BRANCH   4  10
ATOM     10  N   LIG    1      -38.261  76.379  25.068  0.00  0.00    -0.308 N 
ATOM     11  C   LIG    1      -39.495  75.587  25.148  0.00  0.00    +0.105 C 
ATOM     12  C   LIG    1      -40.432  76.205  24.093  0.00  0.00    +0.029 C 
ATOM     13  C   LIG    1      -39.688  77.404  23.523  0.00  0.00    +0.021 C 
ATOM     14  C   LIG    1      -38.226  77.140  23.830  0.00  0.00    +0.107 C 
BRANCH  11  15
ATOM     15  C   LIG    1      -39.250  74.110  24.853  0.00  0.00    -0.024 A 
ATOM     16  C   LIG    1      -40.221  73.378  24.150  0.00  0.00    +0.043 A 
ATOM     17  C   LIG    1      -39.994  72.044  23.819  0.00  0.00    +0.124 A 
ATOM     18  F   LIG    1      -40.931  71.366  23.143  0.00  0.00    -0.205 F 
ATOM     19  C   LIG    1      -38.809  71.406  24.166  0.00  0.00    +0.038 A 
ATOM     20  C   LIG    1      -37.836  72.113  24.862  0.00  0.00    +0.003 A 
ATOM     21  C   LIG    1      -38.056  73.451  25.203  0.00  0.00    +0.005 A 
ENDBRANCH  11  15
ENDBRANCH   4  10
BRANCH   1  23
ATOM     22  C   LIG    1      -35.242  72.793  28.192  0.00  0.00    +0.267 C 
ATOM     23  N   LIG    1      -34.475  73.894  27.859  0.00  0.00    -0.276 N 
ATOM     24  H   LIG    1      -33.645  73.745  27.291  0.00  0.00    +0.155 HD
ATOM     25  O   LIG    1      -36.271  72.808  28.850  0.00  0.00    -0.268 OA
BRANCH  22  28
ATOM     26  C   LIG    1      -34.614  69.970  25.944  0.00  0.00    +0.215 A 
ATOM     27  N   LIG    1      -35.128  71.119  26.430  0.00  0.00    -0.208 NA
ATOM     28  C   LIG    1      -34.696  71.497  27.663  0.00  0.00    +0.129 A 
ATOM     29  C   LIG    1      -33.793  70.762  28.425  0.00  0.00    +0.033 A 
ATOM     30  C   LIG    1      -33.292  69.575  27.893  0.00  0.00    +0.007 A 
ATOM     31  C   LIG    1      -33.705  69.174  26.628  0.00  0.00    +0.067 A 
BRANCH  26  33
ATOM     32  C   LIG    1      -36.141  68.697  24.715  0.00  0.00    +0.279 C 
ATOM     33  O   LIG    1      -34.985  69.527  24.690  0.00  0.00    -0.480 OA
ENDBRANCH  26  33
ENDBRANCH  22  28
ENDBRANCH   1  23
TORSDOF 5
ENDMDL
