MODEL 1
REMARK VINA RESULT:      -8.0      0.000      0.000
REMARK  Name = modded_pdb/CHEMBL2037209_nitrogen_modded_with_ethanol_version_3.pdb
REMARK                            x       y       z     vdW  Elec       q    Type
REMARK                         _______ _______ _______ _____ _____    ______ ____
ROOT
ATOM      1  C   LIG    1      -27.957  76.668  32.691  0.00  0.00    +0.035 A 
ATOM      2  C   LIG    1      -28.494  75.835  31.690  0.00  0.00    +0.046 A 
ATOM      3  C   LIG    1      -29.871  75.586  31.597  0.00  0.00    +0.033 A 
ATOM      4  C   LIG    1      -30.699  76.129  32.584  0.00  0.00    +0.023 A 
ATOM      5  C   LIG    1      -30.177  76.937  33.599  0.00  0.00    +0.004 A 
ATOM      6  C   LIG    1      -28.810  77.222  33.644  0.00  0.00    +0.023 A 
ENDROOT
BRANCH   1   8
ATOM      7  C   LIG    1      -25.817  77.500  31.674  0.00  0.00    +0.248 C 
ATOM      8  N   LIG    1      -26.560  76.877  32.665  0.00  0.00    -0.281 N 
ATOM      9  H   LIG    1      -26.051  76.386  33.385  0.00  0.00    +0.155 HD
ATOM     10  O   LIG    1      -26.249  77.965  30.627  0.00  0.00    -0.270 OA
BRANCH   7  15
ATOM     11  C   LIG    1      -22.393  78.047  33.301  0.00  0.00    +0.049 A 
ATOM     12  C   LIG    1      -21.551  77.592  32.277  0.00  0.00    +0.038 A 
ATOM     13  C   LIG    1      -22.079  77.113  31.066  0.00  0.00    +0.057 A 
ATOM     14  C   LIG    1      -23.473  77.099  30.888  0.00  0.00    +0.025 A 
ATOM     15  C   LIG    1      -24.332  77.527  31.912  0.00  0.00    +0.040 A 
ATOM     16  C   LIG    1      -23.785  77.997  33.116  0.00  0.00    +0.039 A 
BRANCH  11  21
ATOM     17  C   LIG    1      -19.959  80.794  36.718  0.00  0.00    +0.067 C 
ATOM     18  C   LIG    1      -20.763  79.778  36.005  0.00  0.00    +0.056 A 
ATOM     19  N   LIG    1      -21.459  78.832  36.703  0.00  0.00    -0.241 NA
ATOM     20  C   LIG    1      -22.085  78.120  35.794  0.00  0.00    +0.204 A 
ATOM     21  N   LIG    1      -21.843  78.563  34.512  0.00  0.00    -0.306 N 
ATOM     22  C   LIG    1      -20.960  79.613  34.651  0.00  0.00    +0.115 A 
ENDBRANCH  11  21
BRANCH  13  23
ATOM     23  C   LIG    1      -21.137  76.630  29.988  0.00  0.00    +0.418 C 
ATOM     24  F   LIG    1      -20.397  75.562  30.398  0.00  0.00    -0.166 F 
ATOM     25  F   LIG    1      -20.237  77.584  29.623  0.00  0.00    -0.166 F 
ATOM     26  F   LIG    1      -21.760  76.238  28.846  0.00  0.00    -0.166 F 
ENDBRANCH  13  23
ENDBRANCH   7  15
ENDBRANCH   1   8
BRANCH   3  27
ATOM     27  N   LIG    1      -30.449  74.808  30.574  0.00  0.00    -0.314 N 
ATOM     28  H   LIG    1      -29.856  74.051  30.246  0.00  0.00    +0.152 HD
BRANCH  27  29
ATOM     29  C   LIG    1      -31.648  74.932  29.852  0.00  0.00    +0.033 A 
ATOM     30  C   LIG    1      -32.059  76.151  29.316  0.00  0.00    +0.047 A 
ATOM     31  C   LIG    1      -33.264  76.208  28.641  0.00  0.00    +0.046 A 
ATOM     32  N   LIG    1      -33.846  77.329  28.041  0.00  0.00    -0.265 N 
ATOM     33  C   LIG    1      -35.090  77.016  27.529  0.00  0.00    +0.252 C 
ATOM     34  O   LIG    1      -35.828  77.806  26.991  0.00  0.00    -0.270 OA
ATOM     35  C   LIG    1      -35.292  75.534  27.743  0.00  0.00    +0.048 C 
ATOM     36  C   LIG    1      -36.319  74.759  27.338  0.00  0.00    +0.039 C 
ATOM     37  C   LIG    1      -34.095  75.084  28.483  0.00  0.00    +0.009 A 
ATOM     38  C   LIG    1      -33.713  73.867  29.016  0.00  0.00    +0.012 A 
ATOM     39  C   LIG    1      -32.488  73.802  29.702  0.00  0.00    +0.024 A 
BRANCH  36  40
ATOM     40  C   LIG    1      -37.494  75.157  26.621  0.00  0.00    +0.040 A 
ATOM     41  N   LIG    1      -38.460  75.953  27.184  0.00  0.00    -0.361 N 
ATOM     42  H   LIG    1      -38.439  76.332  28.121  0.00  0.00    +0.165 HD
ATOM     43  C   LIG    1      -39.480  76.212  26.321  0.00  0.00    +0.083 A 
ATOM     44  C   LIG    1      -39.194  75.558  25.153  0.00  0.00    +0.019 A 
ATOM     45  C   LIG    1      -37.947  74.896  25.336  0.00  0.00    +0.027 A 
ENDBRANCH  36  40
BRANCH  32  46
ATOM     46  C   LIG    1      -33.342  78.688  28.063  0.00  0.00    +0.142 C 
BRANCH  46  47
ATOM     47  C   LIG    1      -32.248  78.971  27.017  0.00  0.00    +0.175 C 
BRANCH  47  48
ATOM     48  O   LIG    1      -32.577  78.596  25.686  0.00  0.00    -0.393 OA
ATOM     49  H   LIG    1      -33.231  79.236  25.340  0.00  0.00    +0.209 HD
ENDBRANCH  47  48
ENDBRANCH  46  47
ENDBRANCH  32  46
ENDBRANCH  27  29
ENDBRANCH   3  27
TORSDOF 10
ENDMDL
MODEL 2
REMARK VINA RESULT:      -7.6      7.442     12.451
REMARK  Name = modded_pdb/CHEMBL2037209_nitrogen_modded_with_ethanol_version_3.pdb
REMARK                            x       y       z     vdW  Elec       q    Type
REMARK                         _______ _______ _______ _____ _____    ______ ____
ROOT
ATOM      1  C   LIG    1      -38.246  74.291  25.118  0.00  0.00    +0.035 A 
ATOM      2  C   LIG    1      -38.419  72.908  24.906  0.00  0.00    +0.046 A 
ATOM      3  C   LIG    1      -39.540  72.400  24.234  0.00  0.00    +0.033 A 
ATOM      4  C   LIG    1      -40.532  73.304  23.844  0.00  0.00    +0.023 A 
ATOM      5  C   LIG    1      -40.386  74.677  24.070  0.00  0.00    +0.004 A 
ATOM      6  C   LIG    1      -39.237  75.173  24.691  0.00  0.00    +0.023 A 
ENDROOT
BRANCH   1   8
ATOM      7  C   LIG    1      -36.949  75.370  26.978  0.00  0.00    +0.248 C 
ATOM      8  N   LIG    1      -37.061  74.691  25.775  0.00  0.00    -0.281 N 
ATOM      9  H   LIG    1      -36.223  74.587  25.223  0.00  0.00    +0.155 HD
ATOM     10  O   LIG    1      -37.874  75.764  27.677  0.00  0.00    -0.270 OA
BRANCH   7  15
ATOM     11  C   LIG    1      -33.416  75.086  28.428  0.00  0.00    +0.049 A 
ATOM     12  C   LIG    1      -32.942  76.385  28.196  0.00  0.00    +0.038 A 
ATOM     13  C   LIG    1      -33.755  77.351  27.579  0.00  0.00    +0.057 A 
ATOM     14  C   LIG    1      -35.061  77.001  27.196  0.00  0.00    +0.025 A 
ATOM     15  C   LIG    1      -35.543  75.698  27.397  0.00  0.00    +0.040 A 
ATOM     16  C   LIG    1      -34.714  74.746  28.012  0.00  0.00    +0.039 A 
BRANCH  11  21
ATOM     17  C   LIG    1      -31.320  70.843  30.087  0.00  0.00    +0.067 C 
ATOM     18  C   LIG    1      -31.682  72.250  29.814  0.00  0.00    +0.056 A 
ATOM     19  N   LIG    1      -30.904  73.269  30.285  0.00  0.00    -0.241 NA
ATOM     20  C   LIG    1      -31.469  74.370  29.846  0.00  0.00    +0.204 A 
ATOM     21  N   LIG    1      -32.593  74.125  29.087  0.00  0.00    -0.306 N 
ATOM     22  C   LIG    1      -32.747  72.756  29.099  0.00  0.00    +0.115 A 
ENDBRANCH  11  21
BRANCH  13  23
ATOM     23  C   LIG    1      -33.205  78.740  27.345  0.00  0.00    +0.418 C 
ATOM     24  F   LIG    1      -32.626  78.859  26.117  0.00  0.00    -0.166 F 
ATOM     25  F   LIG    1      -32.238  79.070  28.244  0.00  0.00    -0.166 F 
ATOM     26  F   LIG    1      -34.142  79.721  27.415  0.00  0.00    -0.166 F 
ENDBRANCH  13  23
ENDBRANCH   7  15
ENDBRANCH   1   8
BRANCH   3  27
ATOM     27  N   LIG    1      -39.716  71.030  23.951  0.00  0.00    -0.314 N 
ATOM     28  H   LIG    1      -40.534  70.620  24.390  0.00  0.00    +0.152 HD
BRANCH  27  29
ATOM     29  C   LIG    1      -38.928  70.098  23.254  0.00  0.00    +0.033 A 
ATOM     30  C   LIG    1      -37.747  69.590  23.792  0.00  0.00    +0.047 A 
ATOM     31  C   LIG    1      -37.006  68.696  23.040  0.00  0.00    +0.046 A 
ATOM     32  N   LIG    1      -35.800  68.084  23.399  0.00  0.00    -0.265 N 
ATOM     33  C   LIG    1      -35.318  67.313  22.360  0.00  0.00    +0.252 C 
ATOM     34  O   LIG    1      -34.275  66.704  22.385  0.00  0.00    -0.270 OA
ATOM     35  C   LIG    1      -36.352  67.363  21.260  0.00  0.00    +0.048 C 
ATOM     36  C   LIG    1      -36.361  66.703  20.083  0.00  0.00    +0.039 C 
ATOM     37  C   LIG    1      -37.394  68.288  21.752  0.00  0.00    +0.009 A 
ATOM     38  C   LIG    1      -38.557  68.787  21.195  0.00  0.00    +0.012 A 
ATOM     39  C   LIG    1      -39.316  69.694  21.954  0.00  0.00    +0.024 A 
BRANCH  36  40
ATOM     40  C   LIG    1      -35.371  65.803  19.572  0.00  0.00    +0.040 A 
ATOM     41  N   LIG    1      -35.150  64.566  20.126  0.00  0.00    -0.361 N 
ATOM     42  H   LIG    1      -35.648  64.176  20.914  0.00  0.00    +0.165 HD
ATOM     43  C   LIG    1      -34.171  63.879  19.476  0.00  0.00    +0.083 A 
ATOM     44  C   LIG    1      -33.715  64.686  18.468  0.00  0.00    +0.019 A 
ATOM     45  C   LIG    1      -34.467  65.894  18.523  0.00  0.00    +0.027 A 
ENDBRANCH  36  40
BRANCH  32  46
ATOM     46  C   LIG    1      -35.034  68.314  24.609  0.00  0.00    +0.142 C 
BRANCH  46  47
ATOM     47  C   LIG    1      -35.217  67.229  25.685  0.00  0.00    +0.175 C 
BRANCH  47  48
ATOM     48  O   LIG    1      -34.500  66.023  25.452  0.00  0.00    -0.393 OA
ATOM     49  H   LIG    1      -35.091  65.271  25.654  0.00  0.00    +0.209 HD
ENDBRANCH  47  48
ENDBRANCH  46  47
ENDBRANCH  32  46
ENDBRANCH  27  29
ENDBRANCH   3  27
TORSDOF 10
ENDMDL
MODEL 3
REMARK VINA RESULT:      -7.4      2.992      4.097
REMARK  Name = modded_pdb/CHEMBL2037209_nitrogen_modded_with_ethanol_version_3.pdb
REMARK                            x       y       z     vdW  Elec       q    Type
REMARK                         _______ _______ _______ _____ _____    ______ ____
ROOT
ATOM      1  C   LIG    1      -26.605  76.822  33.644  0.00  0.00    +0.035 A 
ATOM      2  C   LIG    1      -27.280  76.969  32.416  0.00  0.00    +0.046 A 
ATOM      3  C   LIG    1      -28.616  76.574  32.257  0.00  0.00    +0.033 A 
ATOM      4  C   LIG    1      -29.245  75.950  33.339  0.00  0.00    +0.023 A 
ATOM      5  C   LIG    1      -28.579  75.775  34.556  0.00  0.00    +0.004 A 
ATOM      6  C   LIG    1      -27.266  76.225  34.716  0.00  0.00    +0.023 A 
ENDROOT
BRANCH   1   8
ATOM      7  C   LIG    1      -24.805  78.446  34.300  0.00  0.00    +0.248 C 
ATOM      8  N   LIG    1      -25.272  77.288  33.698  0.00  0.00    -0.281 N 
ATOM      9  H   LIG    1      -24.629  76.783  33.106  0.00  0.00    +0.155 HD
ATOM     10  O   LIG    1      -25.482  79.285  34.880  0.00  0.00    -0.270 OA
BRANCH   7  15
ATOM     11  C   LIG    1      -21.213  78.376  32.972  0.00  0.00    +0.049 A 
ATOM     12  C   LIG    1      -20.571  79.162  33.939  0.00  0.00    +0.038 A 
ATOM     13  C   LIG    1      -21.287  79.711  35.016  0.00  0.00    +0.057 A 
ATOM     14  C   LIG    1      -22.666  79.459  35.119  0.00  0.00    +0.025 A 
ATOM     15  C   LIG    1      -23.330  78.695  34.146  0.00  0.00    +0.040 A 
ATOM     16  C   LIG    1      -22.597  78.159  33.075  0.00  0.00    +0.039 A 
BRANCH  11  21
ATOM     17  C   LIG    1      -17.612  76.333  30.142  0.00  0.00    +0.067 C 
ATOM     18  C   LIG    1      -18.873  76.901  30.667  0.00  0.00    +0.056 A 
ATOM     19  N   LIG    1      -20.014  76.863  29.917  0.00  0.00    -0.241 NA
ATOM     20  C   LIG    1      -20.943  77.405  30.670  0.00  0.00    +0.204 A 
ATOM     21  N   LIG    1      -20.468  77.795  31.904  0.00  0.00    -0.306 N 
ATOM     22  C   LIG    1      -19.121  77.500  31.883  0.00  0.00    +0.115 A 
ENDBRANCH  11  21
BRANCH  13  23
ATOM     23  C   LIG    1      -20.557  80.555  36.036  0.00  0.00    +0.418 C 
ATOM     24  F   LIG    1      -19.251  80.188  36.160  0.00  0.00    -0.166 F 
ATOM     25  F   LIG    1      -21.094  80.437  37.282  0.00  0.00    -0.166 F 
ATOM     26  F   LIG    1      -20.550  81.882  35.749  0.00  0.00    -0.166 F 
ENDBRANCH  13  23
ENDBRANCH   7  15
ENDBRANCH   1   8
BRANCH   3  27
ATOM     27  N   LIG    1      -29.340  76.761  31.062  0.00  0.00    -0.314 N 
ATOM     28  H   LIG    1      -29.101  77.612  30.563  0.00  0.00    +0.152 HD
BRANCH  27  29
ATOM     29  C   LIG    1      -30.399  76.047  30.475  0.00  0.00    +0.033 A 
ATOM     30  C   LIG    1      -31.224  76.620  29.510  0.00  0.00    +0.047 A 
ATOM     31  C   LIG    1      -32.264  75.869  28.993  0.00  0.00    +0.046 A 
ATOM     32  N   LIG    1      -33.197  76.265  28.030  0.00  0.00    -0.265 N 
ATOM     33  C   LIG    1      -34.134  75.271  27.822  0.00  0.00    +0.252 C 
ATOM     34  O   LIG    1      -35.075  75.363  27.071  0.00  0.00    -0.270 OA
ATOM     35  C   LIG    1      -33.715  74.091  28.668  0.00  0.00    +0.048 C 
ATOM     36  C   LIG    1      -34.274  72.865  28.734  0.00  0.00    +0.039 C 
ATOM     37  C   LIG    1      -32.525  74.552  29.412  0.00  0.00    +0.009 A 
ATOM     38  C   LIG    1      -31.726  73.967  30.376  0.00  0.00    +0.012 A 
ATOM     39  C   LIG    1      -30.666  74.724  30.903  0.00  0.00    +0.024 A 
BRANCH  36  40
ATOM     40  C   LIG    1      -35.425  72.383  28.032  0.00  0.00    +0.040 A 
ATOM     41  N   LIG    1      -35.334  71.781  26.801  0.00  0.00    -0.361 N 
ATOM     42  H   LIG    1      -34.479  71.615  26.289  0.00  0.00    +0.165 HD
ATOM     43  C   LIG    1      -36.550  71.396  26.326  0.00  0.00    +0.083 A 
ATOM     44  C   LIG    1      -37.481  71.764  27.259  0.00  0.00    +0.019 A 
ATOM     45  C   LIG    1      -36.781  72.383  28.333  0.00  0.00    +0.027 A 
ENDBRANCH  36  40
BRANCH  32  46
ATOM     46  C   LIG    1      -33.315  77.575  27.419  0.00  0.00    +0.142 C 
BRANCH  46  47
ATOM     47  C   LIG    1      -32.210  77.894  26.395  0.00  0.00    +0.175 C 
BRANCH  47  48
ATOM     48  O   LIG    1      -32.440  79.053  25.605  0.00  0.00    -0.393 OA
ATOM     49  H   LIG    1      -32.308  78.815  24.666  0.00  0.00    +0.209 HD
ENDBRANCH  47  48
ENDBRANCH  46  47
ENDBRANCH  32  46
ENDBRANCH  27  29
ENDBRANCH   3  27
TORSDOF 10
ENDMDL
MODEL 4
REMARK VINA RESULT:      -7.3      8.616     13.092
REMARK  Name = modded_pdb/CHEMBL2037209_nitrogen_modded_with_ethanol_version_3.pdb
REMARK                            x       y       z     vdW  Elec       q    Type
REMARK                         _______ _______ _______ _____ _____    ______ ____
ROOT
ATOM      1  C   LIG    1      -38.679  73.379  24.907  0.00  0.00    +0.035 A 
ATOM      2  C   LIG    1      -38.746  72.009  24.584  0.00  0.00    +0.046 A 
ATOM      3  C   LIG    1      -39.793  71.483  23.814  0.00  0.00    +0.033 A 
ATOM      4  C   LIG    1      -40.823  72.349  23.436  0.00  0.00    +0.023 A 
ATOM      5  C   LIG    1      -40.782  73.707  23.770  0.00  0.00    +0.004 A 
ATOM      6  C   LIG    1      -39.704  74.226  24.489  0.00  0.00    +0.023 A 
ENDROOT
BRANCH   1   8
ATOM      7  C   LIG    1      -37.355  73.667  27.021  0.00  0.00    +0.248 C 
ATOM      8  N   LIG    1      -37.559  73.802  25.657  0.00  0.00    -0.281 N 
ATOM      9  H   LIG    1      -36.914  74.390  25.149  0.00  0.00    +0.155 HD
ATOM     10  O   LIG    1      -38.133  73.168  27.825  0.00  0.00    -0.270 OA
BRANCH   7  15
ATOM     11  C   LIG    1      -34.584  76.167  27.883  0.00  0.00    +0.049 A 
ATOM     12  C   LIG    1      -33.650  75.311  28.484  0.00  0.00    +0.038 A 
ATOM     13  C   LIG    1      -33.907  73.935  28.610  0.00  0.00    +0.057 A 
ATOM     14  C   LIG    1      -35.119  73.419  28.120  0.00  0.00    +0.025 A 
ATOM     15  C   LIG    1      -36.076  74.264  27.538  0.00  0.00    +0.040 A 
ATOM     16  C   LIG    1      -35.802  75.637  27.426  0.00  0.00    +0.039 A 
BRANCH  11  21
ATOM     17  C   LIG    1      -34.646  81.174  28.148  0.00  0.00    +0.067 C 
ATOM     18  C   LIG    1      -34.337  79.759  27.850  0.00  0.00    +0.056 A 
ATOM     19  N   LIG    1      -33.204  79.428  27.162  0.00  0.00    -0.241 NA
ATOM     20  C   LIG    1      -33.206  78.116  27.099  0.00  0.00    +0.204 A 
ATOM     21  N   LIG    1      -34.296  77.555  27.729  0.00  0.00    -0.306 N 
ATOM     22  C   LIG    1      -35.042  78.622  28.183  0.00  0.00    +0.115 A 
ENDBRANCH  11  21
BRANCH  13  23
ATOM     23  C   LIG    1      -32.874  73.047  29.266  0.00  0.00    +0.418 C 
ATOM     24  F   LIG    1      -32.912  71.775  28.779  0.00  0.00    -0.166 F 
ATOM     25  F   LIG    1      -33.069  72.935  30.609  0.00  0.00    -0.166 F 
ATOM     26  F   LIG    1      -31.595  73.475  29.102  0.00  0.00    -0.166 F 
ENDBRANCH  13  23
ENDBRANCH   7  15
ENDBRANCH   1   8
BRANCH   3  27
ATOM     27  N   LIG    1      -39.861  70.130  23.422  0.00  0.00    -0.314 N 
ATOM     28  H   LIG    1      -40.697  69.650  23.740  0.00  0.00    +0.152 HD
BRANCH  27  29
ATOM     29  C   LIG    1      -38.952  69.290  22.758  0.00  0.00    +0.033 A 
ATOM     30  C   LIG    1      -38.029  68.511  23.453  0.00  0.00    +0.047 A 
ATOM     31  C   LIG    1      -37.145  67.727  22.734  0.00  0.00    +0.046 A 
ATOM     32  N   LIG    1      -36.150  66.887  23.246  0.00  0.00    -0.265 N 
ATOM     33  C   LIG    1      -35.415  66.326  22.221  0.00  0.00    +0.252 C 
ATOM     34  O   LIG    1      -34.469  65.590  22.380  0.00  0.00    -0.270 OA
ATOM     35  C   LIG    1      -36.049  66.778  20.927  0.00  0.00    +0.048 C 
ATOM     36  C   LIG    1      -35.729  66.423  19.665  0.00  0.00    +0.039 C 
ATOM     37  C   LIG    1      -37.136  67.694  21.329  0.00  0.00    +0.009 A 
ATOM     38  C   LIG    1      -38.035  68.467  20.618  0.00  0.00    +0.012 A 
ATOM     39  C   LIG    1      -38.938  69.264  21.342  0.00  0.00    +0.024 A 
BRANCH  36  40
ATOM     40  C   LIG    1      -34.684  65.541  19.237  0.00  0.00    +0.040 A 
ATOM     41  N   LIG    1      -34.708  64.194  19.500  0.00  0.00    -0.361 N 
ATOM     42  H   LIG    1      -35.440  63.704  19.996  0.00  0.00    +0.165 HD
ATOM     43  C   LIG    1      -33.621  63.552  18.993  0.00  0.00    +0.083 A 
ATOM     44  C   LIG    1      -32.841  64.499  18.387  0.00  0.00    +0.019 A 
ATOM     45  C   LIG    1      -33.505  65.750  18.535  0.00  0.00    +0.027 A 
ENDBRANCH  36  40
BRANCH  32  46
ATOM     46  C   LIG    1      -35.788  66.716  24.639  0.00  0.00    +0.142 C 
BRANCH  46  47
ATOM     47  C   LIG    1      -34.605  67.590  25.095  0.00  0.00    +0.175 C 
BRANCH  47  48
ATOM     48  O   LIG    1      -34.588  68.906  24.559  0.00  0.00    -0.393 OA
ATOM     49  H   LIG    1      -35.511  69.221  24.491  0.00  0.00    +0.209 HD
ENDBRANCH  47  48
ENDBRANCH  46  47
ENDBRANCH  32  46
ENDBRANCH  27  29
ENDBRANCH   3  27
TORSDOF 10
ENDMDL
MODEL 5
REMARK VINA RESULT:      -7.1      7.163     11.740
REMARK  Name = modded_pdb/CHEMBL2037209_nitrogen_modded_with_ethanol_version_3.pdb
REMARK                            x       y       z     vdW  Elec       q    Type
REMARK                         _______ _______ _______ _____ _____    ______ ____
ROOT
ATOM      1  C   LIG    1      -38.153  76.307  25.059  0.00  0.00    +0.035 A 
ATOM      2  C   LIG    1      -38.762  77.552  24.810  0.00  0.00    +0.046 A 
ATOM      3  C   LIG    1      -40.028  77.648  24.215  0.00  0.00    +0.033 A 
ATOM      4  C   LIG    1      -40.645  76.464  23.800  0.00  0.00    +0.023 A 
ATOM      5  C   LIG    1      -40.041  75.222  24.018  0.00  0.00    +0.004 A 
ATOM      6  C   LIG    1      -38.804  75.140  24.663  0.00  0.00    +0.023 A 
ENDROOT
BRANCH   1   8
ATOM      7  C   LIG    1      -36.582  75.894  26.975  0.00  0.00    +0.248 C 
ATOM      8  N   LIG    1      -36.892  76.331  25.696  0.00  0.00    -0.281 N 
ATOM      9  H   LIG    1      -36.185  76.856  25.203  0.00  0.00    +0.155 HD
ATOM     10  O   LIG    1      -37.365  75.425  27.790  0.00  0.00    -0.270 OA
BRANCH   7  15
ATOM     11  C   LIG    1      -33.111  75.334  28.493  0.00  0.00    +0.049 A 
ATOM     12  C   LIG    1      -32.494  76.552  28.171  0.00  0.00    +0.038 A 
ATOM     13  C   LIG    1      -33.192  77.551  27.471  0.00  0.00    +0.057 A 
ATOM     14  C   LIG    1      -34.526  77.319  27.097  0.00  0.00    +0.025 A 
ATOM     15  C   LIG    1      -35.151  76.096  27.389  0.00  0.00    +0.040 A 
ATOM     16  C   LIG    1      -34.436  75.109  28.085  0.00  0.00    +0.039 A 
BRANCH  11  21
ATOM     17  C   LIG    1      -31.416  71.014  30.394  0.00  0.00    +0.067 C 
ATOM     18  C   LIG    1      -31.670  72.434  30.067  0.00  0.00    +0.056 A 
ATOM     19  N   LIG    1      -30.872  73.416  30.584  0.00  0.00    -0.241 NA
ATOM     20  C   LIG    1      -31.332  74.538  30.080  0.00  0.00    +0.204 A 
ATOM     21  N   LIG    1      -32.404  74.342  29.235  0.00  0.00    -0.306 N 
ATOM     22  C   LIG    1      -32.640  72.984  29.258  0.00  0.00    +0.115 A 
ENDBRANCH  11  21
BRANCH  13  23
ATOM     23  C   LIG    1      -32.490  78.849  27.141  0.00  0.00    +0.418 C 
ATOM     24  F   LIG    1      -32.152  78.925  25.824  0.00  0.00    -0.166 F 
ATOM     25  F   LIG    1      -31.325  78.996  27.831  0.00  0.00    -0.166 F 
ATOM     26  F   LIG    1      -33.230  79.957  27.404  0.00  0.00    -0.166 F 
ENDBRANCH  13  23
ENDBRANCH   7  15
ENDBRANCH   1   8
BRANCH   3  27
ATOM     27  N   LIG    1      -40.694  78.873  24.005  0.00  0.00    -0.314 N 
ATOM     28  H   LIG    1      -41.664  78.773  23.724  0.00  0.00    +0.152 HD
BRANCH  27  29
ATOM     29  C   LIG    1      -40.249  80.206  24.017  0.00  0.00    +0.033 A 
ATOM     30  C   LIG    1      -39.454  80.705  25.047  0.00  0.00    +0.047 A 
ATOM     31  C   LIG    1      -39.075  82.035  25.009  0.00  0.00    +0.046 A 
ATOM     32  N   LIG    1      -38.289  82.717  25.944  0.00  0.00    -0.265 N 
ATOM     33  C   LIG    1      -38.188  84.054  25.610  0.00  0.00    +0.252 C 
ATOM     34  O   LIG    1      -37.599  84.881  26.265  0.00  0.00    -0.270 OA
ATOM     35  C   LIG    1      -38.903  84.231  24.291  0.00  0.00    +0.048 C 
ATOM     36  C   LIG    1      -39.002  85.342  23.531  0.00  0.00    +0.039 C 
ATOM     37  C   LIG    1      -39.470  82.904  23.977  0.00  0.00    +0.009 A 
ATOM     38  C   LIG    1      -40.268  82.433  22.951  0.00  0.00    +0.012 A 
ATOM     39  C   LIG    1      -40.655  81.083  22.982  0.00  0.00    +0.024 A 
BRANCH  36  40
ATOM     40  C   LIG    1      -38.469  86.644  23.802  0.00  0.00    +0.040 A 
ATOM     41  N   LIG    1      -37.118  86.885  23.861  0.00  0.00    -0.361 N 
ATOM     42  H   LIG    1      -36.391  86.199  23.715  0.00  0.00    +0.165 HD
ATOM     43  C   LIG    1      -36.840  88.192  24.123  0.00  0.00    +0.083 A 
ATOM     44  C   LIG    1      -38.040  88.838  24.258  0.00  0.00    +0.019 A 
ATOM     45  C   LIG    1      -39.065  87.872  24.056  0.00  0.00    +0.027 A 
ENDBRANCH  36  40
BRANCH  32  46
ATOM     46  C   LIG    1      -37.765  82.192  27.189  0.00  0.00    +0.142 C 
BRANCH  46  47
ATOM     47  C   LIG    1      -36.241  81.976  27.190  0.00  0.00    +0.175 C 
BRANCH  47  48
ATOM     48  O   LIG    1      -35.475  83.087  27.637  0.00  0.00    -0.393 OA
ATOM     49  H   LIG    1      -35.302  82.975  28.592  0.00  0.00    +0.209 HD
ENDBRANCH  47  48
ENDBRANCH  46  47
ENDBRANCH  32  46
ENDBRANCH  27  29
ENDBRANCH   3  27
TORSDOF 10
ENDMDL
MODEL 6
REMARK VINA RESULT:      -7.1      2.736      3.727
REMARK  Name = modded_pdb/CHEMBL2037209_nitrogen_modded_with_ethanol_version_3.pdb
REMARK                            x       y       z     vdW  Elec       q    Type
REMARK                         _______ _______ _______ _____ _____    ______ ____
ROOT
ATOM      1  C   LIG    1      -27.873  76.791  33.452  0.00  0.00    +0.035 A 
ATOM      2  C   LIG    1      -28.189  76.437  32.126  0.00  0.00    +0.046 A 
ATOM      3  C   LIG    1      -29.411  75.835  31.793  0.00  0.00    +0.033 A 
ATOM      4  C   LIG    1      -30.287  75.520  32.836  0.00  0.00    +0.023 A 
ATOM      5  C   LIG    1      -29.977  75.843  34.161  0.00  0.00    +0.004 A 
ATOM      6  C   LIG    1      -28.780  76.493  34.469  0.00  0.00    +0.023 A 
ENDROOT
BRANCH   1   8
ATOM      7  C   LIG    1      -26.224  78.142  34.779  0.00  0.00    +0.248 C 
ATOM      8  N   LIG    1      -26.628  77.425  33.664  0.00  0.00    -0.281 N 
ATOM      9  H   LIG    1      -26.039  77.470  32.846  0.00  0.00    +0.155 HD
ATOM     10  O   LIG    1      -26.894  78.370  35.778  0.00  0.00    -0.270 OA
BRANCH   7  15
ATOM     11  C   LIG    1      -22.592  78.798  33.752  0.00  0.00    +0.049 A 
ATOM     12  C   LIG    1      -22.283  79.877  34.593  0.00  0.00    +0.038 A 
ATOM     13  C   LIG    1      -23.236  80.391  35.488  0.00  0.00    +0.057 A 
ATOM     14  C   LIG    1      -24.513  79.806  35.538  0.00  0.00    +0.025 A 
ATOM     15  C   LIG    1      -24.847  78.742  34.686  0.00  0.00    +0.040 A 
ATOM     16  C   LIG    1      -23.883  78.245  33.795  0.00  0.00    +0.039 A 
BRANCH  11  21
ATOM     17  C   LIG    1      -20.195  76.716  29.871  0.00  0.00    +0.067 C 
ATOM     18  C   LIG    1      -20.562  77.341  31.160  0.00  0.00    +0.056 A 
ATOM     19  N   LIG    1      -19.593  77.744  32.034  0.00  0.00    -0.241 NA
ATOM     20  C   LIG    1      -20.237  78.282  33.044  0.00  0.00    +0.204 A 
ATOM     21  N   LIG    1      -21.605  78.263  32.873  0.00  0.00    -0.306 N 
ATOM     22  C   LIG    1      -21.811  77.622  31.670  0.00  0.00    +0.115 A 
ENDBRANCH  11  21
BRANCH  13  23
ATOM     23  C   LIG    1      -22.863  81.557  36.376  0.00  0.00    +0.418 C 
ATOM     24  F   LIG    1      -23.313  82.742  35.877  0.00  0.00    -0.166 F 
ATOM     25  F   LIG    1      -21.515  81.697  36.504  0.00  0.00    -0.166 F 
ATOM     26  F   LIG    1      -23.358  81.469  37.638  0.00  0.00    -0.166 F 
ENDBRANCH  13  23
ENDBRANCH   7  15
ENDBRANCH   1   8
BRANCH   3  27
ATOM     27  N   LIG    1      -29.784  75.523  30.470  0.00  0.00    -0.314 N 
ATOM     28  H   LIG    1      -29.000  75.388  29.841  0.00  0.00    +0.152 HD
BRANCH  27  29
ATOM     29  C   LIG    1      -31.034  75.454  29.830  0.00  0.00    +0.033 A 
ATOM     30  C   LIG    1      -31.625  76.576  29.253  0.00  0.00    +0.047 A 
ATOM     31  C   LIG    1      -32.869  76.442  28.664  0.00  0.00    +0.046 A 
ATOM     32  N   LIG    1      -33.622  77.443  28.042  0.00  0.00    -0.265 N 
ATOM     33  C   LIG    1      -34.848  76.950  27.640  0.00  0.00    +0.252 C 
ATOM     34  O   LIG    1      -35.711  77.608  27.110  0.00  0.00    -0.270 OA
ATOM     35  C   LIG    1      -34.850  75.472  27.954  0.00  0.00    +0.048 C 
ATOM     36  C   LIG    1      -35.798  74.554  27.671  0.00  0.00    +0.039 C 
ATOM     37  C   LIG    1      -33.563  75.220  28.633  0.00  0.00    +0.009 A 
ATOM     38  C   LIG    1      -33.000  74.096  29.208  0.00  0.00    +0.012 A 
ATOM     39  C   LIG    1      -31.735  74.224  29.807  0.00  0.00    +0.024 A 
BRANCH  36  40
ATOM     40  C   LIG    1      -37.056  74.761  27.018  0.00  0.00    +0.040 A 
ATOM     41  N   LIG    1      -37.145  75.112  25.694  0.00  0.00    -0.361 N 
ATOM     42  H   LIG    1      -36.364  75.247  25.066  0.00  0.00    +0.165 HD
ATOM     43  C   LIG    1      -38.436  75.247  25.283  0.00  0.00    +0.083 A 
ATOM     44  C   LIG    1      -39.231  74.992  26.369  0.00  0.00    +0.019 A 
ATOM     45  C   LIG    1      -38.370  74.685  27.460  0.00  0.00    +0.027 A 
ENDBRANCH  36  40
BRANCH  32  46
ATOM     46  C   LIG    1      -33.289  78.851  27.947  0.00  0.00    +0.142 C 
BRANCH  46  47
ATOM     47  C   LIG    1      -32.165  79.167  26.943  0.00  0.00    +0.175 C 
BRANCH  47  48
ATOM     48  O   LIG    1      -32.395  78.705  25.618  0.00  0.00    -0.393 OA
ATOM     49  H   LIG    1      -33.093  79.259  25.217  0.00  0.00    +0.209 HD
ENDBRANCH  47  48
ENDBRANCH  46  47
ENDBRANCH  32  46
ENDBRANCH  27  29
ENDBRANCH   3  27
TORSDOF 10
ENDMDL
MODEL 7
REMARK VINA RESULT:      -7.1      2.128      2.696
REMARK  Name = modded_pdb/CHEMBL2037209_nitrogen_modded_with_ethanol_version_3.pdb
REMARK                            x       y       z     vdW  Elec       q    Type
REMARK                         _______ _______ _______ _____ _____    ______ ____
ROOT
ATOM      1  C   LIG    1      -27.214  76.677  32.945  0.00  0.00    +0.035 A 
ATOM      2  C   LIG    1      -27.960  76.762  31.753  0.00  0.00    +0.046 A 
ATOM      3  C   LIG    1      -29.352  76.598  31.741  0.00  0.00    +0.033 A 
ATOM      4  C   LIG    1      -29.980  76.266  32.946  0.00  0.00    +0.023 A 
ATOM      5  C   LIG    1      -29.249  76.153  34.132  0.00  0.00    +0.004 A 
ATOM      6  C   LIG    1      -27.869  76.375  34.138  0.00  0.00    +0.023 A 
ENDROOT
BRANCH   1   8
ATOM      7  C   LIG    1      -25.065  77.851  33.503  0.00  0.00    +0.248 C 
ATOM      8  N   LIG    1      -25.821  76.896  32.842  0.00  0.00    -0.281 N 
ATOM      9  H   LIG    1      -25.373  76.385  32.095  0.00  0.00    +0.155 HD
ATOM     10  O   LIG    1      -25.484  78.694  34.285  0.00  0.00    -0.270 OA
BRANCH   7  15
ATOM     11  C   LIG    1      -21.268  78.319  33.695  0.00  0.00    +0.049 A 
ATOM     12  C   LIG    1      -20.898  77.912  32.405  0.00  0.00    +0.038 A 
ATOM     13  C   LIG    1      -21.863  77.492  31.475  0.00  0.00    +0.057 A 
ATOM     14  C   LIG    1      -23.218  77.487  31.851  0.00  0.00    +0.025 A 
ATOM     15  C   LIG    1      -23.604  77.866  33.146  0.00  0.00    +0.040 A 
ATOM     16  C   LIG    1      -22.623  78.278  34.063  0.00  0.00    +0.039 A 
BRANCH  11  21
ATOM     17  C   LIG    1      -17.022  79.064  36.256  0.00  0.00    +0.067 C 
ATOM     18  C   LIG    1      -18.407  79.092  35.740  0.00  0.00    +0.056 A 
ATOM     19  N   LIG    1      -19.305  80.005  36.218  0.00  0.00    -0.241 NA
ATOM     20  C   LIG    1      -20.410  79.793  35.540  0.00  0.00    +0.204 A 
ATOM     21  N   LIG    1      -20.282  78.777  34.618  0.00  0.00    -0.306 N 
ATOM     22  C   LIG    1      -18.997  78.304  34.775  0.00  0.00    +0.115 A 
ENDBRANCH  11  21
BRANCH  13  23
ATOM     23  C   LIG    1      -21.422  77.060  30.095  0.00  0.00    +0.418 C 
ATOM     24  F   LIG    1      -22.420  77.192  29.176  0.00  0.00    -0.166 F 
ATOM     25  F   LIG    1      -21.055  75.749  30.057  0.00  0.00    -0.166 F 
ATOM     26  F   LIG    1      -20.367  77.765  29.609  0.00  0.00    -0.166 F 
ENDBRANCH  13  23
ENDBRANCH   7  15
ENDBRANCH   1   8
BRANCH   3  27
ATOM     27  N   LIG    1      -30.138  76.736  30.579  0.00  0.00    -0.314 N 
ATOM     28  H   LIG    1      -30.025  77.629  30.108  0.00  0.00    +0.152 HD
BRANCH  27  29
ATOM     29  C   LIG    1      -31.119  75.916  29.995  0.00  0.00    +0.033 A 
ATOM     30  C   LIG    1      -32.282  76.446  29.439  0.00  0.00    +0.047 A 
ATOM     31  C   LIG    1      -33.218  75.579  28.906  0.00  0.00    +0.046 A 
ATOM     32  N   LIG    1      -34.439  75.913  28.313  0.00  0.00    -0.265 N 
ATOM     33  C   LIG    1      -35.140  74.774  27.969  0.00  0.00    +0.252 C 
ATOM     34  O   LIG    1      -36.243  74.771  27.475  0.00  0.00    -0.270 OA
ATOM     35  C   LIG    1      -34.250  73.597  28.292  0.00  0.00    +0.048 C 
ATOM     36  C   LIG    1      -34.470  72.287  28.056  0.00  0.00    +0.039 C 
ATOM     37  C   LIG    1      -33.045  74.183  28.913  0.00  0.00    +0.009 A 
ATOM     38  C   LIG    1      -31.904  73.635  29.469  0.00  0.00    +0.012 A 
ATOM     39  C   LIG    1      -30.947  74.511  30.010  0.00  0.00    +0.024 A 
BRANCH  36  40
ATOM     40  C   LIG    1      -35.623  71.682  27.459  0.00  0.00    +0.040 A 
ATOM     41  N   LIG    1      -36.002  71.946  26.166  0.00  0.00    -0.361 N 
ATOM     42  H   LIG    1      -35.521  72.562  25.525  0.00  0.00    +0.165 HD
ATOM     43  C   LIG    1      -37.119  71.256  25.806  0.00  0.00    +0.083 A 
ATOM     44  C   LIG    1      -37.506  70.522  26.896  0.00  0.00    +0.019 A 
ATOM     45  C   LIG    1      -36.569  70.784  27.935  0.00  0.00    +0.027 A 
ENDBRANCH  36  40
BRANCH  32  46
ATOM     46  C   LIG    1      -35.016  77.238  28.196  0.00  0.00    +0.142 C 
BRANCH  46  47
ATOM     47  C   LIG    1      -35.830  77.682  29.425  0.00  0.00    +0.175 C 
BRANCH  47  48
ATOM     48  O   LIG    1      -36.935  76.847  29.749  0.00  0.00    -0.393 OA
ATOM     49  H   LIG    1      -36.589  75.980  30.040  0.00  0.00    +0.209 HD
ENDBRANCH  47  48
ENDBRANCH  46  47
ENDBRANCH  32  46
ENDBRANCH  27  29
ENDBRANCH   3  27
TORSDOF 10
ENDMDL
MODEL 8
REMARK VINA RESULT:      -7.1      1.581      2.494
REMARK  Name = modded_pdb/CHEMBL2037209_nitrogen_modded_with_ethanol_version_3.pdb
REMARK                            x       y       z     vdW  Elec       q    Type
REMARK                         _______ _______ _______ _____ _____    ______ ____
ROOT
ATOM      1  C   LIG    1      -27.860  76.723  32.731  0.00  0.00    +0.035 A 
ATOM      2  C   LIG    1      -28.413  75.952  31.689  0.00  0.00    +0.046 A 
ATOM      3  C   LIG    1      -29.789  75.699  31.609  0.00  0.00    +0.033 A 
ATOM      4  C   LIG    1      -30.601  76.172  32.645  0.00  0.00    +0.023 A 
ATOM      5  C   LIG    1      -30.063  76.918  33.698  0.00  0.00    +0.004 A 
ATOM      6  C   LIG    1      -28.697  77.209  33.734  0.00  0.00    +0.023 A 
ENDROOT
BRANCH   1   8
ATOM      7  C   LIG    1      -25.741  77.596  31.704  0.00  0.00    +0.248 C 
ATOM      8  N   LIG    1      -26.465  76.944  32.690  0.00  0.00    -0.281 N 
ATOM      9  H   LIG    1      -25.942  76.440  33.391  0.00  0.00    +0.155 HD
ATOM     10  O   LIG    1      -26.192  78.083  30.675  0.00  0.00    -0.270 OA
BRANCH   7  15
ATOM     11  C   LIG    1      -22.292  78.255  33.235  0.00  0.00    +0.049 A 
ATOM     12  C   LIG    1      -21.467  77.698  32.248  0.00  0.00    +0.038 A 
ATOM     13  C   LIG    1      -22.015  77.114  31.093  0.00  0.00    +0.057 A 
ATOM     14  C   LIG    1      -23.411  77.099  30.932  0.00  0.00    +0.025 A 
ATOM     15  C   LIG    1      -24.253  77.629  31.921  0.00  0.00    +0.040 A 
ATOM     16  C   LIG    1      -23.687  78.203  33.070  0.00  0.00    +0.039 A 
BRANCH  11  21
ATOM     17  C   LIG    1      -21.532  80.259  37.768  0.00  0.00    +0.067 C 
ATOM     18  C   LIG    1      -21.402  79.760  36.383  0.00  0.00    +0.056 A 
ATOM     19  N   LIG    1      -20.181  79.730  35.770  0.00  0.00    -0.241 NA
ATOM     20  C   LIG    1      -20.399  79.208  34.585  0.00  0.00    +0.204 A 
ATOM     21  N   LIG    1      -21.722  78.876  34.385  0.00  0.00    -0.306 N 
ATOM     22  C   LIG    1      -22.372  79.267  35.537  0.00  0.00    +0.115 A 
ENDBRANCH  11  21
BRANCH  13  23
ATOM     23  C   LIG    1      -21.091  76.523  30.053  0.00  0.00    +0.418 C 
ATOM     24  F   LIG    1      -21.752  76.201  28.906  0.00  0.00    -0.166 F 
ATOM     25  F   LIG    1      -20.507  75.369  30.479  0.00  0.00    -0.166 F 
ATOM     26  F   LIG    1      -20.077  77.348  29.684  0.00  0.00    -0.166 F 
ENDBRANCH  13  23
ENDBRANCH   7  15
ENDBRANCH   1   8
BRANCH   3  27
ATOM     27  N   LIG    1      -30.383  74.983  30.549  0.00  0.00    -0.314 N 
ATOM     28  H   LIG    1      -29.805  74.234  30.182  0.00  0.00    +0.152 HD
BRANCH  27  29
ATOM     29  C   LIG    1      -31.583  75.164  29.840  0.00  0.00    +0.033 A 
ATOM     30  C   LIG    1      -32.518  74.139  29.706  0.00  0.00    +0.047 A 
ATOM     31  C   LIG    1      -33.665  74.377  28.971  0.00  0.00    +0.046 A 
ATOM     32  N   LIG    1      -34.710  73.483  28.720  0.00  0.00    -0.265 N 
ATOM     33  C   LIG    1      -35.647  74.054  27.881  0.00  0.00    +0.252 C 
ATOM     34  O   LIG    1      -36.634  73.489  27.472  0.00  0.00    -0.270 OA
ATOM     35  C   LIG    1      -35.208  75.479  27.639  0.00  0.00    +0.048 C 
ATOM     36  C   LIG    1      -35.845  76.449  26.951  0.00  0.00    +0.039 C 
ATOM     37  C   LIG    1      -33.918  75.611  28.345  0.00  0.00    +0.009 A 
ATOM     38  C   LIG    1      -32.999  76.638  28.455  0.00  0.00    +0.012 A 
ATOM     39  C   LIG    1      -31.833  76.403  29.203  0.00  0.00    +0.024 A 
BRANCH  36  40
ATOM     40  C   LIG    1      -37.093  76.358  26.253  0.00  0.00    +0.040 A 
ATOM     41  N   LIG    1      -38.295  76.266  26.911  0.00  0.00    -0.361 N 
ATOM     42  H   LIG    1      -38.419  76.262  27.914  0.00  0.00    +0.165 HD
ATOM     43  C   LIG    1      -39.348  76.199  26.051  0.00  0.00    +0.083 A 
ATOM     44  C   LIG    1      -38.834  76.233  24.782  0.00  0.00    +0.019 A 
ATOM     45  C   LIG    1      -37.419  76.334  24.904  0.00  0.00    +0.027 A 
ENDBRANCH  36  40
BRANCH  32  46
ATOM     46  C   LIG    1      -34.778  72.091  29.118  0.00  0.00    +0.142 C 
BRANCH  46  47
ATOM     47  C   LIG    1      -34.168  71.112  28.098  0.00  0.00    +0.175 C 
BRANCH  47  48
ATOM     48  O   LIG    1      -34.530  71.351  26.745  0.00  0.00    -0.393 OA
ATOM     49  H   LIG    1      -35.467  71.098  26.628  0.00  0.00    +0.209 HD
ENDBRANCH  47  48
ENDBRANCH  46  47
ENDBRANCH  32  46
ENDBRANCH  27  29
ENDBRANCH   3  27
TORSDOF 10
ENDMDL
MODEL 9
REMARK VINA RESULT:      -7.1     10.705     15.362
REMARK  Name = modded_pdb/CHEMBL2037209_nitrogen_modded_with_ethanol_version_3.pdb
REMARK                            x       y       z     vdW  Elec       q    Type
REMARK                         _______ _______ _______ _____ _____    ______ ____
ROOT
ATOM      1  C   LIG    1      -39.514  78.917  24.633  0.00  0.00    +0.035 A 
ATOM      2  C   LIG    1      -39.282  79.486  25.901  0.00  0.00    +0.046 A 
ATOM      3  C   LIG    1      -39.192  80.873  26.081  0.00  0.00    +0.033 A 
ATOM      4  C   LIG    1      -39.261  81.685  24.945  0.00  0.00    +0.023 A 
ATOM      5  C   LIG    1      -39.466  81.133  23.677  0.00  0.00    +0.004 A 
ATOM      6  C   LIG    1      -39.610  79.752  23.520  0.00  0.00    +0.023 A 
ENDROOT
BRANCH   1   8
ATOM      7  C   LIG    1      -38.599  76.579  24.665  0.00  0.00    +0.248 C 
ATOM      8  N   LIG    1      -39.622  77.509  24.576  0.00  0.00    -0.281 N 
ATOM      9  H   LIG    1      -40.532  77.172  24.298  0.00  0.00    +0.155 HD
ATOM     10  O   LIG    1      -37.405  76.822  24.789  0.00  0.00    -0.270 OA
BRANCH   7  15
ATOM     11  C   LIG    1      -38.609  72.750  24.754  0.00  0.00    +0.049 A 
ATOM     12  C   LIG    1      -39.865  72.487  24.189  0.00  0.00    +0.038 A 
ATOM     13  C   LIG    1      -40.706  73.535  23.778  0.00  0.00    +0.057 A 
ATOM     14  C   LIG    1      -40.270  74.862  23.935  0.00  0.00    +0.025 A 
ATOM     15  C   LIG    1      -39.027  75.144  24.522  0.00  0.00    +0.040 A 
ATOM     16  C   LIG    1      -38.203  74.083  24.931  0.00  0.00    +0.039 A 
BRANCH  11  21
ATOM     17  C   LIG    1      -36.286  69.069  27.245  0.00  0.00    +0.067 C 
ATOM     18  C   LIG    1      -36.733  70.061  26.244  0.00  0.00    +0.056 A 
ATOM     19  N   LIG    1      -36.240  70.029  24.970  0.00  0.00    -0.241 NA
ATOM     20  C   LIG    1      -36.855  71.000  24.335  0.00  0.00    +0.204 A 
ATOM     21  N   LIG    1      -37.751  71.676  25.135  0.00  0.00    -0.306 N 
ATOM     22  C   LIG    1      -37.643  71.088  26.377  0.00  0.00    +0.115 A 
ENDBRANCH  11  21
BRANCH  13  23
ATOM     23  C   LIG    1      -42.053  73.210  23.175  0.00  0.00    +0.418 C 
ATOM     24  F   LIG    1      -42.904  72.669  24.091  0.00  0.00    -0.166 F 
ATOM     25  F   LIG    1      -41.962  72.295  22.170  0.00  0.00    -0.166 F 
ATOM     26  F   LIG    1      -42.698  74.286  22.653  0.00  0.00    -0.166 F 
ENDBRANCH  13  23
ENDBRANCH   7  15
ENDBRANCH   1   8
BRANCH   3  27
ATOM     27  N   LIG    1      -39.021  81.480  27.343  0.00  0.00    -0.314 N 
ATOM     28  H   LIG    1      -39.847  81.446  27.932  0.00  0.00    +0.152 HD
BRANCH  27  29
ATOM     29  C   LIG    1      -37.959  82.206  27.908  0.00  0.00    +0.033 A 
ATOM     30  C   LIG    1      -37.621  83.481  27.459  0.00  0.00    +0.047 A 
ATOM     31  C   LIG    1      -36.546  84.127  28.043  0.00  0.00    +0.046 A 
ATOM     32  N   LIG    1      -36.052  85.398  27.729  0.00  0.00    -0.265 N 
ATOM     33  C   LIG    1      -34.919  85.674  28.470  0.00  0.00    +0.252 C 
ATOM     34  O   LIG    1      -34.268  86.687  28.372  0.00  0.00    -0.270 OA
ATOM     35  C   LIG    1      -34.715  84.510  29.410  0.00  0.00    +0.048 C 
ATOM     36  C   LIG    1      -33.787  84.364  30.378  0.00  0.00    +0.039 C 
ATOM     37  C   LIG    1      -35.777  83.543  29.064  0.00  0.00    +0.009 A 
ATOM     38  C   LIG    1      -36.087  82.275  29.518  0.00  0.00    +0.012 A 
ATOM     39  C   LIG    1      -37.180  81.613  28.931  0.00  0.00    +0.024 A 
BRANCH  36  40
ATOM     40  C   LIG    1      -32.743  85.276  30.741  0.00  0.00    +0.040 A 
ATOM     41  N   LIG    1      -32.809  86.055  31.869  0.00  0.00    -0.361 N 
ATOM     42  H   LIG    1      -33.566  86.058  32.538  0.00  0.00    +0.165 HD
ATOM     43  C   LIG    1      -31.706  86.838  32.020  0.00  0.00    +0.083 A 
ATOM     44  C   LIG    1      -30.885  86.585  30.953  0.00  0.00    +0.019 A 
ATOM     45  C   LIG    1      -31.531  85.604  30.148  0.00  0.00    +0.027 A 
ENDBRANCH  36  40
BRANCH  32  46
ATOM     46  C   LIG    1      -36.518  86.278  26.676  0.00  0.00    +0.142 C 
BRANCH  46  47
ATOM     47  C   LIG    1      -36.079  85.855  25.262  0.00  0.00    +0.175 C 
BRANCH  47  48
ATOM     48  O   LIG    1      -34.735  85.406  25.158  0.00  0.00    -0.393 OA
ATOM     49  H   LIG    1      -34.730  84.431  25.240  0.00  0.00    +0.209 HD
ENDBRANCH  47  48
ENDBRANCH  46  47
ENDBRANCH  32  46
ENDBRANCH  27  29
ENDBRANCH   3  27
TORSDOF 10
ENDMDL
