MODEL 1
REMARK VINA RESULT:      -6.8      0.000      0.000
REMARK  Name = pdb/CHEMBL3895402.pdb
REMARK                            x       y       z     vdW  Elec       q    Type
REMARK                         _______ _______ _______ _____ _____    ______ ____
ROOT
ATOM      1  C   LIG    1      -35.680  85.291  27.045  0.00  0.00    +0.149 A 
ATOM      2  N   LIG    1      -34.634  86.062  27.397  0.00  0.00    -0.160 NA
ATOM      3  N   LIG    1      -34.349  85.718  28.687  0.00  0.00    -0.218 N 
ATOM      4  C   LIG    1      -35.200  84.695  29.118  0.00  0.00    +0.129 A 
ATOM      5  C   LIG    1      -36.008  84.364  28.061  0.00  0.00    +0.078 A 
ENDROOT
BRANCH   3   6
ATOM      6  C   LIG    1      -33.215  86.294  29.349  0.00  0.00    +0.067 A 
ATOM      7  C   LIG    1      -33.090  87.691  29.416  0.00  0.00    +0.028 A 
ATOM      8  C   LIG    1      -31.963  88.276  30.005  0.00  0.00    +0.002 A 
ATOM      9  C   LIG    1      -30.950  87.479  30.529  0.00  0.00    +0.000 A 
ATOM     10  C   LIG    1      -31.058  86.095  30.463  0.00  0.00    +0.002 A 
ATOM     11  C   LIG    1      -32.181  85.504  29.878  0.00  0.00    +0.028 A 
ENDBRANCH   3   6
BRANCH   4  12
ATOM     12  N   LIG    1      -35.281  84.144  30.393  0.00  0.00    -0.266 N 
ATOM     13  H   LIG    1      -34.954  84.721  31.163  0.00  0.00    +0.157 HD
ATOM     14  C   LIG    1      -35.865  82.894  30.795  0.00  0.00    +0.251 C 
ATOM     15  O   LIG    1      -36.058  82.799  32.011  0.00  0.00    -0.270 OA
BRANCH  14  16
ATOM     16  C   LIG    1      -36.196  81.802  29.865  0.00  0.00    +0.056 A 
ATOM     17  C   LIG    1      -37.477  81.531  29.349  0.00  0.00    +0.056 A 
ATOM     18 CL   LIG    1      -38.791  82.640  29.405  0.00  0.00    -0.083 Cl
ATOM     19  C   LIG    1      -37.703  80.390  28.586  0.00  0.00    +0.059 A 
ATOM     20  C   LIG    1      -36.635  79.602  28.177  0.00  0.00    +0.134 A 
ATOM     21  F   LIG    1      -36.919  78.542  27.410  0.00  0.00    -0.205 F 
ATOM     22  C   LIG    1      -35.312  79.923  28.508  0.00  0.00    +0.036 A 
ATOM     23  C   LIG    1      -35.123  81.013  29.383  0.00  0.00    +0.027 A 
BRANCH  22  24
ATOM     24  C   LIG    1      -34.166  79.156  27.974  0.00  0.00    +0.074 A 
ATOM     25  N   LIG    1      -33.527  79.726  26.922  0.00  0.00    -0.255 NA
ATOM     26  C   LIG    1      -32.460  79.070  26.404  0.00  0.00    +0.111 A 
ATOM     27  C   LIG    1      -31.994  77.854  26.873  0.00  0.00    +0.020 A 
ATOM     28  C   LIG    1      -32.662  77.269  27.936  0.00  0.00    +0.004 A 
ATOM     29  C   LIG    1      -33.761  77.923  28.490  0.00  0.00    +0.028 A 
ENDBRANCH  22  24
ENDBRANCH  14  16
ENDBRANCH   4  12
BRANCH   1  31
ATOM     30  N   LIG    1      -37.465  85.049  25.452  0.00  0.00    -0.241 NA
ATOM     31  C   LIG    1      -36.272  85.451  25.721  0.00  0.00    +0.236 C 
BRANCH  30  33
ATOM     32  C   LIG    1      -38.820  86.460  23.904  0.00  0.00    +0.038 C 
ATOM     33  C   LIG    1      -37.924  85.212  24.050  0.00  0.00    +0.139 C 
BRANCH  33  34
ATOM     34  C   LIG    1      -38.605  83.962  23.513  0.00  0.00    +0.013 A 
ATOM     35  C   LIG    1      -38.545  82.735  24.157  0.00  0.00    +0.119 A 
ATOM     36  N   LIG    1      -39.207  81.623  23.769  0.00  0.00    -0.243 NA
ATOM     37  C   LIG    1      -39.979  81.757  22.685  0.00  0.00    +0.221 A 
ATOM     38  N   LIG    1      -40.135  82.881  21.973  0.00  0.00    -0.243 NA
ATOM     39  C   LIG    1      -39.442  83.959  22.411  0.00  0.00    +0.119 A 
ENDBRANCH  33  34
ENDBRANCH  30  33
BRANCH  31  40
ATOM     40  O   LIG    1      -35.449  86.053  24.832  0.00  0.00    -0.491 OA
ATOM     41  H   LIG    1      -34.615  86.294  25.286  0.00  0.00    +0.294 HD
ENDBRANCH  31  40
ENDBRANCH   1  31
TORSDOF 8
ENDMDL
MODEL 2
REMARK VINA RESULT:      -6.8      9.340     12.754
REMARK  Name = pdb/CHEMBL3895402.pdb
REMARK                            x       y       z     vdW  Elec       q    Type
REMARK                         _______ _______ _______ _____ _____    ______ ____
ROOT
ATOM      1  C   LIG    1      -29.284  75.811  31.711  0.00  0.00    +0.149 A 
ATOM      2  N   LIG    1      -28.214  76.406  31.151  0.00  0.00    -0.160 NA
ATOM      3  N   LIG    1      -27.130  75.883  31.796  0.00  0.00    -0.218 N 
ATOM      4  C   LIG    1      -27.536  74.927  32.733  0.00  0.00    +0.129 A 
ATOM      5  C   LIG    1      -28.899  74.819  32.642  0.00  0.00    +0.078 A 
ENDROOT
BRANCH   3   6
ATOM      6  C   LIG    1      -25.806  76.239  31.378  0.00  0.00    +0.067 A 
ATOM      7  C   LIG    1      -25.486  77.591  31.172  0.00  0.00    +0.028 A 
ATOM      8  C   LIG    1      -24.218  77.959  30.707  0.00  0.00    +0.002 A 
ATOM      9  C   LIG    1      -23.259  76.987  30.440  0.00  0.00    +0.000 A 
ATOM     10  C   LIG    1      -23.564  75.644  30.633  0.00  0.00    +0.002 A 
ATOM     11  C   LIG    1      -24.828  75.271  31.098  0.00  0.00    +0.028 A 
ENDBRANCH   3   6
BRANCH   4  12
ATOM     12  N   LIG    1      -26.736  74.246  33.646  0.00  0.00    -0.266 N 
ATOM     13  H   LIG    1      -26.878  73.242  33.721  0.00  0.00    +0.157 HD
ATOM     14  C   LIG    1      -25.648  74.752  34.437  0.00  0.00    +0.251 C 
ATOM     15  O   LIG    1      -24.935  73.872  34.929  0.00  0.00    -0.270 OA
BRANCH  14  16
ATOM     16  C   LIG    1      -25.394  76.183  34.670  0.00  0.00    +0.056 A 
ATOM     17  C   LIG    1      -26.342  77.114  35.133  0.00  0.00    +0.056 A 
ATOM     18 CL   LIG    1      -27.836  76.682  35.868  0.00  0.00    -0.083 Cl
ATOM     19  C   LIG    1      -26.031  78.470  35.186  0.00  0.00    +0.059 A 
ATOM     20  C   LIG    1      -24.730  78.896  34.952  0.00  0.00    +0.134 A 
ATOM     21  F   LIG    1      -24.492  80.209  35.060  0.00  0.00    -0.205 F 
ATOM     22  C   LIG    1      -23.699  77.994  34.664  0.00  0.00    +0.036 A 
ATOM     23  C   LIG    1      -24.066  76.642  34.495  0.00  0.00    +0.027 A 
BRANCH  22  24
ATOM     24  C   LIG    1      -22.292  78.431  34.534  0.00  0.00    +0.074 A 
ATOM     25  N   LIG    1      -21.719  78.887  35.675  0.00  0.00    -0.255 NA
ATOM     26  C   LIG    1      -20.426  79.287  35.613  0.00  0.00    +0.111 A 
ATOM     27  C   LIG    1      -19.664  79.272  34.459  0.00  0.00    +0.020 A 
ATOM     28  C   LIG    1      -20.260  78.823  33.292  0.00  0.00    +0.004 A 
ATOM     29  C   LIG    1      -21.588  78.402  33.327  0.00  0.00    +0.028 A 
ENDBRANCH  22  24
ENDBRANCH  14  16
ENDBRANCH   4  12
BRANCH   1  31
ATOM     30  N   LIG    1      -31.034  75.996  30.072  0.00  0.00    -0.241 NA
ATOM     31  C   LIG    1      -30.623  76.193  31.276  0.00  0.00    +0.236 C 
BRANCH  30  33
ATOM     32  C   LIG    1      -33.396  75.323  29.637  0.00  0.00    +0.038 C 
ATOM     33  C   LIG    1      -32.393  76.491  29.740  0.00  0.00    +0.139 C 
BRANCH  33  34
ATOM     34  C   LIG    1      -32.407  77.359  28.491  0.00  0.00    +0.013 A 
ATOM     35  C   LIG    1      -31.766  76.998  27.315  0.00  0.00    +0.119 A 
ATOM     36  N   LIG    1      -31.828  77.688  26.156  0.00  0.00    -0.243 NA
ATOM     37  C   LIG    1      -32.582  78.793  26.179  0.00  0.00    +0.221 A 
ATOM     38  N   LIG    1      -33.258  79.253  27.240  0.00  0.00    -0.243 NA
ATOM     39  C   LIG    1      -33.153  78.517  28.372  0.00  0.00    +0.119 A 
ENDBRANCH  33  34
ENDBRANCH  30  33
BRANCH  31  40
ATOM     40  O   LIG    1      -31.364  76.765  32.253  0.00  0.00    -0.491 OA
ATOM     41  H   LIG    1      -31.031  76.460  33.122  0.00  0.00    +0.294 HD
ENDBRANCH  31  40
ENDBRANCH   1  31
TORSDOF 8
ENDMDL
MODEL 3
REMARK VINA RESULT:      -6.8      4.553      8.524
REMARK  Name = pdb/CHEMBL3895402.pdb
REMARK                            x       y       z     vdW  Elec       q    Type
REMARK                         _______ _______ _______ _____ _____    ______ ____
ROOT
ATOM      1  C   LIG    1      -34.523  83.922  30.238  0.00  0.00    +0.149 A 
ATOM      2  N   LIG    1      -33.571  83.642  31.148  0.00  0.00    -0.160 NA
ATOM      3  N   LIG    1      -33.551  84.714  31.993  0.00  0.00    -0.218 N 
ATOM      4  C   LIG    1      -34.530  85.643  31.623  0.00  0.00    +0.129 A 
ATOM      5  C   LIG    1      -35.202  85.122  30.550  0.00  0.00    +0.078 A 
ENDROOT
BRANCH   3   6
ATOM      6  C   LIG    1      -32.701  84.702  33.147  0.00  0.00    +0.067 A 
ATOM      7  C   LIG    1      -31.313  84.562  32.982  0.00  0.00    +0.028 A 
ATOM      8  C   LIG    1      -30.469  84.488  34.095  0.00  0.00    +0.002 A 
ATOM      9  C   LIG    1      -30.996  84.550  35.382  0.00  0.00    +0.000 A 
ATOM     10  C   LIG    1      -32.368  84.681  35.560  0.00  0.00    +0.002 A 
ATOM     11  C   LIG    1      -33.217  84.756  34.452  0.00  0.00    +0.028 A 
ENDBRANCH   3   6
BRANCH   4  12
ATOM     12  N   LIG    1      -34.755  86.899  32.180  0.00  0.00    -0.266 N 
ATOM     13  H   LIG    1      -35.708  87.111  32.461  0.00  0.00    +0.157 HD
ATOM     14  C   LIG    1      -33.797  87.917  32.512  0.00  0.00    +0.251 C 
ATOM     15  O   LIG    1      -34.240  88.797  33.258  0.00  0.00    -0.270 OA
BRANCH  14  16
ATOM     16  C   LIG    1      -32.414  87.943  32.011  0.00  0.00    +0.056 A 
ATOM     17  C   LIG    1      -32.038  87.948  30.656  0.00  0.00    +0.056 A 
ATOM     18 CL   LIG    1      -33.111  88.309  29.361  0.00  0.00    -0.083 Cl
ATOM     19  C   LIG    1      -30.699  87.833  30.295  0.00  0.00    +0.059 A 
ATOM     20  C   LIG    1      -29.707  87.892  31.266  0.00  0.00    +0.134 A 
ATOM     21  F   LIG    1      -28.439  87.817  30.846  0.00  0.00    -0.205 F 
ATOM     22  C   LIG    1      -30.013  88.070  32.622  0.00  0.00    +0.036 A 
ATOM     23  C   LIG    1      -31.379  88.059  32.972  0.00  0.00    +0.027 A 
BRANCH  22  24
ATOM     24  C   LIG    1      -28.958  88.254  33.642  0.00  0.00    +0.074 A 
ATOM     25  N   LIG    1      -28.863  89.504  34.159  0.00  0.00    -0.255 NA
ATOM     26  C   LIG    1      -27.921  89.722  35.108  0.00  0.00    +0.111 A 
ATOM     27  C   LIG    1      -27.046  88.754  35.569  0.00  0.00    +0.020 A 
ATOM     28  C   LIG    1      -27.136  87.484  35.025  0.00  0.00    +0.004 A 
ATOM     29  C   LIG    1      -28.097  87.231  34.049  0.00  0.00    +0.028 A 
ENDBRANCH  22  24
ENDBRANCH  14  16
ENDBRANCH   4  12
BRANCH   1  31
ATOM     30  N   LIG    1      -34.672  81.712  29.301  0.00  0.00    -0.241 NA
ATOM     31  C   LIG    1      -34.764  82.987  29.145  0.00  0.00    +0.236 C 
BRANCH  30  33
ATOM     32  C   LIG    1      -36.353  80.445  27.963  0.00  0.00    +0.038 C 
ATOM     33  C   LIG    1      -34.876  80.874  28.094  0.00  0.00    +0.139 C 
BRANCH  33  34
ATOM     34  C   LIG    1      -33.935  79.679  28.051  0.00  0.00    +0.013 A 
ATOM     35  C   LIG    1      -34.037  78.607  28.924  0.00  0.00    +0.119 A 
ATOM     36  N   LIG    1      -33.287  77.485  28.865  0.00  0.00    -0.243 NA
ATOM     37  C   LIG    1      -32.397  77.435  27.868  0.00  0.00    +0.221 A 
ATOM     38  N   LIG    1      -32.198  78.392  26.952  0.00  0.00    -0.243 NA
ATOM     39  C   LIG    1      -32.980  79.492  27.068  0.00  0.00    +0.119 A 
ENDBRANCH  33  34
ENDBRANCH  30  33
BRANCH  31  40
ATOM     40  O   LIG    1      -35.083  83.592  27.978  0.00  0.00    -0.491 OA
ATOM     41  H   LIG    1      -34.351  83.458  27.341  0.00  0.00    +0.294 HD
ENDBRANCH  31  40
ENDBRANCH   1  31
TORSDOF 8
ENDMDL
MODEL 4
REMARK VINA RESULT:      -6.8      7.291     11.036
REMARK  Name = pdb/CHEMBL3895402.pdb
REMARK                            x       y       z     vdW  Elec       q    Type
REMARK                         _______ _______ _______ _____ _____    ______ ____
ROOT
ATOM      1  C   LIG    1      -36.759  76.406  27.079  0.00  0.00    +0.149 A 
ATOM      2  N   LIG    1      -37.466  76.685  25.967  0.00  0.00    -0.160 NA
ATOM      3  N   LIG    1      -38.520  75.818  25.981  0.00  0.00    -0.218 N 
ATOM      4  C   LIG    1      -38.484  75.027  27.135  0.00  0.00    +0.129 A 
ATOM      5  C   LIG    1      -37.408  75.437  27.877  0.00  0.00    +0.078 A 
ENDROOT
BRANCH   3   6
ATOM      6  C   LIG    1      -39.534  75.905  24.972  0.00  0.00    +0.067 A 
ATOM      7  C   LIG    1      -39.988  77.167  24.555  0.00  0.00    +0.028 A 
ATOM      8  C   LIG    1      -41.019  77.276  23.615  0.00  0.00    +0.002 A 
ATOM      9  C   LIG    1      -41.609  76.134  23.083  0.00  0.00    +0.000 A 
ATOM     10  C   LIG    1      -41.174  74.879  23.491  0.00  0.00    +0.002 A 
ATOM     11  C   LIG    1      -40.144  74.762  24.429  0.00  0.00    +0.028 A 
ENDBRANCH   3   6
BRANCH   4  12
ATOM     12  N   LIG    1      -39.329  73.970  27.461  0.00  0.00    -0.266 N 
ATOM     13  H   LIG    1      -40.201  74.207  27.927  0.00  0.00    +0.157 HD
ATOM     14  C   LIG    1      -39.190  72.578  27.136  0.00  0.00    +0.251 C 
ATOM     15  O   LIG    1      -40.225  71.920  27.293  0.00  0.00    -0.270 OA
BRANCH  14  16
ATOM     16  C   LIG    1      -37.937  71.961  26.672  0.00  0.00    +0.056 A 
ATOM     17  C   LIG    1      -37.757  71.308  25.439  0.00  0.00    +0.056 A 
ATOM     18 CL   LIG    1      -38.840  71.448  24.109  0.00  0.00    -0.083 Cl
ATOM     19  C   LIG    1      -36.569  70.639  25.161  0.00  0.00    +0.059 A 
ATOM     20  C   LIG    1      -35.484  70.759  26.020  0.00  0.00    +0.134 A 
ATOM     21  F   LIG    1      -34.359  70.124  25.672  0.00  0.00    -0.205 F 
ATOM     22  C   LIG    1      -35.544  71.547  27.178  0.00  0.00    +0.036 A 
ATOM     23  C   LIG    1      -36.796  72.111  27.498  0.00  0.00    +0.027 A 
BRANCH  22  24
ATOM     24  C   LIG    1      -34.356  71.773  28.029  0.00  0.00    +0.074 A 
ATOM     25  N   LIG    1      -33.865  70.669  28.645  0.00  0.00    -0.255 NA
ATOM     26  C   LIG    1      -32.769  70.820  29.426  0.00  0.00    +0.111 A 
ATOM     27  C   LIG    1      -32.131  72.028  29.644  0.00  0.00    +0.020 A 
ATOM     28  C   LIG    1      -32.648  73.156  29.027  0.00  0.00    +0.004 A 
ATOM     29  C   LIG    1      -33.773  73.030  28.215  0.00  0.00    +0.028 A 
ENDBRANCH  22  24
ENDBRANCH  14  16
ENDBRANCH   4  12
BRANCH   1  31
ATOM     30  N   LIG    1      -34.374  76.549  27.350  0.00  0.00    -0.241 NA
ATOM     31  C   LIG    1      -35.521  77.133  27.339  0.00  0.00    +0.236 C 
BRANCH  30  33
ATOM     32  C   LIG    1      -32.230  77.498  26.497  0.00  0.00    +0.038 C 
ATOM     33  C   LIG    1      -33.199  77.388  27.693  0.00  0.00    +0.139 C 
BRANCH  33  34
ATOM     34  C   LIG    1      -32.492  76.910  28.952  0.00  0.00    +0.013 A 
ATOM     35  C   LIG    1      -33.159  76.655  30.141  0.00  0.00    +0.119 A 
ATOM     36  N   LIG    1      -32.590  76.142  31.254  0.00  0.00    -0.243 NA
ATOM     37  C   LIG    1      -31.285  75.861  31.160  0.00  0.00    +0.221 A 
ATOM     38  N   LIG    1      -30.523  76.049  30.075  0.00  0.00    -0.243 NA
ATOM     39  C   LIG    1      -31.152  76.569  28.994  0.00  0.00    +0.119 A 
ENDBRANCH  33  34
ENDBRANCH  30  33
BRANCH  31  40
ATOM     40  O   LIG    1      -35.709  78.454  27.565  0.00  0.00    -0.491 OA
ATOM     41  H   LIG    1      -35.452  78.655  28.489  0.00  0.00    +0.294 HD
ENDBRANCH  31  40
ENDBRANCH   1  31
TORSDOF 8
ENDMDL
MODEL 5
REMARK VINA RESULT:      -6.7      3.732      7.160
REMARK  Name = pdb/CHEMBL3895402.pdb
REMARK                            x       y       z     vdW  Elec       q    Type
REMARK                         _______ _______ _______ _____ _____    ______ ____
ROOT
ATOM      1  C   LIG    1      -36.046  81.706  27.347  0.00  0.00    +0.149 A 
ATOM      2  N   LIG    1      -35.939  82.680  26.423  0.00  0.00    -0.160 NA
ATOM      3  N   LIG    1      -37.218  83.086  26.175  0.00  0.00    -0.218 N 
ATOM      4  C   LIG    1      -38.117  82.383  26.986  0.00  0.00    +0.129 A 
ATOM      5  C   LIG    1      -37.381  81.551  27.786  0.00  0.00    +0.078 A 
ENDROOT
BRANCH   3   6
ATOM      6  C   LIG    1      -37.463  84.188  25.293  0.00  0.00    +0.067 A 
ATOM      7  C   LIG    1      -38.144  83.969  24.085  0.00  0.00    +0.028 A 
ATOM      8  C   LIG    1      -38.343  85.018  23.180  0.00  0.00    +0.002 A 
ATOM      9  C   LIG    1      -37.863  86.293  23.466  0.00  0.00    +0.000 A 
ATOM     10  C   LIG    1      -37.181  86.523  24.655  0.00  0.00    +0.002 A 
ATOM     11  C   LIG    1      -36.981  85.479  25.564  0.00  0.00    +0.028 A 
ENDBRANCH   3   6
BRANCH   4  12
ATOM     12  N   LIG    1      -39.507  82.448  26.958  0.00  0.00    -0.266 N 
ATOM     13  H   LIG    1      -39.945  83.164  27.532  0.00  0.00    +0.157 HD
ATOM     14  C   LIG    1      -40.424  81.701  26.141  0.00  0.00    +0.251 C 
ATOM     15  O   LIG    1      -41.567  82.170  26.113  0.00  0.00    -0.270 OA
BRANCH  14  16
ATOM     16  C   LIG    1      -40.064  80.477  25.407  0.00  0.00    +0.056 A 
ATOM     17  C   LIG    1      -40.212  80.284  24.021  0.00  0.00    +0.056 A 
ATOM     18 CL   LIG    1      -40.473  81.558  22.895  0.00  0.00    -0.083 Cl
ATOM     19  C   LIG    1      -39.970  79.037  23.453  0.00  0.00    +0.059 A 
ATOM     20  C   LIG    1      -39.410  78.021  24.215  0.00  0.00    +0.134 A 
ATOM     21  F   LIG    1      -39.164  76.860  23.595  0.00  0.00    -0.205 F 
ATOM     22  C   LIG    1      -39.070  78.210  25.561  0.00  0.00    +0.036 A 
ATOM     23  C   LIG    1      -39.440  79.440  26.143  0.00  0.00    +0.027 A 
BRANCH  22  24
ATOM     24  C   LIG    1      -38.364  77.170  26.341  0.00  0.00    +0.074 A 
ATOM     25  N   LIG    1      -37.021  77.123  26.162  0.00  0.00    -0.255 NA
ATOM     26  C   LIG    1      -36.324  76.197  26.865  0.00  0.00    +0.111 A 
ATOM     27  C   LIG    1      -36.900  75.293  27.739  0.00  0.00    +0.020 A 
ATOM     28  C   LIG    1      -38.275  75.334  27.905  0.00  0.00    +0.004 A 
ATOM     29  C   LIG    1      -39.016  76.278  27.197  0.00  0.00    +0.028 A 
ENDBRANCH  22  24
ENDBRANCH  14  16
ENDBRANCH   4  12
BRANCH   1  31
ATOM     30  N   LIG    1      -34.502  79.862  27.337  0.00  0.00    -0.241 NA
ATOM     31  C   LIG    1      -34.843  81.014  27.798  0.00  0.00    +0.236 C 
BRANCH  30  33
ATOM     32  C   LIG    1      -32.201  79.026  26.857  0.00  0.00    +0.038 C 
ATOM     33  C   LIG    1      -33.293  79.236  27.927  0.00  0.00    +0.139 C 
BRANCH  33  34
ATOM     34  C   LIG    1      -33.609  77.948  28.671  0.00  0.00    +0.013 A 
ATOM     35  C   LIG    1      -32.966  76.748  28.407  0.00  0.00    +0.119 A 
ATOM     36  N   LIG    1      -33.146  75.603  29.102  0.00  0.00    -0.243 NA
ATOM     37  C   LIG    1      -34.009  75.675  30.123  0.00  0.00    +0.221 A 
ATOM     38  N   LIG    1      -34.691  76.767  30.492  0.00  0.00    -0.243 NA
ATOM     39  C   LIG    1      -34.468  77.880  29.753  0.00  0.00    +0.119 A 
ENDBRANCH  33  34
ENDBRANCH  30  33
BRANCH  31  40
ATOM     40  O   LIG    1      -34.146  81.700  28.733  0.00  0.00    -0.491 OA
ATOM     41  H   LIG    1      -34.429  81.400  29.621  0.00  0.00    +0.294 HD
ENDBRANCH  31  40
ENDBRANCH   1  31
TORSDOF 8
ENDMDL
MODEL 6
REMARK VINA RESULT:      -6.7     12.188     16.621
REMARK  Name = pdb/CHEMBL3895402.pdb
REMARK                            x       y       z     vdW  Elec       q    Type
REMARK                         _______ _______ _______ _____ _____    ______ ____
ROOT
ATOM      1  C   LIG    1      -35.014  66.823  22.464  0.00  0.00    +0.149 A 
ATOM      2  N   LIG    1      -34.549  67.887  23.146  0.00  0.00    -0.160 NA
ATOM      3  N   LIG    1      -35.254  67.904  24.314  0.00  0.00    -0.218 N 
ATOM      4  C   LIG    1      -36.131  66.815  24.370  0.00  0.00    +0.129 A 
ATOM      5  C   LIG    1      -35.940  66.079  23.231  0.00  0.00    +0.078 A 
ENDROOT
BRANCH   3   6
ATOM      6  C   LIG    1      -34.942  68.870  25.326  0.00  0.00    +0.067 A 
ATOM      7  C   LIG    1      -33.973  68.568  26.296  0.00  0.00    +0.028 A 
ATOM      8  C   LIG    1      -33.694  69.471  27.328  0.00  0.00    +0.002 A 
ATOM      9  C   LIG    1      -34.378  70.681  27.407  0.00  0.00    +0.000 A 
ATOM     10  C   LIG    1      -35.345  70.990  26.458  0.00  0.00    +0.002 A 
ATOM     11  C   LIG    1      -35.627  70.093  25.424  0.00  0.00    +0.028 A 
ENDBRANCH   3   6
BRANCH   4  12
ATOM     12  N   LIG    1      -37.077  66.542  25.353  0.00  0.00    -0.266 N 
ATOM     13  H   LIG    1      -36.812  65.875  26.073  0.00  0.00    +0.157 HD
ATOM     14  C   LIG    1      -38.360  67.156  25.558  0.00  0.00    +0.251 C 
ATOM     15  O   LIG    1      -38.853  66.930  26.668  0.00  0.00    -0.270 OA
BRANCH  14  16
ATOM     16  C   LIG    1      -39.054  67.972  24.547  0.00  0.00    +0.056 A 
ATOM     17  C   LIG    1      -39.830  67.469  23.487  0.00  0.00    +0.056 A 
ATOM     18 CL   LIG    1      -40.418  65.854  23.406  0.00  0.00    -0.083 Cl
ATOM     19  C   LIG    1      -40.327  68.326  22.510  0.00  0.00    +0.059 A 
ATOM     20  C   LIG    1      -40.215  69.701  22.665  0.00  0.00    +0.134 A 
ATOM     21  F   LIG    1      -40.751  70.467  21.707  0.00  0.00    -0.205 F 
ATOM     22  C   LIG    1      -39.610  70.269  23.794  0.00  0.00    +0.036 A 
ATOM     23  C   LIG    1      -39.007  69.379  24.707  0.00  0.00    +0.027 A 
BRANCH  22  24
ATOM     24  C   LIG    1      -39.596  71.730  24.020  0.00  0.00    +0.074 A 
ATOM     25  N   LIG    1      -40.707  72.391  23.610  0.00  0.00    -0.255 NA
ATOM     26  C   LIG    1      -40.750  73.731  23.807  0.00  0.00    +0.111 A 
ATOM     27  C   LIG    1      -39.729  74.463  24.386  0.00  0.00    +0.020 A 
ATOM     28  C   LIG    1      -38.589  73.786  24.787  0.00  0.00    +0.004 A 
ATOM     29  C   LIG    1      -38.519  72.407  24.599  0.00  0.00    +0.028 A 
ENDBRANCH  22  24
ENDBRANCH  14  16
ENDBRANCH   4  12
BRANCH   1  31
ATOM     30  N   LIG    1      -33.247  66.325  20.911  0.00  0.00    -0.241 NA
ATOM     31  C   LIG    1      -34.496  66.548  21.128  0.00  0.00    +0.236 C 
BRANCH  30  33
ATOM     32  C   LIG    1      -32.818  64.625  19.136  0.00  0.00    +0.038 C 
ATOM     33  C   LIG    1      -32.840  66.125  19.497  0.00  0.00    +0.139 C 
BRANCH  33  34
ATOM     34  C   LIG    1      -31.518  66.803  19.172  0.00  0.00    +0.013 A 
ATOM     35  C   LIG    1      -31.434  68.108  18.710  0.00  0.00    +0.119 A 
ATOM     36  N   LIG    1      -30.283  68.782  18.497  0.00  0.00    -0.243 NA
ATOM     37  C   LIG    1      -29.159  68.111  18.775  0.00  0.00    +0.221 A 
ATOM     38  N   LIG    1      -29.094  66.854  19.233  0.00  0.00    -0.243 NA
ATOM     39  C   LIG    1      -30.282  66.233  19.422  0.00  0.00    +0.119 A 
ENDBRANCH  33  34
ENDBRANCH  30  33
BRANCH  31  40
ATOM     40  O   LIG    1      -35.450  66.556  20.168  0.00  0.00    -0.491 OA
ATOM     41  H   LIG    1      -35.929  65.702  20.191  0.00  0.00    +0.294 HD
ENDBRANCH  31  40
ENDBRANCH   1  31
TORSDOF 8
ENDMDL
MODEL 7
REMARK VINA RESULT:      -6.7      4.654      7.676
REMARK  Name = pdb/CHEMBL3895402.pdb
REMARK                            x       y       z     vdW  Elec       q    Type
REMARK                         _______ _______ _______ _____ _____    ______ ____
ROOT
ATOM      1  C   LIG    1      -39.975  79.683  24.214  0.00  0.00    +0.149 A 
ATOM      2  N   LIG    1      -39.679  78.466  23.722  0.00  0.00    -0.160 NA
ATOM      3  N   LIG    1      -39.769  77.614  24.785  0.00  0.00    -0.218 N 
ATOM      4  C   LIG    1      -40.166  78.308  25.933  0.00  0.00    +0.129 A 
ATOM      5  C   LIG    1      -40.368  79.614  25.571  0.00  0.00    +0.078 A 
ENDROOT
BRANCH   3   6
ATOM      6  C   LIG    1      -39.599  76.204  24.591  0.00  0.00    +0.067 A 
ATOM      7  C   LIG    1      -40.630  75.460  23.992  0.00  0.00    +0.028 A 
ATOM      8  C   LIG    1      -40.512  74.073  23.846  0.00  0.00    +0.002 A 
ATOM      9  C   LIG    1      -39.372  73.413  24.295  0.00  0.00    +0.000 A 
ATOM     10  C   LIG    1      -38.348  74.136  24.895  0.00  0.00    +0.002 A 
ATOM     11  C   LIG    1      -38.459  75.522  25.044  0.00  0.00    +0.028 A 
ENDBRANCH   3   6
BRANCH   4  12
ATOM     12  N   LIG    1      -40.277  77.808  27.227  0.00  0.00    -0.266 N 
ATOM     13  H   LIG    1      -41.125  77.294  27.448  0.00  0.00    +0.157 HD
ATOM     14  C   LIG    1      -39.302  77.826  28.282  0.00  0.00    +0.251 C 
ATOM     15  O   LIG    1      -39.557  77.056  29.214  0.00  0.00    -0.270 OA
BRANCH  14  16
ATOM     16  C   LIG    1      -38.107  78.686  28.286  0.00  0.00    +0.056 A 
ATOM     17  C   LIG    1      -38.108  80.082  28.456  0.00  0.00    +0.056 A 
ATOM     18 CL   LIG    1      -39.446  80.976  29.067  0.00  0.00    -0.083 Cl
ATOM     19  C   LIG    1      -36.933  80.812  28.304  0.00  0.00    +0.059 A 
ATOM     20  C   LIG    1      -35.718  80.156  28.160  0.00  0.00    +0.134 A 
ATOM     21  F   LIG    1      -34.623  80.919  28.061  0.00  0.00    -0.205 F 
ATOM     22  C   LIG    1      -35.630  78.757  28.166  0.00  0.00    +0.036 A 
ATOM     23  C   LIG    1      -36.847  78.045  28.196  0.00  0.00    +0.027 A 
BRANCH  22  24
ATOM     24  C   LIG    1      -34.328  78.057  28.134  0.00  0.00    +0.074 A 
ATOM     25  N   LIG    1      -33.716  78.026  26.924  0.00  0.00    -0.255 NA
ATOM     26  C   LIG    1      -32.513  77.409  26.843  0.00  0.00    +0.111 A 
ATOM     27  C   LIG    1      -31.881  76.799  27.912  0.00  0.00    +0.020 A 
ATOM     28  C   LIG    1      -32.519  76.817  29.142  0.00  0.00    +0.004 A 
ATOM     29  C   LIG    1      -33.757  77.448  29.254  0.00  0.00    +0.028 A 
ENDBRANCH  22  24
ENDBRANCH  14  16
ENDBRANCH   4  12
BRANCH   1  31
ATOM     30  N   LIG    1      -40.679  81.868  23.498  0.00  0.00    -0.241 NA
ATOM     31  C   LIG    1      -39.917  80.844  23.332  0.00  0.00    +0.236 C 
BRANCH  30  33
ATOM     32  C   LIG    1      -40.434  84.330  23.177  0.00  0.00    +0.038 C 
ATOM     33  C   LIG    1      -40.567  82.954  22.492  0.00  0.00    +0.139 C 
BRANCH  33  34
ATOM     34  C   LIG    1      -41.707  82.933  21.485  0.00  0.00    +0.013 A 
ATOM     35  C   LIG    1      -41.611  83.506  20.226  0.00  0.00    +0.119 A 
ATOM     36  N   LIG    1      -42.559  83.432  19.266  0.00  0.00    -0.243 NA
ATOM     37  C   LIG    1      -43.655  82.735  19.588  0.00  0.00    +0.221 A 
ATOM     38  N   LIG    1      -43.876  82.126  20.760  0.00  0.00    -0.243 NA
ATOM     39  C   LIG    1      -42.889  82.240  21.680  0.00  0.00    +0.119 A 
ENDBRANCH  33  34
ENDBRANCH  30  33
BRANCH  31  40
ATOM     40  O   LIG    1      -38.999  80.725  22.345  0.00  0.00    -0.491 OA
ATOM     41  H   LIG    1      -38.541  79.865  22.442  0.00  0.00    +0.294 HD
ENDBRANCH  31  40
ENDBRANCH   1  31
TORSDOF 8
ENDMDL
MODEL 8
REMARK VINA RESULT:      -6.7     11.142     15.854
REMARK  Name = pdb/CHEMBL3895402.pdb
REMARK                            x       y       z     vdW  Elec       q    Type
REMARK                         _______ _______ _______ _____ _____    ______ ____
ROOT
ATOM      1  C   LIG    1      -36.073  69.054  25.285  0.00  0.00    +0.149 A 
ATOM      2  N   LIG    1      -36.019  68.913  23.947  0.00  0.00    -0.160 NA
ATOM      3  N   LIG    1      -37.052  68.079  23.629  0.00  0.00    -0.218 N 
ATOM      4  C   LIG    1      -37.774  67.738  24.778  0.00  0.00    +0.129 A 
ATOM      5  C   LIG    1      -37.205  68.406  25.830  0.00  0.00    +0.078 A 
ENDROOT
BRANCH   3   6
ATOM      6  C   LIG    1      -37.341  67.787  22.256  0.00  0.00    +0.067 A 
ATOM      7  C   LIG    1      -37.510  68.842  21.345  0.00  0.00    +0.028 A 
ATOM      8  C   LIG    1      -37.852  68.583  20.012  0.00  0.00    +0.002 A 
ATOM      9  C   LIG    1      -38.030  67.275  19.575  0.00  0.00    +0.000 A 
ATOM     10  C   LIG    1      -37.872  66.221  20.466  0.00  0.00    +0.002 A 
ATOM     11  C   LIG    1      -37.530  66.472  21.799  0.00  0.00    +0.028 A 
ENDBRANCH   3   6
BRANCH   4  12
ATOM     12  N   LIG    1      -38.832  66.839  24.875  0.00  0.00    -0.266 N 
ATOM     13  H   LIG    1      -38.678  66.008  25.438  0.00  0.00    +0.157 HD
ATOM     14  C   LIG    1      -40.169  66.971  24.365  0.00  0.00    +0.251 C 
ATOM     15  O   LIG    1      -40.971  66.164  24.849  0.00  0.00    -0.270 OA
BRANCH  14  16
ATOM     16  C   LIG    1      -40.571  67.956  23.348  0.00  0.00    +0.056 A 
ATOM     17  C   LIG    1      -41.100  67.649  22.081  0.00  0.00    +0.056 A 
ATOM     18 CL   LIG    1      -41.726  66.106  21.647  0.00  0.00    -0.083 Cl
ATOM     19  C   LIG    1      -41.317  68.656  21.145  0.00  0.00    +0.059 A 
ATOM     20  C   LIG    1      -41.182  69.989  21.511  0.00  0.00    +0.134 A 
ATOM     21  F   LIG    1      -41.445  70.907  20.573  0.00  0.00    -0.205 F 
ATOM     22  C   LIG    1      -40.832  70.364  22.815  0.00  0.00    +0.036 A 
ATOM     23  C   LIG    1      -40.498  69.324  23.707  0.00  0.00    +0.027 A 
BRANCH  22  24
ATOM     24  C   LIG    1      -40.804  71.780  23.238  0.00  0.00    +0.074 A 
ATOM     25  N   LIG    1      -39.687  72.165  23.904  0.00  0.00    -0.255 NA
ATOM     26  C   LIG    1      -39.606  73.458  24.302  0.00  0.00    +0.111 A 
ATOM     27  C   LIG    1      -40.594  74.400  24.084  0.00  0.00    +0.020 A 
ATOM     28  C   LIG    1      -41.742  73.998  23.419  0.00  0.00    +0.004 A 
ATOM     29  C   LIG    1      -41.851  72.674  22.996  0.00  0.00    +0.028 A 
ENDBRANCH  22  24
ENDBRANCH  14  16
ENDBRANCH   4  12
BRANCH   1  31
ATOM     30  N   LIG    1      -35.219  70.293  27.160  0.00  0.00    -0.241 NA
ATOM     31  C   LIG    1      -35.059  69.855  25.961  0.00  0.00    +0.236 C 
BRANCH  30  33
ATOM     32  C   LIG    1      -33.556  70.548  29.003  0.00  0.00    +0.038 C 
ATOM     33  C   LIG    1      -34.140  71.152  27.708  0.00  0.00    +0.139 C 
BRANCH  33  34
ATOM     34  C   LIG    1      -34.590  72.592  27.910  0.00  0.00    +0.013 A 
ATOM     35  C   LIG    1      -33.700  73.645  28.063  0.00  0.00    +0.119 A 
ATOM     36  N   LIG    1      -34.048  74.947  28.150  0.00  0.00    -0.243 NA
ATOM     37  C   LIG    1      -35.359  75.203  28.068  0.00  0.00    +0.221 A 
ATOM     38  N   LIG    1      -36.324  74.287  27.913  0.00  0.00    -0.243 NA
ATOM     39  C   LIG    1      -35.909  73.000  27.834  0.00  0.00    +0.119 A 
ENDBRANCH  33  34
ENDBRANCH  30  33
BRANCH  31  40
ATOM     40  O   LIG    1      -33.960  70.084  25.204  0.00  0.00    -0.491 OA
ATOM     41  H   LIG    1      -33.174  69.742  25.677  0.00  0.00    +0.294 HD
ENDBRANCH  31  40
ENDBRANCH   1  31
TORSDOF 8
ENDMDL
MODEL 9
REMARK VINA RESULT:      -6.6      8.402     13.024
REMARK  Name = pdb/CHEMBL3895402.pdb
REMARK                            x       y       z     vdW  Elec       q    Type
REMARK                         _______ _______ _______ _____ _____    ______ ____
ROOT
ATOM      1  C   LIG    1      -36.505  71.125  25.481  0.00  0.00    +0.149 A 
ATOM      2  N   LIG    1      -37.384  71.655  24.610  0.00  0.00    -0.160 NA
ATOM      3  N   LIG    1      -38.124  72.542  25.338  0.00  0.00    -0.218 N 
ATOM      4  C   LIG    1      -37.667  72.588  26.660  0.00  0.00    +0.129 A 
ATOM      5  C   LIG    1      -36.592  71.743  26.750  0.00  0.00    +0.078 A 
ENDROOT
BRANCH   3   6
ATOM      6  C   LIG    1      -39.107  73.358  24.690  0.00  0.00    +0.067 A 
ATOM      7  C   LIG    1      -38.994  74.757  24.752  0.00  0.00    +0.028 A 
ATOM      8  C   LIG    1      -39.973  75.575  24.177  0.00  0.00    +0.002 A 
ATOM      9  C   LIG    1      -41.074  75.012  23.539  0.00  0.00    +0.000 A 
ATOM     10  C   LIG    1      -41.202  73.629  23.476  0.00  0.00    +0.002 A 
ATOM     11  C   LIG    1      -40.227  72.806  24.047  0.00  0.00    +0.028 A 
ENDBRANCH   3   6
BRANCH   4  12
ATOM     12  N   LIG    1      -38.221  73.297  27.721  0.00  0.00    -0.266 N 
ATOM     13  H   LIG    1      -39.174  73.058  27.984  0.00  0.00    +0.157 HD
ATOM     14  C   LIG    1      -37.594  74.264  28.578  0.00  0.00    +0.251 C 
ATOM     15  O   LIG    1      -38.231  74.508  29.609  0.00  0.00    -0.270 OA
BRANCH  14  16
ATOM     16  C   LIG    1      -36.318  74.932  28.273  0.00  0.00    +0.056 A 
ATOM     17  C   LIG    1      -36.169  76.074  27.466  0.00  0.00    +0.056 A 
ATOM     18 CL   LIG    1      -37.467  77.109  27.012  0.00  0.00    -0.083 Cl
ATOM     19  C   LIG    1      -34.901  76.540  27.132  0.00  0.00    +0.059 A 
ATOM     20  C   LIG    1      -33.776  75.993  27.734  0.00  0.00    +0.134 A 
ATOM     21  F   LIG    1      -32.590  76.517  27.398  0.00  0.00    -0.205 F 
ATOM     22  C   LIG    1      -33.873  74.971  28.687  0.00  0.00    +0.036 A 
ATOM     23  C   LIG    1      -35.157  74.434  28.914  0.00  0.00    +0.027 A 
BRANCH  22  24
ATOM     24  C   LIG    1      -32.689  74.469  29.417  0.00  0.00    +0.074 A 
ATOM     25  N   LIG    1      -32.111  75.357  30.265  0.00  0.00    -0.255 NA
ATOM     26  C   LIG    1      -31.031  74.942  30.969  0.00  0.00    +0.111 A 
ATOM     27  C   LIG    1      -30.475  73.680  30.866  0.00  0.00    +0.020 A 
ATOM     28  C   LIG    1      -31.058  72.783  29.985  0.00  0.00    +0.004 A 
ATOM     29  C   LIG    1      -32.173  73.181  29.250  0.00  0.00    +0.028 A 
ENDBRANCH  22  24
ENDBRANCH  14  16
ENDBRANCH   4  12
BRANCH   1  31
ATOM     30  N   LIG    1      -36.002  68.978  24.522  0.00  0.00    -0.241 NA
ATOM     31  C   LIG    1      -35.586  70.087  25.026  0.00  0.00    +0.236 C 
BRANCH  30  33
ATOM     32  C   LIG    1      -35.190  67.446  22.728  0.00  0.00    +0.038 C 
ATOM     33  C   LIG    1      -34.967  67.978  24.159  0.00  0.00    +0.139 C 
BRANCH  33  34
ATOM     34  C   LIG    1      -34.869  66.848  25.173  0.00  0.00    +0.013 A 
ATOM     35  C   LIG    1      -34.122  66.943  26.337  0.00  0.00    +0.119 A 
ATOM     36  N   LIG    1      -34.080  66.005  27.309  0.00  0.00    -0.243 NA
ATOM     37  C   LIG    1      -34.838  64.922  27.103  0.00  0.00    +0.221 A 
ATOM     38  N   LIG    1      -35.611  64.705  26.031  0.00  0.00    -0.243 NA
ATOM     39  C   LIG    1      -35.608  65.681  25.092  0.00  0.00    +0.119 A 
ENDBRANCH  33  34
ENDBRANCH  30  33
BRANCH  31  40
ATOM     40  O   LIG    1      -34.283  70.410  25.190  0.00  0.00    -0.491 OA
ATOM     41  H   LIG    1      -33.739  69.604  25.069  0.00  0.00    +0.294 HD
ENDBRANCH  31  40
ENDBRANCH   1  31
TORSDOF 8
ENDMDL
