MODEL 1
REMARK VINA RESULT:      -6.0      0.000      0.000
REMARK  Name = pdb/CHEMBL3675963.pdb
REMARK                            x       y       z     vdW  Elec       q    Type
REMARK                         _______ _______ _______ _____ _____    ______ ____
ROOT
ATOM      1  C   LIG    1      -17.941  84.755  12.568  0.00  0.00    +0.102 A 
ATOM      2  C   LIG    1      -18.572  83.582  12.984  0.00  0.00    +0.170 A 
ATOM      3  N   LIG    1      -19.504  83.337  13.960  0.00  0.00    -0.212 NA
ATOM      4  C   LIG    1      -19.891  82.091  14.145  0.00  0.00    +0.126 A 
ATOM      5  C   LIG    1      -19.337  80.957  13.313  0.00  0.00    +0.063 A 
ATOM      6  C   LIG    1      -18.468  81.265  12.347  0.00  0.00    +0.118 A 
ATOM      7  N   LIG    1      -18.070  82.574  12.162  0.00  0.00    -0.221 N 
ATOM      8  N   LIG    1      -17.199  83.046  11.238  0.00  0.00    -0.173 NA
ATOM      9  C   LIG    1      -17.131  84.348  11.493  0.00  0.00    +0.150 A 
ENDROOT
BRANCH   4  10
ATOM     10  N   LIG    1      -20.850  81.804  15.101  0.00  0.00    -0.308 N 
ATOM     11  C   LIG    1      -21.997  82.680  15.399  0.00  0.00    +0.108 C 
ATOM     12  C   LIG    1      -22.495  82.165  16.761  0.00  0.00    +0.029 C 
ATOM     13  C   LIG    1      -22.118  80.694  16.771  0.00  0.00    +0.021 C 
ATOM     14  C   LIG    1      -20.810  80.653  15.997  0.00  0.00    +0.107 C 
BRANCH  11  15
ATOM     15  C   LIG    1      -23.053  82.593  14.308  0.00  0.00    +0.011 A 
ATOM     16  C   LIG    1      -23.082  83.549  13.282  0.00  0.00    +0.129 A 
ATOM     17  F   LIG    1      -22.179  84.540  13.274  0.00  0.00    -0.205 F 
ATOM     18  C   LIG    1      -24.029  83.493  12.253  0.00  0.00    +0.041 A 
ATOM     19  C   LIG    1      -24.970  82.465  12.231  0.00  0.00    +0.041 A 
ATOM     20  C   LIG    1      -24.954  81.513  13.241  0.00  0.00    +0.124 A 
ATOM     21  F   LIG    1      -25.845  80.513  13.228  0.00  0.00    -0.205 F 
ATOM     22  C   LIG    1      -24.020  81.575  14.272  0.00  0.00    +0.046 A 
ENDBRANCH  11  15
ENDBRANCH   4  10
BRANCH   1  25
ATOM     23  N   LIG    1      -19.230  86.234  13.851  0.00  0.00    -0.190 N 
ATOM     24  H   LIG    1      -19.715  85.421  14.257  0.00  0.00    +0.183 HD
ATOM     25  C   LIG    1      -18.113  86.106  13.063  0.00  0.00    +0.272 C 
ATOM     26  O   LIG    1      -17.340  87.018  12.775  0.00  0.00    -0.268 OA
BRANCH  23  27
ATOM     27  O   LIG    1      -19.504  87.495  14.426  0.00  0.00    -0.277 OA
BRANCH  27  28
ATOM     28  C   LIG    1      -20.484  88.138  13.601  0.00  0.00    +0.223 C 
BRANCH  28  29
ATOM     29  C   LIG    1      -21.824  88.251  14.335  0.00  0.00    +0.168 C 
BRANCH  29  30
ATOM     30  O   LIG    1      -22.891  88.187  13.380  0.00  0.00    -0.387 OA
ATOM     31  H   LIG    1      -22.427  88.187  12.516  0.00  0.00    +0.210 HD
ENDBRANCH  29  30
BRANCH  29  32
ATOM     32  C   LIG    1      -22.034  87.157  15.390  0.00  0.00    +0.189 C 
BRANCH  32  33
ATOM     33  O   LIG    1      -21.425  87.520  16.627  0.00  0.00    -0.392 OA
ATOM     34  H   LIG    1      -20.486  87.264  16.570  0.00  0.00    +0.210 HD
ENDBRANCH  32  33
ENDBRANCH  29  32
ENDBRANCH  28  29
ENDBRANCH  27  28
ENDBRANCH  23  27
ENDBRANCH   1  25
TORSDOF 9
ENDMDL
MODEL 2
REMARK VINA RESULT:      -5.7     18.329     21.127
REMARK  Name = pdb/CHEMBL3675963.pdb
REMARK                            x       y       z     vdW  Elec       q    Type
REMARK                         _______ _______ _______ _____ _____    ______ ____
ROOT
ATOM      1  C   LIG    1      -23.259  79.639  35.287  0.00  0.00    +0.102 A 
ATOM      2  C   LIG    1      -22.115  79.281  34.574  0.00  0.00    +0.170 A 
ATOM      3  N   LIG    1      -21.935  78.516  33.449  0.00  0.00    -0.212 NA
ATOM      4  C   LIG    1      -20.702  78.324  33.024  0.00  0.00    +0.126 A 
ATOM      5  C   LIG    1      -19.514  78.925  33.740  0.00  0.00    +0.063 A 
ATOM      6  C   LIG    1      -19.757  79.698  34.801  0.00  0.00    +0.118 A 
ATOM      7  N   LIG    1      -21.053  79.893  35.238  0.00  0.00    -0.221 N 
ATOM      8  N   LIG    1      -21.462  80.639  36.292  0.00  0.00    -0.173 NA
ATOM      9  C   LIG    1      -22.781  80.476  36.310  0.00  0.00    +0.150 A 
ENDROOT
BRANCH   4  10
ATOM     10  N   LIG    1      -20.479  77.581  31.877  0.00  0.00    -0.308 N 
ATOM     11  C   LIG    1      -19.985  76.194  31.885  0.00  0.00    +0.108 C 
ATOM     12  C   LIG    1      -19.510  75.975  30.437  0.00  0.00    +0.029 C 
ATOM     13  C   LIG    1      -20.389  76.896  29.608  0.00  0.00    +0.021 C 
ATOM     14  C   LIG    1      -20.615  78.094  30.518  0.00  0.00    +0.107 C 
BRANCH  11  15
ATOM     15  C   LIG    1      -21.078  75.223  32.305  0.00  0.00    +0.011 A 
ATOM     16  C   LIG    1      -21.020  74.602  33.561  0.00  0.00    +0.129 A 
ATOM     17  F   LIG    1      -19.993  74.864  34.383  0.00  0.00    -0.205 F 
ATOM     18  C   LIG    1      -22.015  73.716  33.989  0.00  0.00    +0.041 A 
ATOM     19  C   LIG    1      -23.099  73.437  33.159  0.00  0.00    +0.041 A 
ATOM     20  C   LIG    1      -23.169  74.043  31.912  0.00  0.00    +0.124 A 
ATOM     21  F   LIG    1      -24.210  73.792  31.107  0.00  0.00    -0.205 F 
ATOM     22  C   LIG    1      -22.173  74.915  31.481  0.00  0.00    +0.046 A 
ENDBRANCH  11  15
ENDBRANCH   4  10
BRANCH   1  25
ATOM     23  N   LIG    1      -24.766  78.371  34.015  0.00  0.00    -0.190 N 
ATOM     24  H   LIG    1      -23.974  77.794  33.696  0.00  0.00    +0.183 HD
ATOM     25  C   LIG    1      -24.642  79.300  35.018  0.00  0.00    +0.272 C 
ATOM     26  O   LIG    1      -25.579  79.818  35.625  0.00  0.00    -0.268 OA
BRANCH  23  27
ATOM     27  O   LIG    1      -26.062  77.925  33.669  0.00  0.00    -0.277 OA
BRANCH  27  28
ATOM     28  C   LIG    1      -25.919  76.647  33.037  0.00  0.00    +0.223 C 
BRANCH  28  29
ATOM     29  C   LIG    1      -26.226  76.742  31.539  0.00  0.00    +0.168 C 
BRANCH  29  30
ATOM     30  O   LIG    1      -27.226  77.747  31.326  0.00  0.00    -0.387 OA
ATOM     31  H   LIG    1      -26.704  78.555  31.138  0.00  0.00    +0.210 HD
ENDBRANCH  29  30
BRANCH  29  32
ATOM     32  C   LIG    1      -24.994  77.076  30.687  0.00  0.00    +0.189 C 
BRANCH  32  33
ATOM     33  O   LIG    1      -24.232  78.123  31.283  0.00  0.00    -0.392 OA
ATOM     34  H   LIG    1      -24.038  77.850  32.199  0.00  0.00    +0.210 HD
ENDBRANCH  32  33
ENDBRANCH  29  32
ENDBRANCH  28  29
ENDBRANCH  27  28
ENDBRANCH  23  27
ENDBRANCH   1  25
TORSDOF 9
ENDMDL
MODEL 3
REMARK VINA RESULT:      -5.7     18.113     21.024
REMARK  Name = pdb/CHEMBL3675963.pdb
REMARK                            x       y       z     vdW  Elec       q    Type
REMARK                         _______ _______ _______ _____ _____    ______ ____
ROOT
ATOM      1  C   LIG    1      -21.976  77.422  30.753  0.00  0.00    +0.102 A 
ATOM      2  C   LIG    1      -20.950  77.772  31.632  0.00  0.00    +0.170 A 
ATOM      3  N   LIG    1      -20.963  78.374  32.864  0.00  0.00    -0.212 NA
ATOM      4  C   LIG    1      -19.805  78.611  33.447  0.00  0.00    +0.126 A 
ATOM      5  C   LIG    1      -18.496  78.234  32.791  0.00  0.00    +0.063 A 
ATOM      6  C   LIG    1      -18.551  77.608  31.614  0.00  0.00    +0.118 A 
ATOM      7  N   LIG    1      -19.770  77.364  31.012  0.00  0.00    -0.221 N 
ATOM      8  N   LIG    1      -19.993  76.749  29.826  0.00  0.00    -0.173 NA
ATOM      9  C   LIG    1      -21.314  76.792  29.683  0.00  0.00    +0.150 A 
ENDROOT
BRANCH   4  10
ATOM     10  N   LIG    1      -19.774  79.193  34.703  0.00  0.00    -0.308 N 
ATOM     11  C   LIG    1      -20.733  80.215  35.155  0.00  0.00    +0.108 C 
ATOM     12  C   LIG    1      -20.048  80.826  36.391  0.00  0.00    +0.029 C 
ATOM     13  C   LIG    1      -19.197  79.698  36.948  0.00  0.00    +0.021 C 
ATOM     14  C   LIG    1      -18.746  78.942  35.708  0.00  0.00    +0.107 C 
BRANCH  11  15
ATOM     15  C   LIG    1      -22.087  79.598  35.470  0.00  0.00    +0.011 A 
ATOM     16  C   LIG    1      -23.261  80.334  35.255  0.00  0.00    +0.129 A 
ATOM     17  F   LIG    1      -23.180  81.585  34.779  0.00  0.00    -0.205 F 
ATOM     18  C   LIG    1      -24.525  79.794  35.518  0.00  0.00    +0.041 A 
ATOM     19  C   LIG    1      -24.636  78.492  36.002  0.00  0.00    +0.041 A 
ATOM     20  C   LIG    1      -23.483  77.752  36.221  0.00  0.00    +0.124 A 
ATOM     21  F   LIG    1      -23.575  76.495  36.676  0.00  0.00    -0.205 F 
ATOM     22  C   LIG    1      -22.224  78.292  35.972  0.00  0.00    +0.046 A 
ENDBRANCH  11  15
ENDBRANCH   4  10
BRANCH   1  25
ATOM     23  N   LIG    1      -23.776  77.713  32.226  0.00  0.00    -0.190 N 
ATOM     24  H   LIG    1      -23.099  77.934  32.971  0.00  0.00    +0.183 HD
ATOM     25  C   LIG    1      -23.406  77.590  30.910  0.00  0.00    +0.272 C 
ATOM     26  O   LIG    1      -24.179  77.599  29.953  0.00  0.00    -0.268 OA
BRANCH  23  27
ATOM     27  O   LIG    1      -25.143  77.913  32.524  0.00  0.00    -0.277 OA
BRANCH  27  28
ATOM     28  C   LIG    1      -25.628  76.711  33.135  0.00  0.00    +0.223 C 
BRANCH  28  29
ATOM     29  C   LIG    1      -26.507  75.922  32.160  0.00  0.00    +0.168 C 
BRANCH  29  30
ATOM     30  O   LIG    1      -26.735  76.711  30.985  0.00  0.00    -0.387 OA
ATOM     31  H   LIG    1      -27.676  76.538  30.771  0.00  0.00    +0.210 HD
ENDBRANCH  29  30
BRANCH  29  32
ATOM     32  C   LIG    1      -25.899  74.576  31.745  0.00  0.00    +0.189 C 
BRANCH  32  33
ATOM     33  O   LIG    1      -24.831  74.764  30.818  0.00  0.00    -0.392 OA
ATOM     34  H   LIG    1      -24.606  75.713  30.830  0.00  0.00    +0.210 HD
ENDBRANCH  32  33
ENDBRANCH  29  32
ENDBRANCH  28  29
ENDBRANCH  27  28
ENDBRANCH  23  27
ENDBRANCH   1  25
TORSDOF 9
ENDMDL
MODEL 4
REMARK VINA RESULT:      -5.6     20.043     23.201
REMARK  Name = pdb/CHEMBL3675963.pdb
REMARK                            x       y       z     vdW  Elec       q    Type
REMARK                         _______ _______ _______ _____ _____    ______ ____
ROOT
ATOM      1  C   LIG    1      -36.359  75.058  29.803  0.00  0.00    +0.102 A 
ATOM      2  C   LIG    1      -37.495  75.348  29.046  0.00  0.00    +0.170 A 
ATOM      3  N   LIG    1      -37.661  76.004  27.854  0.00  0.00    -0.212 NA
ATOM      4  C   LIG    1      -38.888  76.156  27.398  0.00  0.00    +0.126 A 
ATOM      5  C   LIG    1      -40.085  75.625  28.154  0.00  0.00    +0.063 A 
ATOM      6  C   LIG    1      -39.856  74.954  29.284  0.00  0.00    +0.118 A 
ATOM      7  N   LIG    1      -38.565  74.801  29.752  0.00  0.00    -0.221 N 
ATOM      8  N   LIG    1      -38.169  74.156  30.876  0.00  0.00    -0.173 NA
ATOM      9  C   LIG    1      -36.850  74.319  30.894  0.00  0.00    +0.150 A 
ENDROOT
BRANCH   4  10
ATOM     10  N   LIG    1      -39.098  76.789  26.185  0.00  0.00    -0.308 N 
ATOM     11  C   LIG    1      -38.611  76.268  24.896  0.00  0.00    +0.108 C 
ATOM     12  C   LIG    1      -38.711  77.485  23.958  0.00  0.00    +0.029 C 
ATOM     13  C   LIG    1      -39.855  78.307  24.527  0.00  0.00    +0.021 C 
ATOM     14  C   LIG    1      -39.745  78.087  26.028  0.00  0.00    +0.107 C 
BRANCH  11  15
ATOM     15  C   LIG    1      -39.446  75.087  24.428  0.00  0.00    +0.011 A 
ATOM     16  C   LIG    1      -38.960  73.780  24.579  0.00  0.00    +0.129 A 
ATOM     17  F   LIG    1      -37.753  73.582  25.130  0.00  0.00    -0.205 F 
ATOM     18  C   LIG    1      -39.707  72.667  24.175  0.00  0.00    +0.041 A 
ATOM     19  C   LIG    1      -40.969  72.847  23.611  0.00  0.00    +0.041 A 
ATOM     20  C   LIG    1      -41.462  74.134  23.454  0.00  0.00    +0.124 A 
ATOM     21  F   LIG    1      -42.678  74.321  22.924  0.00  0.00    -0.205 F 
ATOM     22  C   LIG    1      -40.715  75.242  23.845  0.00  0.00    +0.046 A 
ENDBRANCH  11  15
ENDBRANCH   4  10
BRANCH   1  25
ATOM     23  N   LIG    1      -34.684  75.294  28.180  0.00  0.00    -0.190 N 
ATOM     24  H   LIG    1      -35.418  75.289  27.457  0.00  0.00    +0.183 HD
ATOM     25  C   LIG    1      -34.973  75.370  29.519  0.00  0.00    +0.272 C 
ATOM     26  O   LIG    1      -34.164  75.649  30.404  0.00  0.00    -0.268 OA
BRANCH  23  27
ATOM     27  O   LIG    1      -33.372  75.603  27.756  0.00  0.00    -0.277 OA
BRANCH  27  28
ATOM     28  C   LIG    1      -33.452  76.778  26.940  0.00  0.00    +0.223 C 
BRANCH  28  29
ATOM     29  C   LIG    1      -33.175  78.037  27.768  0.00  0.00    +0.168 C 
BRANCH  29  30
ATOM     30  O   LIG    1      -32.417  77.679  28.930  0.00  0.00    -0.387 OA
ATOM     31  H   LIG    1      -33.089  77.647  29.643  0.00  0.00    +0.210 HD
ENDBRANCH  29  30
BRANCH  29  32
ATOM     32  C   LIG    1      -32.415  79.120  26.991  0.00  0.00    +0.189 C 
BRANCH  32  33
ATOM     33  O   LIG    1      -32.316  78.781  25.610  0.00  0.00    -0.392 OA
ATOM     34  H   LIG    1      -31.434  78.387  25.475  0.00  0.00    +0.210 HD
ENDBRANCH  32  33
ENDBRANCH  29  32
ENDBRANCH  28  29
ENDBRANCH  27  28
ENDBRANCH  23  27
ENDBRANCH   1  25
TORSDOF 9
ENDMDL
MODEL 5
REMARK VINA RESULT:      -5.6     19.807     22.838
REMARK  Name = pdb/CHEMBL3675963.pdb
REMARK                            x       y       z     vdW  Elec       q    Type
REMARK                         _______ _______ _______ _____ _____    ______ ____
ROOT
ATOM      1  C   LIG    1      -37.652  76.707  25.809  0.00  0.00    +0.102 A 
ATOM      2  C   LIG    1      -38.050  75.394  25.556  0.00  0.00    +0.170 A 
ATOM      3  N   LIG    1      -37.590  74.188  26.022  0.00  0.00    -0.212 NA
ATOM      4  C   LIG    1      -38.158  73.091  25.563  0.00  0.00    +0.126 A 
ATOM      5  C   LIG    1      -39.284  73.144  24.555  0.00  0.00    +0.063 A 
ATOM      6  C   LIG    1      -39.719  74.347  24.176  0.00  0.00    +0.118 A 
ATOM      7  N   LIG    1      -39.117  75.491  24.664  0.00  0.00    -0.221 N 
ATOM      8  N   LIG    1      -39.435  76.775  24.375  0.00  0.00    -0.173 NA
ATOM      9  C   LIG    1      -38.551  77.490  25.064  0.00  0.00    +0.150 A 
ENDROOT
BRANCH   4  10
ATOM     10  N   LIG    1      -37.742  71.856  26.028  0.00  0.00    -0.308 N 
ATOM     11  C   LIG    1      -38.599  70.658  26.047  0.00  0.00    +0.108 C 
ATOM     12  C   LIG    1      -37.863  69.706  27.007  0.00  0.00    +0.029 C 
ATOM     13  C   LIG    1      -36.400  70.091  26.872  0.00  0.00    +0.021 C 
ATOM     14  C   LIG    1      -36.442  71.594  26.637  0.00  0.00    +0.107 C 
BRANCH  11  15
ATOM     15  C   LIG    1      -38.769  70.080  24.651  0.00  0.00    +0.011 A 
ATOM     16  C   LIG    1      -40.042  69.704  24.197  0.00  0.00    +0.129 A 
ATOM     17  F   LIG    1      -41.103  69.851  25.004  0.00  0.00    -0.205 F 
ATOM     18  C   LIG    1      -40.239  69.183  22.913  0.00  0.00    +0.041 A 
ATOM     19  C   LIG    1      -39.154  69.033  22.051  0.00  0.00    +0.041 A 
ATOM     20  C   LIG    1      -37.888  69.399  22.488  0.00  0.00    +0.124 A 
ATOM     21  F   LIG    1      -36.838  69.270  21.667  0.00  0.00    -0.205 F 
ATOM     22  C   LIG    1      -37.689  69.905  23.769  0.00  0.00    +0.046 A 
ENDBRANCH  11  15
ENDBRANCH   4  10
BRANCH   1  25
ATOM     23  N   LIG    1      -35.535  76.327  26.743  0.00  0.00    -0.190 N 
ATOM     24  H   LIG    1      -35.386  75.587  26.042  0.00  0.00    +0.183 HD
ATOM     25  C   LIG    1      -36.604  77.187  26.687  0.00  0.00    +0.272 C 
ATOM     26  O   LIG    1      -36.699  78.241  27.314  0.00  0.00    -0.268 OA
BRANCH  23  27
ATOM     27  O   LIG    1      -34.425  76.686  27.540  0.00  0.00    -0.277 OA
BRANCH  27  28
ATOM     28  C   LIG    1      -33.282  76.751  26.678  0.00  0.00    +0.223 C 
BRANCH  28  29
ATOM     29  C   LIG    1      -32.514  78.059  26.890  0.00  0.00    +0.168 C 
BRANCH  29  30
ATOM     30  O   LIG    1      -32.347  78.718  25.627  0.00  0.00    -0.387 OA
ATOM     31  H   LIG    1      -33.047  78.322  25.067  0.00  0.00    +0.210 HD
ENDBRANCH  29  30
BRANCH  29  32
ATOM     32  C   LIG    1      -33.206  79.020  27.865  0.00  0.00    +0.189 C 
BRANCH  32  33
ATOM     33  O   LIG    1      -34.185  79.810  27.193  0.00  0.00    -0.392 OA
ATOM     34  H   LIG    1      -35.054  79.411  27.383  0.00  0.00    +0.210 HD
ENDBRANCH  32  33
ENDBRANCH  29  32
ENDBRANCH  28  29
ENDBRANCH  27  28
ENDBRANCH  23  27
ENDBRANCH   1  25
TORSDOF 9
ENDMDL
MODEL 6
REMARK VINA RESULT:      -5.6     18.660     21.635
REMARK  Name = pdb/CHEMBL3675963.pdb
REMARK                            x       y       z     vdW  Elec       q    Type
REMARK                         _______ _______ _______ _____ _____    ______ ____
ROOT
ATOM      1  C   LIG    1      -23.696  77.476  30.798  0.00  0.00    +0.102 A 
ATOM      2  C   LIG    1      -22.846  77.505  31.904  0.00  0.00    +0.170 A 
ATOM      3  N   LIG    1      -23.093  77.484  33.254  0.00  0.00    -0.212 NA
ATOM      4  C   LIG    1      -22.063  77.561  34.071  0.00  0.00    +0.126 A 
ATOM      5  C   LIG    1      -20.646  77.666  33.554  0.00  0.00    +0.063 A 
ATOM      6  C   LIG    1      -20.467  77.634  32.231  0.00  0.00    +0.118 A 
ATOM      7  N   LIG    1      -21.554  77.553  31.383  0.00  0.00    -0.221 N 
ATOM      8  N   LIG    1      -21.540  77.517  30.030  0.00  0.00    -0.173 NA
ATOM      9  C   LIG    1      -22.825  77.473  29.694  0.00  0.00    +0.150 A 
ENDROOT
BRANCH   4  10
ATOM     10  N   LIG    1      -22.266  77.515  35.440  0.00  0.00    -0.308 N 
ATOM     11  C   LIG    1      -21.512  78.331  36.407  0.00  0.00    +0.108 C 
ATOM     12  C   LIG    1      -21.785  77.634  37.752  0.00  0.00    +0.029 C 
ATOM     13  C   LIG    1      -23.156  77.002  37.578  0.00  0.00    +0.021 C 
ATOM     14  C   LIG    1      -23.183  76.600  36.111  0.00  0.00    +0.107 C 
BRANCH  11  15
ATOM     15  C   LIG    1      -21.972  79.780  36.383  0.00  0.00    +0.011 A 
ATOM     16  C   LIG    1      -21.027  80.815  36.366  0.00  0.00    +0.129 A 
ATOM     17  F   LIG    1      -19.719  80.520  36.378  0.00  0.00    -0.205 F 
ATOM     18  C   LIG    1      -21.413  82.161  36.327  0.00  0.00    +0.041 A 
ATOM     19  C   LIG    1      -22.766  82.494  36.301  0.00  0.00    +0.041 A 
ATOM     20  C   LIG    1      -23.712  81.478  36.319  0.00  0.00    +0.124 A 
ATOM     21  F   LIG    1      -25.016  81.783  36.284  0.00  0.00    -0.205 F 
ATOM     22  C   LIG    1      -23.330  80.141  36.370  0.00  0.00    +0.046 A 
ENDBRANCH  11  15
ENDBRANCH   4  10
BRANCH   1  25
ATOM     23  N   LIG    1      -25.611  76.204  31.256  0.00  0.00    -0.190 N 
ATOM     24  H   LIG    1      -25.027  75.575  31.827  0.00  0.00    +0.183 HD
ATOM     25  C   LIG    1      -25.142  77.396  30.764  0.00  0.00    +0.272 C 
ATOM     26  O   LIG    1      -25.843  78.304  30.318  0.00  0.00    -0.268 OA
BRANCH  23  27
ATOM     27  O   LIG    1      -27.008  76.002  31.310  0.00  0.00    -0.277 OA
BRANCH  27  28
ATOM     28  C   LIG    1      -27.458  76.462  32.591  0.00  0.00    +0.223 C 
BRANCH  28  29
ATOM     29  C   LIG    1      -28.792  77.205  32.465  0.00  0.00    +0.168 C 
BRANCH  29  30
ATOM     30  O   LIG    1      -28.759  78.038  31.298  0.00  0.00    -0.387 OA
ATOM     31  H   LIG    1      -29.700  78.278  31.161  0.00  0.00    +0.210 HD
ENDBRANCH  29  30
BRANCH  29  32
ATOM     32  C   LIG    1      -30.004  76.269  32.375  0.00  0.00    +0.189 C 
BRANCH  32  33
ATOM     33  O   LIG    1      -29.812  75.284  31.362  0.00  0.00    -0.392 OA
ATOM     34  H   LIG    1      -30.004  75.711  30.507  0.00  0.00    +0.210 HD
ENDBRANCH  32  33
ENDBRANCH  29  32
ENDBRANCH  28  29
ENDBRANCH  27  28
ENDBRANCH  23  27
ENDBRANCH   1  25
TORSDOF 9
ENDMDL
MODEL 7
REMARK VINA RESULT:      -5.4      3.159      5.401
REMARK  Name = pdb/CHEMBL3675963.pdb
REMARK                            x       y       z     vdW  Elec       q    Type
REMARK                         _______ _______ _______ _____ _____    ______ ____
ROOT
ATOM      1  C   LIG    1      -22.737  81.885  16.127  0.00  0.00    +0.102 A 
ATOM      2  C   LIG    1      -23.346  81.429  14.957  0.00  0.00    +0.170 A 
ATOM      3  N   LIG    1      -24.058  82.077  13.980  0.00  0.00    -0.212 NA
ATOM      4  C   LIG    1      -24.550  81.354  12.993  0.00  0.00    +0.126 A 
ATOM      5  C   LIG    1      -24.339  79.859  12.925  0.00  0.00    +0.063 A 
ATOM      6  C   LIG    1      -23.597  79.294  13.879  0.00  0.00    +0.118 A 
ATOM      7  N   LIG    1      -23.087  80.060  14.909  0.00  0.00    -0.221 N 
ATOM      8  N   LIG    1      -22.326  79.640  15.947  0.00  0.00    -0.173 NA
ATOM      9  C   LIG    1      -22.126  80.740  16.667  0.00  0.00    +0.150 A 
ENDROOT
BRANCH   4  10
ATOM     10  N   LIG    1      -25.252  81.972  11.973  0.00  0.00    -0.308 N 
ATOM     11  C   LIG    1      -25.351  83.434  11.816  0.00  0.00    +0.108 C 
ATOM     12  C   LIG    1      -26.534  83.610  10.846  0.00  0.00    +0.029 C 
ATOM     13  C   LIG    1      -26.525  82.344  10.006  0.00  0.00    +0.021 C 
ATOM     14  C   LIG    1      -26.054  81.271  10.975  0.00  0.00    +0.107 C 
BRANCH  11  15
ATOM     15  C   LIG    1      -24.053  84.020  11.283  0.00  0.00    +0.011 A 
ATOM     16  C   LIG    1      -23.754  85.372  11.498  0.00  0.00    +0.129 A 
ATOM     17  F   LIG    1      -24.621  86.145  12.169  0.00  0.00    -0.205 F 
ATOM     18  C   LIG    1      -22.562  85.943  11.037  0.00  0.00    +0.041 A 
ATOM     19  C   LIG    1      -21.638  85.159  10.348  0.00  0.00    +0.041 A 
ATOM     20  C   LIG    1      -21.922  83.819  10.126  0.00  0.00    +0.124 A 
ATOM     21  F   LIG    1      -21.039  83.050   9.475  0.00  0.00    -0.205 F 
ATOM     22  C   LIG    1      -23.113  83.253  10.574  0.00  0.00    +0.046 A 
ENDBRANCH  11  15
ENDBRANCH   4  10
BRANCH   1  25
ATOM     23  N   LIG    1      -22.648  84.181  15.659  0.00  0.00    -0.190 N 
ATOM     24  H   LIG    1      -22.922  83.969  14.689  0.00  0.00    +0.183 HD
ATOM     25  C   LIG    1      -22.671  83.234  16.652  0.00  0.00    +0.272 C 
ATOM     26  O   LIG    1      -22.622  83.471  17.859  0.00  0.00    -0.268 OA
BRANCH  23  27
ATOM     27  O   LIG    1      -22.615  85.544  16.030  0.00  0.00    -0.277 OA
BRANCH  27  28
ATOM     28  C   LIG    1      -22.535  86.314  14.824  0.00  0.00    +0.223 C 
BRANCH  28  29
ATOM     29  C   LIG    1      -21.235  87.122  14.780  0.00  0.00    +0.168 C 
BRANCH  29  30
ATOM     30  O   LIG    1      -20.794  87.380  16.119  0.00  0.00    -0.387 OA
ATOM     31  H   LIG    1      -19.991  86.826  16.208  0.00  0.00    +0.210 HD
ENDBRANCH  29  30
BRANCH  29  32
ATOM     32  C   LIG    1      -20.108  86.420  14.011  0.00  0.00    +0.189 C 
BRANCH  32  33
ATOM     33  O   LIG    1      -18.985  87.284  13.853  0.00  0.00    -0.392 OA
ATOM     34  H   LIG    1      -18.443  87.200  14.660  0.00  0.00    +0.210 HD
ENDBRANCH  32  33
ENDBRANCH  29  32
ENDBRANCH  28  29
ENDBRANCH  27  28
ENDBRANCH  23  27
ENDBRANCH   1  25
TORSDOF 9
ENDMDL
MODEL 8
REMARK VINA RESULT:      -5.4     19.757     22.026
REMARK  Name = pdb/CHEMBL3675963.pdb
REMARK                            x       y       z     vdW  Elec       q    Type
REMARK                         _______ _______ _______ _____ _____    ______ ____
ROOT
ATOM      1  C   LIG    1      -35.931  79.509  28.261  0.00  0.00    +0.102 A 
ATOM      2  C   LIG    1      -37.041  78.735  27.919  0.00  0.00    +0.170 A 
ATOM      3  N   LIG    1      -37.840  78.717  26.804  0.00  0.00    -0.212 NA
ATOM      4  C   LIG    1      -38.857  77.879  26.787  0.00  0.00    +0.126 A 
ATOM      5  C   LIG    1      -39.145  76.959  27.952  0.00  0.00    +0.063 A 
ATOM      6  C   LIG    1      -38.305  76.990  28.988  0.00  0.00    +0.118 A 
ATOM      7  N   LIG    1      -37.241  77.872  28.995  0.00  0.00    -0.221 N 
ATOM      8  N   LIG    1      -36.309  78.028  29.965  0.00  0.00    -0.173 NA
ATOM      9  C   LIG    1      -35.535  79.010  29.514  0.00  0.00    +0.150 A 
ENDROOT
BRANCH   4  10
ATOM     10  N   LIG    1      -39.672  77.809  25.670  0.00  0.00    -0.308 N 
ATOM     11  C   LIG    1      -39.241  77.251  24.377  0.00  0.00    +0.108 C 
ATOM     12  C   LIG    1      -40.301  77.774  23.391  0.00  0.00    +0.029 C 
ATOM     13  C   LIG    1      -41.555  77.932  24.233  0.00  0.00    +0.021 C 
ATOM     14  C   LIG    1      -41.023  78.353  25.595  0.00  0.00    +0.107 C 
BRANCH  11  15
ATOM     15  C   LIG    1      -39.174  75.732  24.428  0.00  0.00    +0.011 A 
ATOM     16  C   LIG    1      -38.026  75.097  24.922  0.00  0.00    +0.129 A 
ATOM     17  F   LIG    1      -36.988  75.835  25.342  0.00  0.00    -0.205 F 
ATOM     18  C   LIG    1      -37.935  73.702  25.000  0.00  0.00    +0.041 A 
ATOM     19  C   LIG    1      -39.005  72.913  24.582  0.00  0.00    +0.041 A 
ATOM     20  C   LIG    1      -40.147  73.528  24.089  0.00  0.00    +0.124 A 
ATOM     21  F   LIG    1      -41.187  72.783  23.694  0.00  0.00    -0.205 F 
ATOM     22  C   LIG    1      -40.234  74.915  24.000  0.00  0.00    +0.046 A 
ENDBRANCH  11  15
ENDBRANCH   4  10
BRANCH   1  25
ATOM     23  N   LIG    1      -36.100  81.612  27.239  0.00  0.00    -0.190 N 
ATOM     24  H   LIG    1      -36.972  81.770  27.764  0.00  0.00    +0.183 HD
ATOM     25  C   LIG    1      -35.273  80.546  27.492  0.00  0.00    +0.272 C 
ATOM     26  O   LIG    1      -34.110  80.444  27.106  0.00  0.00    -0.268 OA
BRANCH  23  27
ATOM     27  O   LIG    1      -35.577  82.712  26.522  0.00  0.00    -0.277 OA
BRANCH  27  28
ATOM     28  C   LIG    1      -36.642  83.250  25.728  0.00  0.00    +0.223 C 
BRANCH  28  29
ATOM     29  C   LIG    1      -37.000  84.668  26.185  0.00  0.00    +0.168 C 
BRANCH  29  30
ATOM     30  O   LIG    1      -36.921  84.736  27.614  0.00  0.00    -0.387 OA
ATOM     31  H   LIG    1      -36.516  85.613  27.781  0.00  0.00    +0.210 HD
ENDBRANCH  29  30
BRANCH  29  32
ATOM     32  C   LIG    1      -36.091  85.748  25.583  0.00  0.00    +0.189 C 
BRANCH  32  33
ATOM     33  O   LIG    1      -34.723  85.348  25.634  0.00  0.00    -0.392 OA
ATOM     34  H   LIG    1      -34.625  84.589  25.029  0.00  0.00    +0.210 HD
ENDBRANCH  32  33
ENDBRANCH  29  32
ENDBRANCH  28  29
ENDBRANCH  27  28
ENDBRANCH  23  27
ENDBRANCH   1  25
TORSDOF 9
ENDMDL
MODEL 9
REMARK VINA RESULT:      -5.4      3.362      6.625
REMARK  Name = pdb/CHEMBL3675963.pdb
REMARK                            x       y       z     vdW  Elec       q    Type
REMARK                         _______ _______ _______ _____ _____    ______ ____
ROOT
ATOM      1  C   LIG    1      -24.452  81.640  13.045  0.00  0.00    +0.102 A 
ATOM      2  C   LIG    1      -23.575  82.448  12.321  0.00  0.00    +0.170 A 
ATOM      3  N   LIG    1      -22.415  83.090  12.674  0.00  0.00    -0.212 NA
ATOM      4  C   LIG    1      -21.815  83.826  11.760  0.00  0.00    +0.126 A 
ATOM      5  C   LIG    1      -22.373  83.964  10.361  0.00  0.00    +0.063 A 
ATOM      6  C   LIG    1      -23.478  83.277  10.065  0.00  0.00    +0.118 A 
ATOM      7  N   LIG    1      -24.099  82.509  11.031  0.00  0.00    -0.221 N 
ATOM      8  N   LIG    1      -25.221  81.763  10.893  0.00  0.00    -0.173 NA
ATOM      9  C   LIG    1      -25.421  81.251  12.103  0.00  0.00    +0.150 A 
ENDROOT
BRANCH   4  10
ATOM     10  N   LIG    1      -20.627  84.469  12.066  0.00  0.00    -0.308 N 
ATOM     11  C   LIG    1      -20.391  85.904  11.833  0.00  0.00    +0.108 C 
ATOM     12  C   LIG    1      -18.859  86.033  11.924  0.00  0.00    +0.029 C 
ATOM     13  C   LIG    1      -18.442  84.921  12.870  0.00  0.00    +0.021 C 
ATOM     14  C   LIG    1      -19.431  83.804  12.573  0.00  0.00    +0.107 C 
BRANCH  11  15
ATOM     15  C   LIG    1      -21.121  86.756  12.859  0.00  0.00    +0.011 A 
ATOM     16  C   LIG    1      -21.969  87.790  12.436  0.00  0.00    +0.129 A 
ATOM     17  F   LIG    1      -22.124  88.026  11.125  0.00  0.00    -0.205 F 
ATOM     18  C   LIG    1      -22.670  88.585  13.350  0.00  0.00    +0.041 A 
ATOM     19  C   LIG    1      -22.536  88.352  14.718  0.00  0.00    +0.041 A 
ATOM     20  C   LIG    1      -21.699  87.333  15.150  0.00  0.00    +0.124 A 
ATOM     21  F   LIG    1      -21.568  87.091  16.461  0.00  0.00    -0.205 F 
ATOM     22  C   LIG    1      -20.992  86.550  14.242  0.00  0.00    +0.046 A 
ENDBRANCH  11  15
ENDBRANCH   4  10
BRANCH   1  25
ATOM     23  N   LIG    1      -23.216  81.647  15.037  0.00  0.00    -0.190 N 
ATOM     24  H   LIG    1      -22.626  82.392  14.640  0.00  0.00    +0.183 HD
ATOM     25  C   LIG    1      -24.372  81.223  14.431  0.00  0.00    +0.272 C 
ATOM     26  O   LIG    1      -25.249  80.548  14.969  0.00  0.00    -0.268 OA
BRANCH  23  27
ATOM     27  O   LIG    1      -23.020  81.335  16.402  0.00  0.00    -0.277 OA
BRANCH  27  28
ATOM     28  C   LIG    1      -22.014  80.316  16.467  0.00  0.00    +0.223 C 
BRANCH  28  29
ATOM     29  C   LIG    1      -20.673  80.840  15.944  0.00  0.00    +0.168 C 
BRANCH  29  30
ATOM     30  O   LIG    1      -20.492  82.192  16.384  0.00  0.00    -0.387 OA
ATOM     31  H   LIG    1      -19.906  82.580  15.701  0.00  0.00    +0.210 HD
ENDBRANCH  29  30
BRANCH  29  32
ATOM     32  C   LIG    1      -19.473  80.002  16.402  0.00  0.00    +0.189 C 
BRANCH  32  33
ATOM     33  O   LIG    1      -18.294  80.800  16.479  0.00  0.00    -0.392 OA
ATOM     34  H   LIG    1      -18.003  80.970  15.564  0.00  0.00    +0.210 HD
ENDBRANCH  32  33
ENDBRANCH  29  32
ENDBRANCH  28  29
ENDBRANCH  27  28
ENDBRANCH  23  27
ENDBRANCH   1  25
TORSDOF 9
ENDMDL
