MODEL 1
REMARK VINA RESULT:      -5.7      0.000      0.000
REMARK  Name = pdb/CHEMBL3659499.pdb
REMARK                            x       y       z     vdW  Elec       q    Type
REMARK                         _______ _______ _______ _____ _____    ______ ____
ROOT
ATOM      1  N   LIG    1      -40.035  78.297  24.099  0.00  0.00    -0.266 N 
ATOM      2  C   LIG    1      -39.300  77.201  24.514  0.00  0.00    +0.168 A 
ATOM      3  N   LIG    1      -38.088  77.179  25.110  0.00  0.00    -0.213 NA
ATOM      4  C   LIG    1      -37.611  75.943  25.366  0.00  0.00    +0.122 A 
ATOM      5  C   LIG    1      -38.302  74.772  25.036  0.00  0.00    +0.046 A 
ATOM      6  C   LIG    1      -39.557  74.832  24.422  0.00  0.00    +0.035 A 
ATOM      7  C   LIG    1      -40.075  76.102  24.164  0.00  0.00    +0.108 A 
ATOM      8  N   LIG    1      -41.265  76.479  23.605  0.00  0.00    -0.234 NA
ATOM      9  C   LIG    1      -41.217  77.795  23.596  0.00  0.00    +0.207 A 
ENDROOT
BRANCH   1  14
ATOM     10  C   LIG    1      -39.162  81.719  24.779  0.00  0.00    +0.213 A 
ATOM     11  N   LIG    1      -39.038  81.545  23.424  0.00  0.00    -0.245 N 
ATOM     12  H   LIG    1      -38.744  82.234  22.744  0.00  0.00    +0.192 HD
ATOM     13  N   LIG    1      -39.354  80.301  23.005  0.00  0.00    -0.153 NA
ATOM     14  C   LIG    1      -39.665  79.668  24.142  0.00  0.00    +0.165 A 
ATOM     15  C   LIG    1      -39.556  80.496  25.271  0.00  0.00    +0.115 A 
BRANCH  10  16
ATOM     16  O   LIG    1      -38.903  82.911  25.321  0.00  0.00    -0.477 OA
BRANCH  16  18
ATOM     17  C   LIG    1      -36.571  83.530  25.417  0.00  0.00    +0.048 C 
ATOM     18  C   LIG    1      -37.886  83.682  24.675  0.00  0.00    +0.227 C 
ENDBRANCH  16  18
ENDBRANCH  10  16
ENDBRANCH   1  14
BRANCH   4  19
ATOM     19  N   LIG    1      -36.406  75.791  26.063  0.00  0.00    -0.319 N 
ATOM     20  H   LIG    1      -35.607  76.006  25.466  0.00  0.00    +0.148 HD
BRANCH  19  21
ATOM     21  C   LIG    1      -36.280  76.496  27.353  0.00  0.00    +0.136 C 
ATOM     22  C   LIG    1      -36.377  75.483  28.500  0.00  0.00    +0.036 C 
BRANCH  21  23
ATOM     23  C   LIG    1      -34.947  77.260  27.436  0.00  0.00    +0.149 A 
ATOM     24  N   LIG    1      -33.801  76.600  27.124  0.00  0.00    -0.236 NA
ATOM     25  C   LIG    1      -32.655  77.316  27.181  0.00  0.00    +0.152 A 
ATOM     26  C   LIG    1      -32.614  78.648  27.509  0.00  0.00    +0.159 A 
ATOM     27  F   LIG    1      -31.465  79.333  27.552  0.00  0.00    -0.202 F 
ATOM     28  C   LIG    1      -33.820  79.240  27.783  0.00  0.00    +0.152 A 
ATOM     29  N   LIG    1      -34.997  78.578  27.749  0.00  0.00    -0.236 NA
ENDBRANCH  21  23
ENDBRANCH  19  21
ENDBRANCH   4  19
TORSDOF 6
ENDMDL
MODEL 2
REMARK VINA RESULT:      -5.7     13.661     17.572
REMARK  Name = pdb/CHEMBL3659499.pdb
REMARK                            x       y       z     vdW  Elec       q    Type
REMARK                         _______ _______ _______ _____ _____    ______ ____
ROOT
ATOM      1  N   LIG    1      -21.586  77.208  30.627  0.00  0.00    -0.266 N 
ATOM      2  C   LIG    1      -20.786  77.767  31.607  0.00  0.00    +0.168 A 
ATOM      3  N   LIG    1      -21.163  78.425  32.726  0.00  0.00    -0.213 NA
ATOM      4  C   LIG    1      -20.142  78.887  33.477  0.00  0.00    +0.122 A 
ATOM      5  C   LIG    1      -18.798  78.714  33.130  0.00  0.00    +0.046 A 
ATOM      6  C   LIG    1      -18.443  78.024  31.967  0.00  0.00    +0.035 A 
ATOM      7  C   LIG    1      -19.485  77.524  31.185  0.00  0.00    +0.108 A 
ATOM      8  N   LIG    1      -19.456  76.801  30.024  0.00  0.00    -0.234 NA
ATOM      9  C   LIG    1      -20.725  76.615  29.726  0.00  0.00    +0.207 A 
ENDROOT
BRANCH   1  14
ATOM     10  C   LIG    1      -25.164  76.878  30.757  0.00  0.00    +0.213 A 
ATOM     11  N   LIG    1      -24.897  77.906  29.889  0.00  0.00    -0.245 N 
ATOM     12  H   LIG    1      -25.569  78.475  29.391  0.00  0.00    +0.192 HD
ATOM     13  N   LIG    1      -23.580  78.143  29.717  0.00  0.00    -0.153 NA
ATOM     14  C   LIG    1      -23.002  77.245  30.524  0.00  0.00    +0.165 A 
ATOM     15  C   LIG    1      -23.936  76.442  31.197  0.00  0.00    +0.115 A 
BRANCH  10  16
ATOM     16  O   LIG    1      -26.429  76.525  30.997  0.00  0.00    -0.477 OA
BRANCH  16  18
ATOM     17  C   LIG    1      -27.167  76.640  33.293  0.00  0.00    +0.048 C 
ATOM     18  C   LIG    1      -26.647  75.750  32.179  0.00  0.00    +0.227 C 
ENDBRANCH  16  18
ENDBRANCH  10  16
ENDBRANCH   1  14
BRANCH   4  19
ATOM     19  N   LIG    1      -20.405  79.506  34.705  0.00  0.00    -0.319 N 
ATOM     20  H   LIG    1      -20.421  80.521  34.608  0.00  0.00    +0.148 HD
BRANCH  19  21
ATOM     21  C   LIG    1      -21.592  79.048  35.450  0.00  0.00    +0.136 C 
ATOM     22  C   LIG    1      -21.147  78.249  36.681  0.00  0.00    +0.036 C 
BRANCH  21  23
ATOM     23  C   LIG    1      -22.466  80.240  35.883  0.00  0.00    +0.149 A 
ATOM     24  N   LIG    1      -21.866  81.443  36.082  0.00  0.00    -0.236 NA
ATOM     25  C   LIG    1      -22.674  82.471  36.432  0.00  0.00    +0.152 A 
ATOM     26  C   LIG    1      -24.034  82.349  36.565  0.00  0.00    +0.159 A 
ATOM     27  F   LIG    1      -24.809  83.385  36.908  0.00  0.00    -0.202 F 
ATOM     28  C   LIG    1      -24.556  81.105  36.320  0.00  0.00    +0.152 A 
ATOM     29  N   LIG    1      -23.802  80.039  35.972  0.00  0.00    -0.236 NA
ENDBRANCH  21  23
ENDBRANCH  19  21
ENDBRANCH   4  19
TORSDOF 6
ENDMDL
MODEL 3
REMARK VINA RESULT:      -5.6     13.817     18.315
REMARK  Name = pdb/CHEMBL3659499.pdb
REMARK                            x       y       z     vdW  Elec       q    Type
REMARK                         _______ _______ _______ _____ _____    ______ ____
ROOT
ATOM      1  N   LIG    1      -21.774  77.458  31.015  0.00  0.00    -0.266 N 
ATOM      2  C   LIG    1      -21.091  78.010  32.084  0.00  0.00    +0.168 A 
ATOM      3  N   LIG    1      -21.595  78.565  33.208  0.00  0.00    -0.213 NA
ATOM      4  C   LIG    1      -20.669  79.052  34.059  0.00  0.00    +0.122 A 
ATOM      5  C   LIG    1      -19.294  79.001  33.804  0.00  0.00    +0.046 A 
ATOM      6  C   LIG    1      -18.806  78.416  32.631  0.00  0.00    +0.035 A 
ATOM      7  C   LIG    1      -19.748  77.892  31.746  0.00  0.00    +0.108 A 
ATOM      8  N   LIG    1      -19.582  77.250  30.550  0.00  0.00    -0.234 NA
ATOM      9  C   LIG    1      -20.809  76.990  30.147  0.00  0.00    +0.207 A 
ENDROOT
BRANCH   1  14
ATOM     10  C   LIG    1      -25.322  76.887  30.892  0.00  0.00    +0.213 A 
ATOM     11  N   LIG    1      -25.062  77.919  30.027  0.00  0.00    -0.245 N 
ATOM     12  H   LIG    1      -25.732  78.434  29.472  0.00  0.00    +0.192 HD
ATOM     13  N   LIG    1      -23.754  78.243  29.947  0.00  0.00    -0.153 NA
ATOM     14  C   LIG    1      -23.178  77.398  30.809  0.00  0.00    +0.165 A 
ATOM     15  C   LIG    1      -24.103  76.541  31.428  0.00  0.00    +0.115 A 
BRANCH  10  16
ATOM     16  O   LIG    1      -26.574  76.451  31.047  0.00  0.00    -0.477 OA
BRANCH  16  18
ATOM     17  C   LIG    1      -28.744  76.756  32.062  0.00  0.00    +0.048 C 
ATOM     18  C   LIG    1      -27.241  76.880  32.238  0.00  0.00    +0.227 C 
ENDBRANCH  16  18
ENDBRANCH  10  16
ENDBRANCH   1  14
BRANCH   4  19
ATOM     19  N   LIG    1      -21.063  79.569  35.299  0.00  0.00    -0.319 N 
ATOM     20  H   LIG    1      -20.440  79.255  36.042  0.00  0.00    +0.148 HD
BRANCH  19  21
ATOM     21  C   LIG    1      -21.265  81.027  35.388  0.00  0.00    +0.136 C 
ATOM     22  C   LIG    1      -22.767  81.334  35.431  0.00  0.00    +0.036 C 
BRANCH  21  23
ATOM     23  C   LIG    1      -20.572  81.605  36.635  0.00  0.00    +0.149 A 
ATOM     24  N   LIG    1      -20.792  82.909  36.951  0.00  0.00    -0.236 NA
ATOM     25  C   LIG    1      -20.189  83.368  38.072  0.00  0.00    +0.152 A 
ATOM     26  C   LIG    1      -19.409  82.585  38.884  0.00  0.00    +0.159 A 
ATOM     27  F   LIG    1      -18.828  83.066  39.990  0.00  0.00    -0.202 F 
ATOM     28  C   LIG    1      -19.263  81.276  38.502  0.00  0.00    +0.152 A 
ATOM     29  N   LIG    1      -19.835  80.758  37.393  0.00  0.00    -0.236 NA
ENDBRANCH  21  23
ENDBRANCH  19  21
ENDBRANCH   4  19
TORSDOF 6
ENDMDL
MODEL 4
REMARK VINA RESULT:      -5.2      3.982      7.001
REMARK  Name = pdb/CHEMBL3659499.pdb
REMARK                            x       y       z     vdW  Elec       q    Type
REMARK                         _______ _______ _______ _____ _____    ______ ____
ROOT
ATOM      1  N   LIG    1      -38.932  71.543  24.232  0.00  0.00    -0.266 N 
ATOM      2  C   LIG    1      -39.703  72.685  24.104  0.00  0.00    +0.168 A 
ATOM      3  N   LIG    1      -39.450  73.927  24.575  0.00  0.00    -0.213 NA
ATOM      4  C   LIG    1      -40.415  74.832  24.316  0.00  0.00    +0.122 A 
ATOM      5  C   LIG    1      -41.593  74.521  23.626  0.00  0.00    +0.046 A 
ATOM      6  C   LIG    1      -41.820  73.226  23.150  0.00  0.00    +0.035 A 
ATOM      7  C   LIG    1      -40.825  72.279  23.393  0.00  0.00    +0.108 A 
ATOM      8  N   LIG    1      -40.749  70.959  23.040  0.00  0.00    -0.234 NA
ATOM      9  C   LIG    1      -39.600  70.554  23.541  0.00  0.00    +0.207 A 
ENDROOT
BRANCH   1  14
ATOM     10  C   LIG    1      -36.180  71.149  26.513  0.00  0.00    +0.213 A 
ATOM     11  N   LIG    1      -35.650  71.104  25.249  0.00  0.00    -0.245 N 
ATOM     12  H   LIG    1      -34.680  70.971  24.998  0.00  0.00    +0.192 HD
ATOM     13  N   LIG    1      -36.567  71.259  24.270  0.00  0.00    -0.153 NA
ATOM     14  C   LIG    1      -37.715  71.383  24.946  0.00  0.00    +0.165 A 
ATOM     15  C   LIG    1      -37.535  71.314  26.337  0.00  0.00    +0.115 A 
BRANCH  10  16
ATOM     16  O   LIG    1      -35.377  71.033  27.573  0.00  0.00    -0.477 OA
BRANCH  16  18
ATOM     17  C   LIG    1      -35.048  73.302  28.331  0.00  0.00    +0.048 C 
ATOM     18  C   LIG    1      -34.401  72.066  27.732  0.00  0.00    +0.227 C 
ENDBRANCH  16  18
ENDBRANCH  10  16
ENDBRANCH   1  14
BRANCH   4  19
ATOM     19  N   LIG    1      -40.228  76.173  24.673  0.00  0.00    -0.319 N 
ATOM     20  H   LIG    1      -40.394  76.314  25.670  0.00  0.00    +0.148 HD
BRANCH  19  21
ATOM     21  C   LIG    1      -38.955  76.805  24.277  0.00  0.00    +0.136 C 
ATOM     22  C   LIG    1      -39.243  78.134  23.569  0.00  0.00    +0.036 C 
BRANCH  21  23
ATOM     23  C   LIG    1      -38.052  77.043  25.500  0.00  0.00    +0.149 A 
ATOM     24  N   LIG    1      -36.949  76.264  25.652  0.00  0.00    -0.236 NA
ATOM     25  C   LIG    1      -36.167  76.526  26.724  0.00  0.00    +0.152 A 
ATOM     26  C   LIG    1      -36.427  77.532  27.620  0.00  0.00    +0.159 A 
ATOM     27  F   LIG    1      -35.632  77.771  28.669  0.00  0.00    -0.202 F 
ATOM     28  C   LIG    1      -37.547  78.284  27.375  0.00  0.00    +0.152 A 
ATOM     29  N   LIG    1      -38.371  78.069  26.325  0.00  0.00    -0.236 NA
ENDBRANCH  21  23
ENDBRANCH  19  21
ENDBRANCH   4  19
TORSDOF 6
ENDMDL
MODEL 5
REMARK VINA RESULT:      -5.2     14.475     17.256
REMARK  Name = pdb/CHEMBL3659499.pdb
REMARK                            x       y       z     vdW  Elec       q    Type
REMARK                         _______ _______ _______ _____ _____    ______ ____
ROOT
ATOM      1  N   LIG    1      -24.862  77.821  32.538  0.00  0.00    -0.266 N 
ATOM      2  C   LIG    1      -24.584  78.640  33.617  0.00  0.00    +0.168 A 
ATOM      3  N   LIG    1      -23.558  79.506  33.772  0.00  0.00    -0.213 NA
ATOM      4  C   LIG    1      -23.537  80.145  34.961  0.00  0.00    +0.122 A 
ATOM      5  C   LIG    1      -24.490  79.929  35.962  0.00  0.00    +0.046 A 
ATOM      6  C   LIG    1      -25.541  79.028  35.766  0.00  0.00    +0.035 A 
ATOM      7  C   LIG    1      -25.589  78.370  34.537  0.00  0.00    +0.108 A 
ATOM      8  N   LIG    1      -26.491  77.465  34.048  0.00  0.00    -0.234 NA
ATOM      9  C   LIG    1      -26.038  77.169  32.847  0.00  0.00    +0.207 A 
ENDROOT
BRANCH   1  14
ATOM     10  C   LIG    1      -22.642  76.968  29.841  0.00  0.00    +0.213 A 
ATOM     11  N   LIG    1      -23.505  77.915  29.352  0.00  0.00    -0.245 N 
ATOM     12  H   LIG    1      -23.530  78.293  28.414  0.00  0.00    +0.192 HD
ATOM     13  N   LIG    1      -24.399  78.355  30.262  0.00  0.00    -0.153 NA
ATOM     14  C   LIG    1      -24.098  77.642  31.353  0.00  0.00    +0.165 A 
ATOM     15  C   LIG    1      -23.024  76.762  31.146  0.00  0.00    +0.115 A 
BRANCH  10  16
ATOM     16  O   LIG    1      -21.692  76.466  29.048  0.00  0.00    -0.477 OA
BRANCH  16  18
ATOM     17  C   LIG    1      -19.698  76.208  30.387  0.00  0.00    +0.048 C 
ATOM     18  C   LIG    1      -20.371  76.972  29.261  0.00  0.00    +0.227 C 
ENDBRANCH  16  18
ENDBRANCH  10  16
ENDBRANCH   1  14
BRANCH   4  19
ATOM     19  N   LIG    1      -22.575  81.132  35.205  0.00  0.00    -0.319 N 
ATOM     20  H   LIG    1      -22.998  81.960  35.624  0.00  0.00    +0.148 HD
BRANCH  19  21
ATOM     21  C   LIG    1      -21.378  80.733  35.968  0.00  0.00    +0.136 C 
ATOM     22  C   LIG    1      -21.767  80.465  37.427  0.00  0.00    +0.036 C 
BRANCH  21  23
ATOM     23  C   LIG    1      -20.727  79.478  35.358  0.00  0.00    +0.149 A 
ATOM     24  N   LIG    1      -20.862  78.295  36.013  0.00  0.00    -0.236 NA
ATOM     25  C   LIG    1      -20.301  77.212  35.426  0.00  0.00    +0.152 A 
ATOM     26  C   LIG    1      -19.644  77.262  34.223  0.00  0.00    +0.159 A 
ATOM     27  F   LIG    1      -19.103  76.173  33.665  0.00  0.00    -0.202 F 
ATOM     28  C   LIG    1      -19.578  78.492  33.621  0.00  0.00    +0.152 A 
ATOM     29  N   LIG    1      -20.113  79.611  34.157  0.00  0.00    -0.236 NA
ENDBRANCH  21  23
ENDBRANCH  19  21
ENDBRANCH   4  19
TORSDOF 6
ENDMDL
MODEL 6
REMARK VINA RESULT:      -5.2      5.586      8.198
REMARK  Name = pdb/CHEMBL3659499.pdb
REMARK                            x       y       z     vdW  Elec       q    Type
REMARK                         _______ _______ _______ _____ _____    ______ ____
ROOT
ATOM      1  N   LIG    1      -32.113  76.321  28.638  0.00  0.00    -0.266 N 
ATOM      2  C   LIG    1      -32.717  75.076  28.636  0.00  0.00    +0.168 A 
ATOM      3  N   LIG    1      -33.761  74.650  27.890  0.00  0.00    -0.213 NA
ATOM      4  C   LIG    1      -34.148  73.382  28.140  0.00  0.00    +0.122 A 
ATOM      5  C   LIG    1      -33.532  72.568  29.098  0.00  0.00    +0.046 A 
ATOM      6  C   LIG    1      -32.452  73.041  29.849  0.00  0.00    +0.035 A 
ATOM      7  C   LIG    1      -32.026  74.344  29.593  0.00  0.00    +0.108 A 
ATOM      8  N   LIG    1      -31.000  75.067  30.139  0.00  0.00    -0.234 NA
ATOM      9  C   LIG    1      -31.069  76.236  29.536  0.00  0.00    +0.207 A 
ENDROOT
BRANCH   1  14
ATOM     10  C   LIG    1      -33.400  79.364  27.220  0.00  0.00    +0.213 A 
ATOM     11  N   LIG    1      -32.473  78.881  26.332  0.00  0.00    -0.245 N 
ATOM     12  H   LIG    1      -32.190  79.299  25.456  0.00  0.00    +0.192 HD
ATOM     13  N   LIG    1      -31.907  77.718  26.718  0.00  0.00    -0.153 NA
ATOM     14  C   LIG    1      -32.485  77.477  27.901  0.00  0.00    +0.165 A 
ATOM     15  C   LIG    1      -33.411  78.468  28.264  0.00  0.00    +0.115 A 
BRANCH  10  16
ATOM     16  O   LIG    1      -34.051  80.497  26.946  0.00  0.00    -0.477 OA
BRANCH  16  18
ATOM     17  C   LIG    1      -35.907  81.978  27.387  0.00  0.00    +0.048 C 
ATOM     18  C   LIG    1      -34.927  80.977  27.971  0.00  0.00    +0.227 C 
ENDBRANCH  16  18
ENDBRANCH  10  16
ENDBRANCH   1  14
BRANCH   4  19
ATOM     19  N   LIG    1      -35.160  72.797  27.369  0.00  0.00    -0.319 N 
ATOM     20  H   LIG    1      -34.786  72.424  26.496  0.00  0.00    +0.148 HD
BRANCH  19  21
ATOM     21  C   LIG    1      -36.012  71.789  28.028  0.00  0.00    +0.136 C 
ATOM     22  C   LIG    1      -37.235  72.478  28.643  0.00  0.00    +0.036 C 
BRANCH  21  23
ATOM     23  C   LIG    1      -36.462  70.709  27.028  0.00  0.00    +0.149 A 
ATOM     24  N   LIG    1      -36.323  70.958  25.699  0.00  0.00    -0.236 NA
ATOM     25  C   LIG    1      -36.702  69.971  24.856  0.00  0.00    +0.152 A 
ATOM     26  C   LIG    1      -37.184  68.758  25.282  0.00  0.00    +0.159 A 
ATOM     27  F   LIG    1      -37.548  67.798  24.424  0.00  0.00    -0.202 F 
ATOM     28  C   LIG    1      -37.266  68.585  26.640  0.00  0.00    +0.152 A 
ATOM     29  N   LIG    1      -36.908  69.533  27.532  0.00  0.00    -0.236 NA
ENDBRANCH  21  23
ENDBRANCH  19  21
ENDBRANCH   4  19
TORSDOF 6
ENDMDL
MODEL 7
REMARK VINA RESULT:      -5.1      5.629      7.868
REMARK  Name = pdb/CHEMBL3659499.pdb
REMARK                            x       y       z     vdW  Elec       q    Type
REMARK                         _______ _______ _______ _____ _____    ______ ____
ROOT
ATOM      1  N   LIG    1      -39.575  74.918  24.619  0.00  0.00    -0.266 N 
ATOM      2  C   LIG    1      -39.885  73.629  24.222  0.00  0.00    +0.168 A 
ATOM      3  N   LIG    1      -39.169  72.498  24.407  0.00  0.00    -0.213 NA
ATOM      4  C   LIG    1      -39.723  71.390  23.871  0.00  0.00    +0.122 A 
ATOM      5  C   LIG    1      -40.934  71.402  23.170  0.00  0.00    +0.046 A 
ATOM      6  C   LIG    1      -41.650  72.591  23.001  0.00  0.00    +0.035 A 
ATOM      7  C   LIG    1      -41.102  73.744  23.562  0.00  0.00    +0.108 A 
ATOM      8  N   LIG    1      -41.570  75.030  23.584  0.00  0.00    -0.234 NA
ATOM      9  C   LIG    1      -40.643  75.702  24.236  0.00  0.00    +0.207 A 
ENDROOT
BRANCH   1  14
ATOM     10  C   LIG    1      -36.741  75.727  26.680  0.00  0.00    +0.213 A 
ATOM     11  N   LIG    1      -36.590  76.432  25.513  0.00  0.00    -0.245 N 
ATOM     12  H   LIG    1      -35.827  77.048  25.266  0.00  0.00    +0.192 HD
ATOM     13  N   LIG    1      -37.597  76.246  24.633  0.00  0.00    -0.153 NA
ATOM     14  C   LIG    1      -38.394  75.376  25.263  0.00  0.00    +0.165 A 
ATOM     15  C   LIG    1      -37.909  75.015  26.530  0.00  0.00    +0.115 A 
BRANCH  10  16
ATOM     16  O   LIG    1      -35.826  75.840  27.645  0.00  0.00    -0.477 OA
BRANCH  16  18
ATOM     17  C   LIG    1      -33.548  76.607  27.418  0.00  0.00    +0.048 C 
ATOM     18  C   LIG    1      -35.002  77.008  27.590  0.00  0.00    +0.227 C 
ENDBRANCH  16  18
ENDBRANCH  10  16
ENDBRANCH   1  14
BRANCH   4  19
ATOM     19  N   LIG    1      -39.121  70.142  24.074  0.00  0.00    -0.319 N 
ATOM     20  H   LIG    1      -39.531  69.434  23.465  0.00  0.00    +0.148 HD
BRANCH  19  21
ATOM     21  C   LIG    1      -37.649  70.083  24.002  0.00  0.00    +0.136 C 
ATOM     22  C   LIG    1      -37.090  69.617  25.351  0.00  0.00    +0.036 C 
BRANCH  21  23
ATOM     23  C   LIG    1      -37.189  69.132  22.883  0.00  0.00    +0.149 A 
ATOM     24  N   LIG    1      -36.076  68.380  23.089  0.00  0.00    -0.236 NA
ATOM     25  C   LIG    1      -35.724  67.536  22.093  0.00  0.00    +0.152 A 
ATOM     26  C   LIG    1      -36.439  67.400  20.930  0.00  0.00    +0.159 A 
ATOM     27  F   LIG    1      -36.069  66.553  19.963  0.00  0.00    -0.202 F 
ATOM     28  C   LIG    1      -37.562  68.180  20.818  0.00  0.00    +0.152 A 
ATOM     29  N   LIG    1      -37.964  69.045  21.775  0.00  0.00    -0.236 NA
ENDBRANCH  21  23
ENDBRANCH  19  21
ENDBRANCH   4  19
TORSDOF 6
ENDMDL
MODEL 8
REMARK VINA RESULT:      -5.0      2.934      6.320
REMARK  Name = pdb/CHEMBL3659499.pdb
REMARK                            x       y       z     vdW  Elec       q    Type
REMARK                         _______ _______ _______ _____ _____    ______ ____
ROOT
ATOM      1  N   LIG    1      -33.872  77.122  28.190  0.00  0.00    -0.266 N 
ATOM      2  C   LIG    1      -34.685  76.022  27.982  0.00  0.00    +0.168 A 
ATOM      3  N   LIG    1      -35.932  75.986  27.462  0.00  0.00    -0.213 NA
ATOM      4  C   LIG    1      -36.485  74.756  27.416  0.00  0.00    +0.122 A 
ATOM      5  C   LIG    1      -35.833  73.606  27.876  0.00  0.00    +0.046 A 
ATOM      6  C   LIG    1      -34.541  73.680  28.405  0.00  0.00    +0.035 A 
ATOM      7  C   LIG    1      -33.946  74.941  28.445  0.00  0.00    +0.108 A 
ATOM      8  N   LIG    1      -32.706  75.325  28.877  0.00  0.00    -0.234 NA
ATOM      9  C   LIG    1      -32.687  76.629  28.696  0.00  0.00    +0.207 A 
ENDROOT
BRANCH   1  14
ATOM     10  C   LIG    1      -35.038  80.520  28.041  0.00  0.00    +0.213 A 
ATOM     11  N   LIG    1      -34.008  80.420  27.140  0.00  0.00    -0.245 N 
ATOM     12  H   LIG    1      -33.634  81.156  26.556  0.00  0.00    +0.192 HD
ATOM     13  N   LIG    1      -33.472  79.184  27.065  0.00  0.00    -0.153 NA
ATOM     14  C   LIG    1      -34.176  78.492  27.968  0.00  0.00    +0.165 A 
ATOM     15  C   LIG    1      -35.154  79.272  28.606  0.00  0.00    +0.115 A 
BRANCH  10  16
ATOM     16  O   LIG    1      -35.673  81.685  28.195  0.00  0.00    -0.477 OA
BRANCH  16  18
ATOM     17  C   LIG    1      -36.192  83.203  26.390  0.00  0.00    +0.048 C 
ATOM     18  C   LIG    1      -36.648  82.001  27.197  0.00  0.00    +0.227 C 
ENDBRANCH  16  18
ENDBRANCH  10  16
ENDBRANCH   1  14
BRANCH   4  19
ATOM     19  N   LIG    1      -37.738  74.576  26.816  0.00  0.00    -0.319 N 
ATOM     20  H   LIG    1      -38.421  75.234  27.190  0.00  0.00    +0.148 HD
BRANCH  19  21
ATOM     21  C   LIG    1      -37.785  74.578  25.342  0.00  0.00    +0.136 C 
ATOM     22  C   LIG    1      -38.369  73.250  24.847  0.00  0.00    +0.036 C 
BRANCH  21  23
ATOM     23  C   LIG    1      -38.630  75.753  24.819  0.00  0.00    +0.149 A 
ATOM     24  N   LIG    1      -38.050  76.979  24.729  0.00  0.00    -0.236 NA
ATOM     25  C   LIG    1      -38.818  77.977  24.236  0.00  0.00    +0.152 A 
ATOM     26  C   LIG    1      -40.112  77.797  23.816  0.00  0.00    +0.159 A 
ATOM     27  F   LIG    1      -40.847  78.803  23.328  0.00  0.00    -0.202 F 
ATOM     28  C   LIG    1      -40.607  76.522  23.918  0.00  0.00    +0.152 A 
ATOM     29  N   LIG    1      -39.893  75.484  24.406  0.00  0.00    -0.236 NA
ENDBRANCH  21  23
ENDBRANCH  19  21
ENDBRANCH   4  19
TORSDOF 6
ENDMDL
MODEL 9
REMARK VINA RESULT:      -5.0     10.918     13.642
REMARK  Name = pdb/CHEMBL3659499.pdb
REMARK                            x       y       z     vdW  Elec       q    Type
REMARK                         _______ _______ _______ _____ _____    ______ ____
ROOT
ATOM      1  N   LIG    1      -32.304  65.478  19.562  0.00  0.00    -0.266 N 
ATOM      2  C   LIG    1      -33.359  65.748  20.414  0.00  0.00    +0.168 A 
ATOM      3  N   LIG    1      -33.510  66.790  21.262  0.00  0.00    -0.213 NA
ATOM      4  C   LIG    1      -34.643  66.760  21.994  0.00  0.00    +0.122 A 
ATOM      5  C   LIG    1      -35.588  65.733  21.898  0.00  0.00    +0.046 A 
ATOM      6  C   LIG    1      -35.402  64.671  21.007  0.00  0.00    +0.035 A 
ATOM      7  C   LIG    1      -34.244  64.693  20.229  0.00  0.00    +0.108 A 
ATOM      8  N   LIG    1      -33.802  63.824  19.270  0.00  0.00    -0.234 NA
ATOM      9  C   LIG    1      -32.650  64.330  18.880  0.00  0.00    +0.207 A 
ENDROOT
BRANCH   1  14
ATOM     10  C   LIG    1      -29.532  67.658  18.857  0.00  0.00    +0.213 A 
ATOM     11  N   LIG    1      -29.065  66.697  19.717  0.00  0.00    -0.245 N 
ATOM     12  H   LIG    1      -28.131  66.618  20.096  0.00  0.00    +0.192 HD
ATOM     13  N   LIG    1      -29.995  65.781  20.064  0.00  0.00    -0.153 NA
ATOM     14  C   LIG    1      -31.088  66.198  19.416  0.00  0.00    +0.165 A 
ATOM     15  C   LIG    1      -30.860  67.360  18.660  0.00  0.00    +0.115 A 
BRANCH  10  16
ATOM     16  O   LIG    1      -28.706  68.610  18.417  0.00  0.00    -0.477 OA
BRANCH  16  18
ATOM     17  C   LIG    1      -28.060  70.309  20.006  0.00  0.00    +0.048 C 
ATOM     18  C   LIG    1      -28.990  69.938  18.865  0.00  0.00    +0.227 C 
ENDBRANCH  16  18
ENDBRANCH  10  16
ENDBRANCH   1  14
BRANCH   4  19
ATOM     19  N   LIG    1      -34.954  67.830  22.841  0.00  0.00    -0.319 N 
ATOM     20  H   LIG    1      -35.471  68.554  22.343  0.00  0.00    +0.148 HD
BRANCH  19  21
ATOM     21  C   LIG    1      -35.631  67.508  24.112  0.00  0.00    +0.136 C 
ATOM     22  C   LIG    1      -34.593  67.427  25.237  0.00  0.00    +0.036 C 
BRANCH  21  23
ATOM     23  C   LIG    1      -36.698  68.565  24.452  0.00  0.00    +0.149 A 
ATOM     24  N   LIG    1      -37.511  68.343  25.519  0.00  0.00    -0.236 NA
ATOM     25  C   LIG    1      -38.413  69.310  25.801  0.00  0.00    +0.152 A 
ATOM     26  C   LIG    1      -38.518  70.478  25.087  0.00  0.00    +0.159 A 
ATOM     27  F   LIG    1      -39.418  71.419  25.393  0.00  0.00    -0.202 F 
ATOM     28  C   LIG    1      -37.640  70.627  24.043  0.00  0.00    +0.152 A 
ATOM     29  N   LIG    1      -36.720  69.697  23.708  0.00  0.00    -0.236 NA
ENDBRANCH  21  23
ENDBRANCH  19  21
ENDBRANCH   4  19
TORSDOF 6
ENDMDL
