MODEL 1
REMARK VINA RESULT:      -5.8      0.000      0.000
REMARK  Name = pdb/CHEMBL3671157.pdb
REMARK                            x       y       z     vdW  Elec       q    Type
REMARK                         _______ _______ _______ _____ _____    ______ ____
ROOT
ATOM      1  C   LIG    1      -22.857  76.812  30.457  0.00  0.00    +0.100 A 
ATOM      2  C   LIG    1      -21.914  77.259  31.371  0.00  0.00    +0.170 A 
ATOM      3  N   LIG    1      -22.000  77.579  32.708  0.00  0.00    -0.212 NA
ATOM      4  C   LIG    1      -20.919  78.036  33.312  0.00  0.00    +0.126 A 
ATOM      5  C   LIG    1      -19.623  78.237  32.562  0.00  0.00    +0.063 A 
ATOM      6  C   LIG    1      -19.588  77.882  31.274  0.00  0.00    +0.118 A 
ATOM      7  N   LIG    1      -20.719  77.384  30.659  0.00  0.00    -0.221 N 
ATOM      8  N   LIG    1      -20.845  76.997  29.370  0.00  0.00    -0.173 NA
ATOM      9  C   LIG    1      -22.132  76.671  29.251  0.00  0.00    +0.150 A 
ENDROOT
BRANCH   4  10
ATOM     10  N   LIG    1      -20.975  78.344  34.666  0.00  0.00    -0.308 N 
ATOM     11  C   LIG    1      -20.661  79.668  35.239  0.00  0.00    +0.108 C 
ATOM     12  C   LIG    1      -19.819  79.291  36.464  0.00  0.00    +0.029 C 
ATOM     13  C   LIG    1      -20.501  78.037  36.985  0.00  0.00    +0.021 C 
ATOM     14  C   LIG    1      -20.927  77.308  35.709  0.00  0.00    +0.107 C 
BRANCH  11  15
ATOM     15  C   LIG    1      -21.925  80.445  35.584  0.00  0.00    +0.011 A 
ATOM     16  C   LIG    1      -21.862  81.792  35.972  0.00  0.00    +0.129 A 
ATOM     17  F   LIG    1      -20.680  82.424  36.013  0.00  0.00    -0.205 F 
ATOM     18  C   LIG    1      -23.011  82.512  36.320  0.00  0.00    +0.041 A 
ATOM     19  C   LIG    1      -24.258  81.890  36.292  0.00  0.00    +0.041 A 
ATOM     20  C   LIG    1      -24.337  80.561  35.910  0.00  0.00    +0.124 A 
ATOM     21  F   LIG    1      -25.525  79.944  35.881  0.00  0.00    -0.205 F 
ATOM     22  C   LIG    1      -23.197  79.848  35.557  0.00  0.00    +0.046 A 
ENDBRANCH  11  15
ENDBRANCH   4  10
BRANCH   1  25
ATOM     23  N   LIG    1      -24.546  75.738  31.743  0.00  0.00    -0.309 N 
ATOM     24  H   LIG    1      -23.763  75.493  32.348  0.00  0.00    +0.149 HD
ATOM     25  C   LIG    1      -24.265  76.539  30.653  0.00  0.00    +0.249 C 
ATOM     26  O   LIG    1      -25.120  76.977  29.905  0.00  0.00    -0.270 OA
BRANCH  23  27
ATOM     27  C   LIG    1      -25.900  75.385  32.134  0.00  0.00    +0.138 C 
BRANCH  27  28
ATOM     28  C   LIG    1      -26.549  76.499  32.963  0.00  0.00    +0.157 C 
BRANCH  28  29
ATOM     29  O   LIG    1      -27.111  77.521  32.123  0.00  0.00    -0.388 OA
ATOM     30  H   LIG    1      -26.752  78.370  32.440  0.00  0.00    +0.210 HD
ENDBRANCH  28  29
BRANCH  28  31
ATOM     31  C   LIG    1      -25.528  77.175  33.879  0.00  0.00    +0.188 C 
BRANCH  31  32
ATOM     32  O   LIG    1      -25.020  78.341  33.231  0.00  0.00    -0.392 OA
ATOM     33  H   LIG    1      -25.682  78.549  32.540  0.00  0.00    +0.210 HD
ENDBRANCH  31  32
ENDBRANCH  28  31
ENDBRANCH  27  28
ENDBRANCH  23  27
ENDBRANCH   1  25
TORSDOF 8
ENDMDL
MODEL 2
REMARK VINA RESULT:      -5.5     18.195     21.001
REMARK  Name = pdb/CHEMBL3671157.pdb
REMARK                            x       y       z     vdW  Elec       q    Type
REMARK                         _______ _______ _______ _____ _____    ______ ____
ROOT
ATOM      1  C   LIG    1      -18.950  85.841  13.227  0.00  0.00    +0.100 A 
ATOM      2  C   LIG    1      -19.175  84.488  13.443  0.00  0.00    +0.170 A 
ATOM      3  N   LIG    1      -20.145  83.813  14.150  0.00  0.00    -0.212 NA
ATOM      4  C   LIG    1      -20.066  82.497  14.218  0.00  0.00    +0.126 A 
ATOM      5  C   LIG    1      -18.930  81.742  13.568  0.00  0.00    +0.063 A 
ATOM      6  C   LIG    1      -18.033  82.444  12.871  0.00  0.00    +0.118 A 
ATOM      7  N   LIG    1      -18.139  83.819  12.788  0.00  0.00    -0.221 N 
ATOM      8  N   LIG    1      -17.310  84.664  12.136  0.00  0.00    -0.173 NA
ATOM      9  C   LIG    1      -17.791  85.875  12.417  0.00  0.00    +0.150 A 
ENDROOT
BRANCH   4  10
ATOM     10  N   LIG    1      -21.046  81.792  14.905  0.00  0.00    -0.308 N 
ATOM     11  C   LIG    1      -22.374  82.330  15.260  0.00  0.00    +0.108 C 
ATOM     12  C   LIG    1      -22.537  81.845  16.706  0.00  0.00    +0.029 C 
ATOM     13  C   LIG    1      -21.920  80.457  16.681  0.00  0.00    +0.021 C 
ATOM     14  C   LIG    1      -20.734  80.613  15.727  0.00  0.00    +0.107 C 
BRANCH  11  15
ATOM     15  C   LIG    1      -23.458  81.818  14.320  0.00  0.00    +0.011 A 
ATOM     16  C   LIG    1      -23.640  82.384  13.050  0.00  0.00    +0.129 A 
ATOM     17  F   LIG    1      -22.833  83.371  12.634  0.00  0.00    -0.205 F 
ATOM     18  C   LIG    1      -24.650  81.945  12.185  0.00  0.00    +0.041 A 
ATOM     19  C   LIG    1      -25.511  80.923  12.583  0.00  0.00    +0.041 A 
ATOM     20  C   LIG    1      -25.343  80.352  13.834  0.00  0.00    +0.124 A 
ATOM     21  F   LIG    1      -26.163  79.373  14.236  0.00  0.00    -0.205 F 
ATOM     22  C   LIG    1      -24.335  80.784  14.689  0.00  0.00    +0.046 A 
ENDBRANCH  11  15
ENDBRANCH   4  10
BRANCH   1  25
ATOM     23  N   LIG    1      -20.646  87.455  12.810  0.00  0.00    -0.309 N 
ATOM     24  H   LIG    1      -20.785  86.916  11.957  0.00  0.00    +0.149 HD
ATOM     25  C   LIG    1      -19.704  86.981  13.702  0.00  0.00    +0.249 C 
ATOM     26  O   LIG    1      -19.506  87.480  14.795  0.00  0.00    -0.270 OA
BRANCH  23  27
ATOM     27  C   LIG    1      -21.533  88.565  13.116  0.00  0.00    +0.138 C 
BRANCH  27  28
ATOM     28  C   LIG    1      -22.760  88.097  13.906  0.00  0.00    +0.157 C 
BRANCH  28  29
ATOM     29  O   LIG    1      -22.516  88.124  15.322  0.00  0.00    -0.388 OA
ATOM     30  H   LIG    1      -23.216  87.586  15.735  0.00  0.00    +0.210 HD
ENDBRANCH  28  29
BRANCH  28  31
ATOM     31  C   LIG    1      -23.142  86.662  13.538  0.00  0.00    +0.188 C 
BRANCH  31  32
ATOM     32  O   LIG    1      -22.789  85.795  14.615  0.00  0.00    -0.392 OA
ATOM     33  H   LIG    1      -21.879  86.060  14.860  0.00  0.00    +0.210 HD
ENDBRANCH  31  32
ENDBRANCH  28  31
ENDBRANCH  27  28
ENDBRANCH  23  27
ENDBRANCH   1  25
TORSDOF 8
ENDMDL
MODEL 3
REMARK VINA RESULT:      -5.4      1.728      2.397
REMARK  Name = pdb/CHEMBL3671157.pdb
REMARK                            x       y       z     vdW  Elec       q    Type
REMARK                         _______ _______ _______ _____ _____    ______ ____
ROOT
ATOM      1  C   LIG    1      -21.100  77.353  30.571  0.00  0.00    +0.100 A 
ATOM      2  C   LIG    1      -20.461  77.835  31.705  0.00  0.00    +0.170 A 
ATOM      3  N   LIG    1      -20.930  78.484  32.826  0.00  0.00    -0.212 NA
ATOM      4  C   LIG    1      -20.055  78.874  33.733  0.00  0.00    +0.126 A 
ATOM      5  C   LIG    1      -18.573  78.650  33.546  0.00  0.00    +0.063 A 
ATOM      6  C   LIG    1      -18.176  77.990  32.454  0.00  0.00    +0.118 A 
ATOM      7  N   LIG    1      -19.103  77.566  31.523  0.00  0.00    -0.221 N 
ATOM      8  N   LIG    1      -18.859  76.904  30.370  0.00  0.00    -0.173 NA
ATOM      9  C   LIG    1      -20.057  76.794  29.796  0.00  0.00    +0.150 A 
ENDROOT
BRANCH   4  10
ATOM     10  N   LIG    1      -20.506  79.510  34.883  0.00  0.00    -0.308 N 
ATOM     11  C   LIG    1      -21.757  80.288  34.977  0.00  0.00    +0.108 C 
ATOM     12  C   LIG    1      -21.307  81.519  35.774  0.00  0.00    +0.029 C 
ATOM     13  C   LIG    1      -20.331  80.942  36.785  0.00  0.00    +0.021 C 
ATOM     14  C   LIG    1      -19.607  79.848  35.997  0.00  0.00    +0.107 C 
BRANCH  11  15
ATOM     15  C   LIG    1      -22.864  79.493  35.657  0.00  0.00    +0.011 A 
ATOM     16  C   LIG    1      -24.056  80.112  36.061  0.00  0.00    +0.129 A 
ATOM     17  F   LIG    1      -24.248  81.418  35.822  0.00  0.00    -0.205 F 
ATOM     18  C   LIG    1      -25.071  79.402  36.714  0.00  0.00    +0.041 A 
ATOM     19  C   LIG    1      -24.908  78.044  36.983  0.00  0.00    +0.041 A 
ATOM     20  C   LIG    1      -23.737  77.417  36.588  0.00  0.00    +0.124 A 
ATOM     21  F   LIG    1      -23.560  76.115  36.842  0.00  0.00    -0.205 F 
ATOM     22  C   LIG    1      -22.733  78.121  35.934  0.00  0.00    +0.046 A 
ENDBRANCH  11  15
ENDBRANCH   4  10
BRANCH   1  25
ATOM     23  N   LIG    1      -23.341  77.738  31.268  0.00  0.00    -0.309 N 
ATOM     24  H   LIG    1      -22.896  78.017  32.142  0.00  0.00    +0.149 HD
ATOM     25  C   LIG    1      -22.505  77.393  30.225  0.00  0.00    +0.249 C 
ATOM     26  O   LIG    1      -22.904  77.129  29.105  0.00  0.00    -0.270 OA
BRANCH  23  27
ATOM     27  C   LIG    1      -24.779  77.875  31.114  0.00  0.00    +0.138 C 
BRANCH  27  28
ATOM     28  C   LIG    1      -25.518  76.654  31.673  0.00  0.00    +0.157 C 
BRANCH  28  29
ATOM     29  O   LIG    1      -26.803  76.486  31.049  0.00  0.00    -0.388 OA
ATOM     30  H   LIG    1      -27.262  77.343  31.123  0.00  0.00    +0.210 HD
ENDBRANCH  28  29
BRANCH  28  31
ATOM     31  C   LIG    1      -25.758  76.793  33.177  0.00  0.00    +0.188 C 
BRANCH  31  32
ATOM     32  O   LIG    1      -25.583  78.159  33.553  0.00  0.00    -0.392 OA
ATOM     33  H   LIG    1      -26.448  78.426  33.927  0.00  0.00    +0.210 HD
ENDBRANCH  31  32
ENDBRANCH  28  31
ENDBRANCH  27  28
ENDBRANCH  23  27
ENDBRANCH   1  25
TORSDOF 8
ENDMDL
MODEL 4
REMARK VINA RESULT:      -5.2     13.547     17.573
REMARK  Name = pdb/CHEMBL3671157.pdb
REMARK                            x       y       z     vdW  Elec       q    Type
REMARK                         _______ _______ _______ _____ _____    ______ ____
ROOT
ATOM      1  C   LIG    1      -33.995  76.858  27.849  0.00  0.00    +0.100 A 
ATOM      2  C   LIG    1      -35.197  76.261  27.494  0.00  0.00    +0.170 A 
ATOM      3  N   LIG    1      -36.303  76.734  26.823  0.00  0.00    -0.212 NA
ATOM      4  C   LIG    1      -37.338  75.928  26.678  0.00  0.00    +0.126 A 
ATOM      5  C   LIG    1      -37.335  74.531  27.254  0.00  0.00    +0.063 A 
ATOM      6  C   LIG    1      -36.225  74.114  27.870  0.00  0.00    +0.118 A 
ATOM      7  N   LIG    1      -35.140  74.959  27.995  0.00  0.00    -0.221 N 
ATOM      8  N   LIG    1      -33.961  74.689  28.598  0.00  0.00    -0.173 NA
ATOM      9  C   LIG    1      -33.286  75.836  28.522  0.00  0.00    +0.150 A 
ENDROOT
BRANCH   4  10
ATOM     10  N   LIG    1      -38.456  76.375  25.985  0.00  0.00    -0.308 N 
ATOM     11  C   LIG    1      -38.665  76.209  24.533  0.00  0.00    +0.108 C 
ATOM     12  C   LIG    1      -39.201  77.588  24.129  0.00  0.00    +0.029 C 
ATOM     13  C   LIG    1      -40.091  77.972  25.298  0.00  0.00    +0.021 C 
ATOM     14  C   LIG    1      -39.339  77.425  26.513  0.00  0.00    +0.107 C 
BRANCH  11  15
ATOM     15  C   LIG    1      -39.628  75.068  24.231  0.00  0.00    +0.011 A 
ATOM     16  C   LIG    1      -39.206  73.731  24.283  0.00  0.00    +0.129 A 
ATOM     17  F   LIG    1      -37.945  73.440  24.635  0.00  0.00    -0.205 F 
ATOM     18  C   LIG    1      -40.070  72.672  23.979  0.00  0.00    +0.041 A 
ATOM     19  C   LIG    1      -41.388  72.935  23.607  0.00  0.00    +0.041 A 
ATOM     20  C   LIG    1      -41.821  74.250  23.551  0.00  0.00    +0.124 A 
ATOM     21  F   LIG    1      -43.081  74.522  23.191  0.00  0.00    -0.205 F 
ATOM     22  C   LIG    1      -40.964  75.300  23.860  0.00  0.00    +0.046 A 
ENDBRANCH  11  15
ENDBRANCH   4  10
BRANCH   1  25
ATOM     23  N   LIG    1      -34.530  79.167  27.656  0.00  0.00    -0.309 N 
ATOM     24  H   LIG    1      -35.456  78.856  27.946  0.00  0.00    +0.149 HD
ATOM     25  C   LIG    1      -33.537  78.209  27.604  0.00  0.00    +0.249 C 
ATOM     26  O   LIG    1      -32.371  78.464  27.361  0.00  0.00    -0.270 OA
BRANCH  23  27
ATOM     27  C   LIG    1      -34.266  80.586  27.481  0.00  0.00    +0.138 C 
BRANCH  27  28
ATOM     28  C   LIG    1      -35.209  81.438  28.336  0.00  0.00    +0.157 C 
BRANCH  28  29
ATOM     29  O   LIG    1      -35.466  82.714  27.724  0.00  0.00    -0.388 OA
ATOM     30  H   LIG    1      -36.311  82.628  27.247  0.00  0.00    +0.210 HD
ENDBRANCH  28  29
BRANCH  28  31
ATOM     31  C   LIG    1      -34.612  81.709  29.717  0.00  0.00    +0.188 C 
BRANCH  31  32
ATOM     32  O   LIG    1      -34.365  80.465  30.371  0.00  0.00    -0.392 OA
ATOM     33  H   LIG    1      -33.654  80.660  31.015  0.00  0.00    +0.210 HD
ENDBRANCH  31  32
ENDBRANCH  28  31
ENDBRANCH  27  28
ENDBRANCH  23  27
ENDBRANCH   1  25
TORSDOF 8
ENDMDL
MODEL 5
REMARK VINA RESULT:      -5.2      3.317      6.191
REMARK  Name = pdb/CHEMBL3671157.pdb
REMARK                            x       y       z     vdW  Elec       q    Type
REMARK                         _______ _______ _______ _____ _____    ______ ____
ROOT
ATOM      1  C   LIG    1      -23.598  79.321  34.830  0.00  0.00    +0.100 A 
ATOM      2  C   LIG    1      -22.418  79.030  34.159  0.00  0.00    +0.170 A 
ATOM      3  N   LIG    1      -22.143  78.219  33.081  0.00  0.00    -0.212 NA
ATOM      4  C   LIG    1      -20.887  78.102  32.692  0.00  0.00    +0.126 A 
ATOM      5  C   LIG    1      -19.768  78.809  33.421  0.00  0.00    +0.063 A 
ATOM      6  C   LIG    1      -20.095  79.606  34.442  0.00  0.00    +0.118 A 
ATOM      7  N   LIG    1      -21.416  79.738  34.825  0.00  0.00    -0.221 N 
ATOM      8  N   LIG    1      -21.900  80.490  35.838  0.00  0.00    -0.173 NA
ATOM      9  C   LIG    1      -23.206  80.222  35.847  0.00  0.00    +0.150 A 
ENDROOT
BRANCH   4  10
ATOM     10  N   LIG    1      -20.586  77.309  31.592  0.00  0.00    -0.308 N 
ATOM     11  C   LIG    1      -19.378  76.470  31.467  0.00  0.00    +0.108 C 
ATOM     12  C   LIG    1      -18.944  76.751  30.024  0.00  0.00    +0.029 C 
ATOM     13  C   LIG    1      -20.262  76.841  29.274  0.00  0.00    +0.021 C 
ATOM     14  C   LIG    1      -21.191  77.537  30.271  0.00  0.00    +0.107 C 
BRANCH  11  15
ATOM     15  C   LIG    1      -19.683  75.002  31.738  0.00  0.00    +0.011 A 
ATOM     16  C   LIG    1      -18.711  74.011  31.531  0.00  0.00    +0.129 A 
ATOM     17  F   LIG    1      -17.482  74.353  31.121  0.00  0.00    -0.205 F 
ATOM     18  C   LIG    1      -18.985  72.655  31.747  0.00  0.00    +0.041 A 
ATOM     19  C   LIG    1      -20.252  72.259  32.171  0.00  0.00    +0.041 A 
ATOM     20  C   LIG    1      -21.223  73.225  32.381  0.00  0.00    +0.124 A 
ATOM     21  F   LIG    1      -22.447  72.865  32.783  0.00  0.00    -0.205 F 
ATOM     22  C   LIG    1      -20.948  74.572  32.174  0.00  0.00    +0.046 A 
ENDBRANCH  11  15
ENDBRANCH   4  10
BRANCH   1  25
ATOM     23  N   LIG    1      -25.019  77.866  33.597  0.00  0.00    -0.309 N 
ATOM     24  H   LIG    1      -24.139  77.523  33.214  0.00  0.00    +0.149 HD
ATOM     25  C   LIG    1      -24.938  78.835  34.578  0.00  0.00    +0.249 C 
ATOM     26  O   LIG    1      -25.907  79.262  35.179  0.00  0.00    -0.270 OA
BRANCH  23  27
ATOM     27  C   LIG    1      -26.268  77.221  33.227  0.00  0.00    +0.138 C 
BRANCH  27  28
ATOM     28  C   LIG    1      -26.352  76.997  31.713  0.00  0.00    +0.157 C 
BRANCH  28  29
ATOM     29  O   LIG    1      -26.490  75.601  31.396  0.00  0.00    -0.388 OA
ATOM     30  H   LIG    1      -27.446  75.425  31.329  0.00  0.00    +0.210 HD
ENDBRANCH  28  29
BRANCH  28  31
ATOM     31  C   LIG    1      -25.093  77.501  31.007  0.00  0.00    +0.188 C 
BRANCH  31  32
ATOM     32  O   LIG    1      -25.263  77.364  29.597  0.00  0.00    -0.392 OA
ATOM     33  H   LIG    1      -24.560  77.923  29.207  0.00  0.00    +0.210 HD
ENDBRANCH  31  32
ENDBRANCH  28  31
ENDBRANCH  27  28
ENDBRANCH  23  27
ENDBRANCH   1  25
TORSDOF 8
ENDMDL
MODEL 6
REMARK VINA RESULT:      -5.1     17.191     18.658
REMARK  Name = pdb/CHEMBL3671157.pdb
REMARK                            x       y       z     vdW  Elec       q    Type
REMARK                         _______ _______ _______ _____ _____    ______ ____
ROOT
ATOM      1  C   LIG    1      -22.849  80.704  15.610  0.00  0.00    +0.100 A 
ATOM      2  C   LIG    1      -21.771  79.829  15.616  0.00  0.00    +0.170 A 
ATOM      3  N   LIG    1      -21.642  78.517  15.219  0.00  0.00    -0.212 NA
ATOM      4  C   LIG    1      -20.478  77.921  15.400  0.00  0.00    +0.126 A 
ATOM      5  C   LIG    1      -19.319  78.639  16.051  0.00  0.00    +0.063 A 
ATOM      6  C   LIG    1      -19.490  79.920  16.389  0.00  0.00    +0.118 A 
ATOM      7  N   LIG    1      -20.706  80.539  16.174  0.00  0.00    -0.221 N 
ATOM      8  N   LIG    1      -21.037  81.815  16.472  0.00  0.00    -0.173 NA
ATOM      9  C   LIG    1      -22.327  81.902  16.147  0.00  0.00    +0.150 A 
ENDROOT
BRANCH   4  10
ATOM     10  N   LIG    1      -20.316  76.605  14.986  0.00  0.00    -0.308 N 
ATOM     11  C   LIG    1      -19.426  75.624  15.638  0.00  0.00    +0.108 C 
ATOM     12  C   LIG    1      -18.761  74.948  14.432  0.00  0.00    +0.029 C 
ATOM     13  C   LIG    1      -19.888  74.857  13.418  0.00  0.00    +0.021 C 
ATOM     14  C   LIG    1      -20.661  76.161  13.628  0.00  0.00    +0.107 C 
BRANCH  11  15
ATOM     15  C   LIG    1      -20.205  74.660  16.524  0.00  0.00    +0.011 A 
ATOM     16  C   LIG    1      -19.544  73.795  17.409  0.00  0.00    +0.129 A 
ATOM     17  F   LIG    1      -18.207  73.831  17.507  0.00  0.00    -0.205 F 
ATOM     18  C   LIG    1      -20.243  72.883  18.208  0.00  0.00    +0.041 A 
ATOM     19  C   LIG    1      -21.633  72.814  18.132  0.00  0.00    +0.041 A 
ATOM     20  C   LIG    1      -22.302  73.662  17.265  0.00  0.00    +0.124 A 
ATOM     21  F   LIG    1      -23.636  73.608  17.174  0.00  0.00    -0.205 F 
ATOM     22  C   LIG    1      -21.607  74.573  16.477  0.00  0.00    +0.046 A 
ENDBRANCH  11  15
ENDBRANCH   4  10
BRANCH   1  25
ATOM     23  N   LIG    1      -24.693  79.212  15.425  0.00  0.00    -0.309 N 
ATOM     24  H   LIG    1      -24.098  78.595  15.977  0.00  0.00    +0.149 HD
ATOM     25  C   LIG    1      -24.208  80.478  15.164  0.00  0.00    +0.249 C 
ATOM     26  O   LIG    1      -24.855  81.339  14.595  0.00  0.00    -0.270 OA
BRANCH  23  27
ATOM     27  C   LIG    1      -26.047  78.803  15.094  0.00  0.00    +0.138 C 
BRANCH  27  28
ATOM     28  C   LIG    1      -26.106  78.130  13.719  0.00  0.00    +0.157 C 
BRANCH  28  29
ATOM     29  O   LIG    1      -26.805  78.946  12.763  0.00  0.00    -0.388 OA
ATOM     30  H   LIG    1      -27.730  78.641  12.761  0.00  0.00    +0.210 HD
ENDBRANCH  28  29
BRANCH  28  31
ATOM     31  C   LIG    1      -26.835  76.787  13.789  0.00  0.00    +0.188 C 
BRANCH  31  32
ATOM     32  O   LIG    1      -27.820  76.845  14.821  0.00  0.00    -0.392 OA
ATOM     33  H   LIG    1      -27.365  77.273  15.574  0.00  0.00    +0.210 HD
ENDBRANCH  31  32
ENDBRANCH  28  31
ENDBRANCH  27  28
ENDBRANCH  23  27
ENDBRANCH   1  25
TORSDOF 8
ENDMDL
MODEL 7
REMARK VINA RESULT:      -5.1     17.193     19.673
REMARK  Name = pdb/CHEMBL3671157.pdb
REMARK                            x       y       z     vdW  Elec       q    Type
REMARK                         _______ _______ _______ _____ _____    ______ ____
ROOT
ATOM      1  C   LIG    1      -37.601  68.740  22.607  0.00  0.00    +0.100 A 
ATOM      2  C   LIG    1      -38.481  69.734  23.013  0.00  0.00    +0.170 A 
ATOM      3  N   LIG    1      -38.382  70.724  23.966  0.00  0.00    -0.212 NA
ATOM      4  C   LIG    1      -39.427  71.505  24.165  0.00  0.00    +0.126 A 
ATOM      5  C   LIG    1      -40.714  71.310  23.397  0.00  0.00    +0.063 A 
ATOM      6  C   LIG    1      -40.744  70.353  22.465  0.00  0.00    +0.118 A 
ATOM      7  N   LIG    1      -39.637  69.557  22.250  0.00  0.00    -0.221 N 
ATOM      8  N   LIG    1      -39.517  68.547  21.360  0.00  0.00    -0.173 NA
ATOM      9  C   LIG    1      -38.302  68.051  21.590  0.00  0.00    +0.150 A 
ENDROOT
BRANCH   4  10
ATOM     10  N   LIG    1      -39.344  72.526  25.104  0.00  0.00    -0.308 N 
ATOM     11  C   LIG    1      -38.346  73.613  25.075  0.00  0.00    +0.108 C 
ATOM     12  C   LIG    1      -37.918  73.690  26.546  0.00  0.00    +0.029 C 
ATOM     13  C   LIG    1      -39.216  73.453  27.300  0.00  0.00    +0.021 C 
ATOM     14  C   LIG    1      -39.938  72.410  26.444  0.00  0.00    +0.107 C 
BRANCH  11  15
ATOM     15  C   LIG    1      -38.942  74.910  24.545  0.00  0.00    +0.011 A 
ATOM     16  C   LIG    1      -38.203  76.102  24.551  0.00  0.00    +0.129 A 
ATOM     17  F   LIG    1      -36.939  76.105  24.998  0.00  0.00    -0.205 F 
ATOM     18  C   LIG    1      -38.747  77.309  24.094  0.00  0.00    +0.041 A 
ATOM     19  C   LIG    1      -40.058  77.347  23.623  0.00  0.00    +0.041 A 
ATOM     20  C   LIG    1      -40.802  76.178  23.609  0.00  0.00    +0.124 A 
ATOM     21  F   LIG    1      -42.065  76.196  23.166  0.00  0.00    -0.205 F 
ATOM     22  C   LIG    1      -40.259  74.979  24.056  0.00  0.00    +0.046 A 
ENDBRANCH  11  15
ENDBRANCH   4  10
BRANCH   1  25
ATOM     23  N   LIG    1      -36.028  68.842  24.389  0.00  0.00    -0.309 N 
ATOM     24  H   LIG    1      -36.821  69.214  24.910  0.00  0.00    +0.149 HD
ATOM     25  C   LIG    1      -36.268  68.445  23.088  0.00  0.00    +0.249 C 
ATOM     26  O   LIG    1      -35.432  67.903  22.388  0.00  0.00    -0.270 OA
BRANCH  23  27
ATOM     27  C   LIG    1      -34.767  68.598  25.067  0.00  0.00    +0.138 C 
BRANCH  27  28
ATOM     28  C   LIG    1      -34.569  69.564  26.241  0.00  0.00    +0.157 C 
BRANCH  28  29
ATOM     29  O   LIG    1      -34.868  68.933  27.497  0.00  0.00    -0.388 OA
ATOM     30  H   LIG    1      -34.615  69.566  28.194  0.00  0.00    +0.210 HD
ENDBRANCH  28  29
BRANCH  28  31
ATOM     31  C   LIG    1      -35.484  70.782  26.116  0.00  0.00    +0.188 C 
BRANCH  31  32
ATOM     32  O   LIG    1      -36.784  70.441  26.597  0.00  0.00    -0.392 OA
ATOM     33  H   LIG    1      -37.066  69.688  26.039  0.00  0.00    +0.210 HD
ENDBRANCH  31  32
ENDBRANCH  28  31
ENDBRANCH  27  28
ENDBRANCH  23  27
ENDBRANCH   1  25
TORSDOF 8
ENDMDL
MODEL 8
REMARK VINA RESULT:      -5.1     18.695     21.937
REMARK  Name = pdb/CHEMBL3671157.pdb
REMARK                            x       y       z     vdW  Elec       q    Type
REMARK                         _______ _______ _______ _____ _____    ______ ____
ROOT
ATOM      1  C   LIG    1      -19.672  86.477  11.205  0.00  0.00    +0.100 A 
ATOM      2  C   LIG    1      -20.379  85.289  11.086  0.00  0.00    +0.170 A 
ATOM      3  N   LIG    1      -21.458  84.781  11.775  0.00  0.00    -0.212 NA
ATOM      4  C   LIG    1      -21.886  83.572  11.461  0.00  0.00    +0.126 A 
ATOM      5  C   LIG    1      -21.202  82.746  10.397  0.00  0.00    +0.063 A 
ATOM      6  C   LIG    1      -20.179  83.299   9.740  0.00  0.00    +0.118 A 
ATOM      7  N   LIG    1      -19.754  84.573  10.062  0.00  0.00    -0.221 N 
ATOM      8  N   LIG    1      -18.733  85.259   9.502  0.00  0.00    -0.173 NA
ATOM      9  C   LIG    1      -18.678  86.393  10.203  0.00  0.00    +0.150 A 
ENDROOT
BRANCH   4  10
ATOM     10  N   LIG    1      -22.987  83.047  12.126  0.00  0.00    -0.308 N 
ATOM     11  C   LIG    1      -23.070  81.673  12.658  0.00  0.00    +0.108 C 
ATOM     12  C   LIG    1      -24.483  81.253  12.235  0.00  0.00    +0.029 C 
ATOM     13  C   LIG    1      -25.296  82.521  12.427  0.00  0.00    +0.021 C 
ATOM     14  C   LIG    1      -24.332  83.630  11.999  0.00  0.00    +0.107 C 
BRANCH  11  15
ATOM     15  C   LIG    1      -22.849  81.639  14.165  0.00  0.00    +0.011 A 
ATOM     16  C   LIG    1      -22.683  80.423  14.845  0.00  0.00    +0.129 A 
ATOM     17  F   LIG    1      -22.686  79.268  14.163  0.00  0.00    -0.205 F 
ATOM     18  C   LIG    1      -22.509  80.373  16.233  0.00  0.00    +0.041 A 
ATOM     19  C   LIG    1      -22.503  81.552  16.977  0.00  0.00    +0.041 A 
ATOM     20  C   LIG    1      -22.664  82.762  16.320  0.00  0.00    +0.124 A 
ATOM     21  F   LIG    1      -22.666  83.904  17.017  0.00  0.00    -0.205 F 
ATOM     22  C   LIG    1      -22.830  82.811  14.940  0.00  0.00    +0.046 A 
ENDBRANCH  11  15
ENDBRANCH   4  10
BRANCH   1  25
ATOM     23  N   LIG    1      -21.173  87.706  12.582  0.00  0.00    -0.309 N 
ATOM     24  H   LIG    1      -21.833  86.981  12.306  0.00  0.00    +0.149 HD
ATOM     25  C   LIG    1      -19.875  87.575  12.127  0.00  0.00    +0.249 C 
ATOM     26  O   LIG    1      -18.971  88.320  12.457  0.00  0.00    -0.270 OA
BRANCH  23  27
ATOM     27  C   LIG    1      -21.571  88.718  13.546  0.00  0.00    +0.138 C 
BRANCH  27  28
ATOM     28  C   LIG    1      -22.511  88.137  14.608  0.00  0.00    +0.157 C 
BRANCH  28  29
ATOM     29  O   LIG    1      -22.647  89.023  15.731  0.00  0.00    -0.388 OA
ATOM     30  H   LIG    1      -22.136  88.628  16.461  0.00  0.00    +0.210 HD
ENDBRANCH  28  29
BRANCH  28  31
ATOM     31  C   LIG    1      -21.987  86.804  15.143  0.00  0.00    +0.188 C 
BRANCH  31  32
ATOM     32  O   LIG    1      -21.859  86.888  16.562  0.00  0.00    -0.392 OA
ATOM     33  H   LIG    1      -22.559  86.298  16.909  0.00  0.00    +0.210 HD
ENDBRANCH  31  32
ENDBRANCH  28  31
ENDBRANCH  27  28
ENDBRANCH  23  27
ENDBRANCH   1  25
TORSDOF 8
ENDMDL
MODEL 9
REMARK VINA RESULT:      -5.1     14.369     18.318
REMARK  Name = pdb/CHEMBL3671157.pdb
REMARK                            x       y       z     vdW  Elec       q    Type
REMARK                         _______ _______ _______ _____ _____    ______ ____
ROOT
ATOM      1  C   LIG    1      -35.439  79.144  28.329  0.00  0.00    +0.100 A 
ATOM      2  C   LIG    1      -36.409  78.257  27.883  0.00  0.00    +0.170 A 
ATOM      3  N   LIG    1      -37.389  78.365  26.921  0.00  0.00    -0.212 NA
ATOM      4  C   LIG    1      -38.214  77.349  26.753  0.00  0.00    +0.126 A 
ATOM      5  C   LIG    1      -38.117  76.106  27.607  0.00  0.00    +0.063 A 
ATOM      6  C   LIG    1      -37.129  76.043  28.505  0.00  0.00    +0.118 A 
ATOM      7  N   LIG    1      -36.258  77.104  28.655  0.00  0.00    -0.221 N 
ATOM      8  N   LIG    1      -35.225  77.196  29.522  0.00  0.00    -0.173 NA
ATOM      9  C   LIG    1      -34.749  78.427  29.333  0.00  0.00    +0.150 A 
ENDROOT
BRANCH   4  10
ATOM     10  N   LIG    1      -39.196  77.424  25.773  0.00  0.00    -0.308 N 
ATOM     11  C   LIG    1      -39.036  76.948  24.385  0.00  0.00    +0.108 C 
ATOM     12  C   LIG    1      -39.668  78.091  23.582  0.00  0.00    +0.029 C 
ATOM     13  C   LIG    1      -40.854  78.504  24.437  0.00  0.00    +0.021 C 
ATOM     14  C   LIG    1      -40.328  78.359  25.867  0.00  0.00    +0.107 C 
BRANCH  11  15
ATOM     15  C   LIG    1      -39.716  75.602  24.171  0.00  0.00    +0.011 A 
ATOM     16  C   LIG    1      -39.046  74.400  24.446  0.00  0.00    +0.129 A 
ATOM     17  F   LIG    1      -37.798  74.426  24.936  0.00  0.00    -0.205 F 
ATOM     18  C   LIG    1      -39.647  73.155  24.226  0.00  0.00    +0.041 A 
ATOM     19  C   LIG    1      -40.942  73.087  23.715  0.00  0.00    +0.041 A 
ATOM     20  C   LIG    1      -41.618  74.264  23.439  0.00  0.00    +0.124 A 
ATOM     21  F   LIG    1      -42.860  74.220  22.943  0.00  0.00    -0.205 F 
ATOM     22  C   LIG    1      -41.024  75.501  23.665  0.00  0.00    +0.046 A 
ENDBRANCH  11  15
ENDBRANCH   4  10
BRANCH   1  25
ATOM     23  N   LIG    1      -35.776  81.477  28.650  0.00  0.00    -0.309 N 
ATOM     24  H   LIG    1      -36.278  81.170  29.482  0.00  0.00    +0.149 HD
ATOM     25  C   LIG    1      -35.165  80.497  27.892  0.00  0.00    +0.249 C 
ATOM     26  O   LIG    1      -34.462  80.737  26.928  0.00  0.00    -0.270 OA
BRANCH  23  27
ATOM     27  C   LIG    1      -35.592  82.897  28.399  0.00  0.00    +0.138 C 
BRANCH  27  28
ATOM     28  C   LIG    1      -36.864  83.532  27.827  0.00  0.00    +0.157 C 
BRANCH  28  29
ATOM     29  O   LIG    1      -38.035  82.780  28.189  0.00  0.00    -0.388 OA
ATOM     30  H   LIG    1      -38.803  83.331  27.952  0.00  0.00    +0.210 HD
ENDBRANCH  28  29
BRANCH  28  31
ATOM     31  C   LIG    1      -36.815  83.591  26.300  0.00  0.00    +0.188 C 
BRANCH  31  32
ATOM     32  O   LIG    1      -35.501  83.247  25.862  0.00  0.00    -0.392 OA
ATOM     33  H   LIG    1      -35.601  83.052  24.907  0.00  0.00    +0.210 HD
ENDBRANCH  31  32
ENDBRANCH  28  31
ENDBRANCH  27  28
ENDBRANCH  23  27
ENDBRANCH   1  25
TORSDOF 8
ENDMDL
