MODEL 1
REMARK VINA RESULT:      -6.7      0.000      0.000
REMARK  Name = pdb/CHEMBL3894479.pdb
REMARK                            x       y       z     vdW  Elec       q    Type
REMARK                         _______ _______ _______ _____ _____    ______ ____
ROOT
ATOM      1  C   LIG    1      -18.888  85.102  12.779  0.00  0.00    +0.133 A 
ATOM      2  C   LIG    1      -19.471  83.855  12.935  0.00  0.00    +0.183 A 
ATOM      3  N   LIG    1      -20.149  83.240  13.965  0.00  0.00    -0.211 NA
ATOM      4  C   LIG    1      -20.510  81.980  13.821  0.00  0.00    +0.126 A 
ATOM      5  C   LIG    1      -20.268  81.241  12.521  0.00  0.00    +0.063 A 
ATOM      6  C   LIG    1      -19.612  81.880  11.553  0.00  0.00    +0.118 A 
ATOM      7  N   LIG    1      -19.196  83.189  11.737  0.00  0.00    -0.220 N 
ATOM      8  N   LIG    1      -18.504  83.953  10.851  0.00  0.00    -0.171 NA
ATOM      9  C   LIG    1      -18.297  85.088  11.503  0.00  0.00    +0.165 A 
ENDROOT
BRANCH   4  10
ATOM     10  N   LIG    1      -21.154  81.285  14.854  0.00  0.00    -0.308 N 
ATOM     11  C   LIG    1      -22.403  80.526  14.640  0.00  0.00    +0.106 C 
ATOM     12  C   LIG    1      -23.340  81.163  15.689  0.00  0.00    +0.029 C 
ATOM     13  C   LIG    1      -22.431  81.403  16.880  0.00  0.00    +0.021 C 
ATOM     14  C   LIG    1      -21.126  81.824  16.233  0.00  0.00    +0.107 C 
BRANCH  11  15
ATOM     15  C   LIG    1      -22.260  78.995  14.804  0.00  0.00    -0.016 A 
ATOM     16  C   LIG    1      -23.328  78.059  14.887  0.00  0.00    +0.023 A 
ATOM     17  C   LIG    1      -23.047  76.681  15.061  0.00  0.00    +0.012 A 
ATOM     18  C   LIG    1      -21.747  76.208  15.182  0.00  0.00    +0.039 A 
ATOM     19  C   LIG    1      -20.704  77.113  15.126  0.00  0.00    +0.124 A 
ATOM     20  F   LIG    1      -19.447  76.666  15.252  0.00  0.00    -0.205 F 
ATOM     21  C   LIG    1      -20.944  78.477  14.943  0.00  0.00    +0.044 A 
BRANCH  16  22
ATOM     22  C   LIG    1      -24.795  78.418  14.800  0.00  0.00    +0.372 C 
ATOM     23  F   LIG    1      -25.358  78.682  16.022  0.00  0.00    -0.204 F 
ATOM     24  F   LIG    1      -25.555  77.396  14.325  0.00  0.00    -0.204 F 
ENDBRANCH  16  22
ENDBRANCH  11  15
ENDBRANCH   4  10
BRANCH   1  26
ATOM     25  C   LIG    1      -19.904  86.712  14.158  0.00  0.00    +0.283 C 
ATOM     26  N   LIG    1      -18.829  86.072  13.790  0.00  0.00    -0.194 NA
BRANCH  25  29
ATOM     27  C   LIG    1      -22.829  88.215  14.614  0.00  0.00    +0.133 C 
ATOM     28  C   LIG    1      -22.289  86.775  14.729  0.00  0.00    +0.140 C 
ATOM     29  N   LIG    1      -21.223  86.681  13.729  0.00  0.00    -0.283 N 
ATOM     30  C   LIG    1      -21.613  87.582  12.634  0.00  0.00    +0.112 C 
ATOM     31  C   LIG    1      -22.237  88.782  13.326  0.00  0.00    +0.052 C 
BRANCH  27  32
ATOM     32  O   LIG    1      -22.352  89.002  15.705  0.00  0.00    -0.390 OA
ATOM     33  H   LIG    1      -21.755  89.681  15.339  0.00  0.00    +0.210 HD
ENDBRANCH  27  32
ENDBRANCH  25  29
BRANCH  25  34
ATOM     34  O   LIG    1      -19.693  87.578  15.163  0.00  0.00    -0.481 OA
ATOM     35  H   LIG    1      -18.841  88.041  15.064  0.00  0.00    +0.295 HD
ENDBRANCH  25  34
ENDBRANCH   1  26
TORSDOF 7
ENDMDL
MODEL 2
REMARK VINA RESULT:      -6.5      1.874      2.722
REMARK  Name = pdb/CHEMBL3894479.pdb
REMARK                            x       y       z     vdW  Elec       q    Type
REMARK                         _______ _______ _______ _____ _____    ______ ____
ROOT
ATOM      1  C   LIG    1      -18.509  85.533  12.504  0.00  0.00    +0.133 A 
ATOM      2  C   LIG    1      -18.610  84.152  12.443  0.00  0.00    +0.183 A 
ATOM      3  N   LIG    1      -18.887  83.173  13.372  0.00  0.00    -0.211 NA
ATOM      4  C   LIG    1      -18.821  81.910  12.999  0.00  0.00    +0.126 A 
ATOM      5  C   LIG    1      -18.533  81.534  11.560  0.00  0.00    +0.063 A 
ATOM      6  C   LIG    1      -18.276  82.517  10.698  0.00  0.00    +0.118 A 
ATOM      7  N   LIG    1      -18.303  83.838  11.116  0.00  0.00    -0.220 N 
ATOM      8  N   LIG    1      -18.043  84.935  10.357  0.00  0.00    -0.171 NA
ATOM      9  C   LIG    1      -18.138  85.944  11.211  0.00  0.00    +0.165 A 
ENDROOT
BRANCH   4  10
ATOM     10  N   LIG    1      -19.038  80.870  13.913  0.00  0.00    -0.308 N 
ATOM     11  C   LIG    1      -19.682  81.089  15.224  0.00  0.00    +0.106 C 
ATOM     12  C   LIG    1      -18.622  80.520  16.192  0.00  0.00    +0.029 C 
ATOM     13  C   LIG    1      -18.086  79.304  15.459  0.00  0.00    +0.021 C 
ATOM     14  C   LIG    1      -18.062  79.761  14.014  0.00  0.00    +0.107 C 
BRANCH  11  15
ATOM     15  C   LIG    1      -21.068  80.419  15.379  0.00  0.00    -0.016 A 
ATOM     16  C   LIG    1      -22.221  81.011  15.965  0.00  0.00    +0.023 A 
ATOM     17  C   LIG    1      -23.423  80.266  16.062  0.00  0.00    +0.012 A 
ATOM     18  C   LIG    1      -23.508  78.952  15.623  0.00  0.00    +0.039 A 
ATOM     19  C   LIG    1      -22.386  78.361  15.074  0.00  0.00    +0.124 A 
ATOM     20  F   LIG    1      -22.457  77.090  14.658  0.00  0.00    -0.205 F 
ATOM     21  C   LIG    1      -21.188  79.070  14.952  0.00  0.00    +0.044 A 
BRANCH  16  22
ATOM     22  C   LIG    1      -22.283  82.419  16.513  0.00  0.00    +0.372 C 
ATOM     23  F   LIG    1      -22.718  82.473  17.812  0.00  0.00    -0.204 F 
ATOM     24  F   LIG    1      -23.181  83.197  15.854  0.00  0.00    -0.204 F 
ENDBRANCH  16  22
ENDBRANCH  11  15
ENDBRANCH   4  10
BRANCH   1  26
ATOM     25  C   LIG    1      -19.793  86.757  14.047  0.00  0.00    +0.283 C 
ATOM     26  N   LIG    1      -18.635  86.276  13.685  0.00  0.00    -0.194 NA
BRANCH  25  29
ATOM     27  C   LIG    1      -22.807  88.122  14.310  0.00  0.00    +0.133 C 
ATOM     28  C   LIG    1      -22.226  86.694  14.349  0.00  0.00    +0.140 C 
ATOM     29  N   LIG    1      -21.055  86.731  13.470  0.00  0.00    -0.283 N 
ATOM     30  C   LIG    1      -21.358  87.723  12.429  0.00  0.00    +0.112 C 
ATOM     31  C   LIG    1      -22.101  88.831  13.157  0.00  0.00    +0.052 C 
BRANCH  27  32
ATOM     32  O   LIG    1      -22.483  88.812  15.518  0.00  0.00    -0.390 OA
ATOM     33  H   LIG    1      -23.145  88.561  16.187  0.00  0.00    +0.210 HD
ENDBRANCH  27  32
ENDBRANCH  25  29
BRANCH  25  34
ATOM     34  O   LIG    1      -19.758  87.411  15.219  0.00  0.00    -0.481 OA
ATOM     35  H   LIG    1      -19.856  86.801  15.973  0.00  0.00    +0.295 HD
ENDBRANCH  25  34
ENDBRANCH   1  26
TORSDOF 7
ENDMDL
MODEL 3
REMARK VINA RESULT:      -6.4      1.830      2.786
REMARK  Name = pdb/CHEMBL3894479.pdb
REMARK                            x       y       z     vdW  Elec       q    Type
REMARK                         _______ _______ _______ _____ _____    ______ ____
ROOT
ATOM      1  C   LIG    1      -18.681  85.570  12.606  0.00  0.00    +0.133 A 
ATOM      2  C   LIG    1      -19.134  84.260  12.565  0.00  0.00    +0.183 A 
ATOM      3  N   LIG    1      -19.752  83.434  13.479  0.00  0.00    -0.211 NA
ATOM      4  C   LIG    1      -19.981  82.180  13.143  0.00  0.00    +0.126 A 
ATOM      5  C   LIG    1      -19.657  81.670  11.755  0.00  0.00    +0.063 A 
ATOM      6  C   LIG    1      -19.065  82.508  10.905  0.00  0.00    +0.118 A 
ATOM      7  N   LIG    1      -18.787  83.811  11.288  0.00  0.00    -0.220 N 
ATOM      8  N   LIG    1      -18.172  84.764  10.539  0.00  0.00    -0.171 NA
ATOM      9  C   LIG    1      -18.086  85.805  11.354  0.00  0.00    +0.165 A 
ENDROOT
BRANCH   4  10
ATOM     10  N   LIG    1      -20.556  81.278  14.050  0.00  0.00    -0.308 N 
ATOM     11  C   LIG    1      -21.606  81.680  15.008  0.00  0.00    +0.106 C 
ATOM     12  C   LIG    1      -20.981  81.253  16.354  0.00  0.00    +0.029 C 
ATOM     13  C   LIG    1      -20.283  79.946  16.025  0.00  0.00    +0.021 C 
ATOM     14  C   LIG    1      -19.733  80.195  14.634  0.00  0.00    +0.107 C 
BRANCH  11  15
ATOM     15  C   LIG    1      -22.989  81.039  14.751  0.00  0.00    -0.016 A 
ATOM     16  C   LIG    1      -23.874  81.360  13.684  0.00  0.00    +0.023 A 
ATOM     17  C   LIG    1      -25.127  80.704  13.586  0.00  0.00    +0.012 A 
ATOM     18  C   LIG    1      -25.538  79.766  14.523  0.00  0.00    +0.039 A 
ATOM     19  C   LIG    1      -24.695  79.465  15.576  0.00  0.00    +0.124 A 
ATOM     20  F   LIG    1      -25.089  78.568  16.489  0.00  0.00    -0.205 F 
ATOM     21  C   LIG    1      -23.448  80.083  15.697  0.00  0.00    +0.044 A 
BRANCH  16  22
ATOM     22  C   LIG    1      -23.585  82.375  12.602  0.00  0.00    +0.372 C 
ATOM     23  F   LIG    1      -24.719  82.908  12.047  0.00  0.00    -0.204 F 
ATOM     24  F   LIG    1      -22.945  81.832  11.534  0.00  0.00    -0.204 F 
ENDBRANCH  16  22
ENDBRANCH  11  15
ENDBRANCH   4  10
BRANCH   1  26
ATOM     25  C   LIG    1      -19.865  86.849  14.184  0.00  0.00    +0.283 C 
ATOM     26  N   LIG    1      -18.728  86.379  13.750  0.00  0.00    -0.194 NA
BRANCH  25  29
ATOM     27  C   LIG    1      -22.869  88.206  14.572  0.00  0.00    +0.133 C 
ATOM     28  C   LIG    1      -22.262  86.795  14.701  0.00  0.00    +0.140 C 
ATOM     29  N   LIG    1      -21.171  86.753  13.725  0.00  0.00    -0.283 N 
ATOM     30  C   LIG    1      -21.579  87.633  12.621  0.00  0.00    +0.112 C 
ATOM     31  C   LIG    1      -22.277  88.802  13.297  0.00  0.00    +0.052 C 
BRANCH  27  32
ATOM     32  O   LIG    1      -22.455  89.017  15.672  0.00  0.00    -0.390 OA
ATOM     33  H   LIG    1      -21.675  89.526  15.386  0.00  0.00    +0.210 HD
ENDBRANCH  27  32
ENDBRANCH  25  29
BRANCH  25  34
ATOM     34  O   LIG    1      -19.749  87.573  15.310  0.00  0.00    -0.481 OA
ATOM     35  H   LIG    1      -20.188  87.137  16.063  0.00  0.00    +0.295 HD
ENDBRANCH  25  34
ENDBRANCH   1  26
TORSDOF 7
ENDMDL
MODEL 4
REMARK VINA RESULT:      -6.4     17.751     20.326
REMARK  Name = pdb/CHEMBL3894479.pdb
REMARK                            x       y       z     vdW  Elec       q    Type
REMARK                         _______ _______ _______ _____ _____    ______ ____
ROOT
ATOM      1  C   LIG    1      -27.196  76.850  32.301  0.00  0.00    +0.133 A 
ATOM      2  C   LIG    1      -28.407  76.189  32.166  0.00  0.00    +0.183 A 
ATOM      3  N   LIG    1      -29.292  76.020  31.123  0.00  0.00    -0.211 NA
ATOM      4  C   LIG    1      -30.427  75.391  31.353  0.00  0.00    +0.126 A 
ATOM      5  C   LIG    1      -30.725  74.785  32.709  0.00  0.00    +0.063 A 
ATOM      6  C   LIG    1      -29.837  74.972  33.684  0.00  0.00    +0.118 A 
ATOM      7  N   LIG    1      -28.669  75.677  33.440  0.00  0.00    -0.220 N 
ATOM      8  N   LIG    1      -27.690  75.961  34.339  0.00  0.00    -0.171 NA
ATOM      9  C   LIG    1      -26.827  76.694  33.649  0.00  0.00    +0.165 A 
ENDROOT
BRANCH   4  10
ATOM     10  N   LIG    1      -31.389  75.236  30.345  0.00  0.00    -0.308 N 
ATOM     11  C   LIG    1      -32.729  75.852  30.428  0.00  0.00    +0.106 C 
ATOM     12  C   LIG    1      -33.649  74.623  30.258  0.00  0.00    +0.029 C 
ATOM     13  C   LIG    1      -32.927  73.778  29.225  0.00  0.00    +0.021 C 
ATOM     14  C   LIG    1      -31.468  73.965  29.590  0.00  0.00    +0.107 C 
BRANCH  11  15
ATOM     15  C   LIG    1      -32.994  76.958  29.380  0.00  0.00    -0.016 A 
ATOM     16  C   LIG    1      -33.984  77.976  29.470  0.00  0.00    +0.023 A 
ATOM     17  C   LIG    1      -34.129  78.913  28.417  0.00  0.00    +0.012 A 
ATOM     18  C   LIG    1      -33.346  78.856  27.272  0.00  0.00    +0.039 A 
ATOM     19  C   LIG    1      -32.399  77.856  27.165  0.00  0.00    +0.124 A 
ATOM     20  F   LIG    1      -31.646  77.788  26.058  0.00  0.00    -0.205 F 
ATOM     21  C   LIG    1      -32.219  76.922  28.189  0.00  0.00    +0.044 A 
BRANCH  16  22
ATOM     22  C   LIG    1      -34.930  78.156  30.636  0.00  0.00    +0.372 C 
ATOM     23  F   LIG    1      -36.124  78.724  30.277  0.00  0.00    -0.204 F 
ATOM     24  F   LIG    1      -34.448  79.016  31.571  0.00  0.00    -0.204 F 
ENDBRANCH  16  22
ENDBRANCH  11  15
ENDBRANCH   4  10
BRANCH   1  26
ATOM     25  C   LIG    1      -25.355  77.403  30.948  0.00  0.00    +0.283 C 
ATOM     26  N   LIG    1      -26.599  77.607  31.284  0.00  0.00    -0.194 NA
BRANCH  25  29
ATOM     27  C   LIG    1      -22.288  76.331  30.269  0.00  0.00    +0.133 C 
ATOM     28  C   LIG    1      -23.673  75.684  30.466  0.00  0.00    +0.140 C 
ATOM     29  N   LIG    1      -24.370  76.548  31.421  0.00  0.00    -0.283 N 
ATOM     30  C   LIG    1      -23.330  77.110  32.295  0.00  0.00    +0.112 C 
ATOM     31  C   LIG    1      -22.155  77.379  31.371  0.00  0.00    +0.052 C 
BRANCH  27  32
ATOM     32  O   LIG    1      -22.239  77.003  29.010  0.00  0.00    -0.390 OA
ATOM     33  H   LIG    1      -21.305  77.043  28.734  0.00  0.00    +0.210 HD
ENDBRANCH  27  32
ENDBRANCH  25  29
BRANCH  25  34
ATOM     34  O   LIG    1      -24.941  78.179  29.933  0.00  0.00    -0.481 OA
ATOM     35  H   LIG    1      -25.240  77.833  29.073  0.00  0.00    +0.295 HD
ENDBRANCH  25  34
ENDBRANCH   1  26
TORSDOF 7
ENDMDL
MODEL 5
REMARK VINA RESULT:      -6.2      2.637      3.672
REMARK  Name = pdb/CHEMBL3894479.pdb
REMARK                            x       y       z     vdW  Elec       q    Type
REMARK                         _______ _______ _______ _____ _____    ______ ____
ROOT
ATOM      1  C   LIG    1      -20.104  86.222  13.702  0.00  0.00    +0.133 A 
ATOM      2  C   LIG    1      -19.420  85.018  13.641  0.00  0.00    +0.183 A 
ATOM      3  N   LIG    1      -19.751  83.716  13.946  0.00  0.00    -0.211 NA
ATOM      4  C   LIG    1      -18.818  82.789  13.854  0.00  0.00    +0.126 A 
ATOM      5  C   LIG    1      -17.432  83.122  13.340  0.00  0.00    +0.063 A 
ATOM      6  C   LIG    1      -17.163  84.394  13.054  0.00  0.00    +0.118 A 
ATOM      7  N   LIG    1      -18.140  85.366  13.201  0.00  0.00    -0.220 N 
ATOM      8  N   LIG    1      -18.002  86.698  12.969  0.00  0.00    -0.171 NA
ATOM      9  C   LIG    1      -19.180  87.205  13.304  0.00  0.00    +0.165 A 
ENDROOT
BRANCH   4  10
ATOM     10  N   LIG    1      -19.080  81.457  14.203  0.00  0.00    -0.308 N 
ATOM     11  C   LIG    1      -19.565  81.070  15.544  0.00  0.00    +0.106 C 
ATOM     12  C   LIG    1      -18.500  80.039  15.976  0.00  0.00    +0.029 C 
ATOM     13  C   LIG    1      -18.194  79.284  14.696  0.00  0.00    +0.021 C 
ATOM     14  C   LIG    1      -18.248  80.369  13.639  0.00  0.00    +0.107 C 
BRANCH  11  15
ATOM     15  C   LIG    1      -21.004  80.503  15.567  0.00  0.00    -0.016 A 
ATOM     16  C   LIG    1      -22.173  81.206  15.971  0.00  0.00    +0.023 A 
ATOM     17  C   LIG    1      -23.428  80.549  15.963  0.00  0.00    +0.012 A 
ATOM     18  C   LIG    1      -23.556  79.216  15.596  0.00  0.00    +0.039 A 
ATOM     19  C   LIG    1      -22.422  78.519  15.225  0.00  0.00    +0.124 A 
ATOM     20  F   LIG    1      -22.535  77.230  14.878  0.00  0.00    -0.205 F 
ATOM     21  C   LIG    1      -21.170  79.138  15.208  0.00  0.00    +0.044 A 
BRANCH  16  22
ATOM     22  C   LIG    1      -22.197  82.649  16.423  0.00  0.00    +0.372 C 
ATOM     23  F   LIG    1      -22.806  82.822  17.639  0.00  0.00    -0.204 F 
ATOM     24  F   LIG    1      -22.926  83.443  15.596  0.00  0.00    -0.204 F 
ENDBRANCH  16  22
ENDBRANCH  11  15
ENDBRANCH   4  10
BRANCH   1  26
ATOM     25  C   LIG    1      -22.436  86.047  13.458  0.00  0.00    +0.283 C 
ATOM     26  N   LIG    1      -21.408  86.358  14.198  0.00  0.00    -0.194 NA
BRANCH  25  29
ATOM     27  C   LIG    1      -24.714  85.044  11.261  0.00  0.00    +0.133 C 
ATOM     28  C   LIG    1      -23.440  84.446  11.893  0.00  0.00    +0.140 C 
ATOM     29  N   LIG    1      -22.565  85.592  12.154  0.00  0.00    -0.283 N 
ATOM     30  C   LIG    1      -22.864  86.578  11.105  0.00  0.00    +0.112 C 
ATOM     31  C   LIG    1      -24.369  86.489  10.910  0.00  0.00    +0.052 C 
BRANCH  27  32
ATOM     32  O   LIG    1      -25.771  85.062  12.220  0.00  0.00    -0.390 OA
ATOM     33  H   LIG    1      -26.482  84.484  11.885  0.00  0.00    +0.210 HD
ENDBRANCH  27  32
ENDBRANCH  25  29
BRANCH  25  34
ATOM     34  O   LIG    1      -23.613  86.194  14.088  0.00  0.00    -0.481 OA
ATOM     35  H   LIG    1      -23.614  85.748  14.954  0.00  0.00    +0.295 HD
ENDBRANCH  25  34
ENDBRANCH   1  26
TORSDOF 7
ENDMDL
MODEL 6
REMARK VINA RESULT:      -6.2     12.643     15.478
REMARK  Name = pdb/CHEMBL3894479.pdb
REMARK                            x       y       z     vdW  Elec       q    Type
REMARK                         _______ _______ _______ _____ _____    ______ ____
ROOT
ATOM      1  C   LIG    1      -27.788  70.484  18.901  0.00  0.00    +0.133 A 
ATOM      2  C   LIG    1      -26.778  70.678  17.971  0.00  0.00    +0.183 A 
ATOM      3  N   LIG    1      -25.525  70.132  17.794  0.00  0.00    -0.211 NA
ATOM      4  C   LIG    1      -24.758  70.609  16.833  0.00  0.00    +0.126 A 
ATOM      5  C   LIG    1      -25.267  71.672  15.882  0.00  0.00    +0.063 A 
ATOM      6  C   LIG    1      -26.487  72.164  16.091  0.00  0.00    +0.118 A 
ATOM      7  N   LIG    1      -27.264  71.687  17.134  0.00  0.00    -0.220 N 
ATOM      8  N   LIG    1      -28.510  72.108  17.478  0.00  0.00    -0.171 NA
ATOM      9  C   LIG    1      -28.799  71.400  18.560  0.00  0.00    +0.165 A 
ENDROOT
BRANCH   4  10
ATOM     10  N   LIG    1      -23.455  70.132  16.640  0.00  0.00    -0.308 N 
ATOM     11  C   LIG    1      -22.328  71.023  16.293  0.00  0.00    +0.106 C 
ATOM     12  C   LIG    1      -21.804  70.371  14.995  0.00  0.00    +0.029 C 
ATOM     13  C   LIG    1      -21.942  68.884  15.262  0.00  0.00    +0.021 C 
ATOM     14  C   LIG    1      -23.240  68.796  16.039  0.00  0.00    +0.107 C 
BRANCH  11  15
ATOM     15  C   LIG    1      -21.246  71.147  17.390  0.00  0.00    -0.016 A 
ATOM     16  C   LIG    1      -21.331  71.950  18.562  0.00  0.00    +0.023 A 
ATOM     17  C   LIG    1      -20.247  71.985  19.473  0.00  0.00    +0.012 A 
ATOM     18  C   LIG    1      -19.076  71.274  19.247  0.00  0.00    +0.039 A 
ATOM     19  C   LIG    1      -18.975  70.510  18.100  0.00  0.00    +0.124 A 
ATOM     20  F   LIG    1      -17.845  69.829  17.869  0.00  0.00    -0.205 F 
ATOM     21  C   LIG    1      -20.029  70.442  17.185  0.00  0.00    +0.044 A 
BRANCH  16  22
ATOM     22  C   LIG    1      -22.524  72.801  18.937  0.00  0.00    +0.372 C 
ATOM     23  F   LIG    1      -23.589  72.065  19.389  0.00  0.00    -0.204 F 
ATOM     24  F   LIG    1      -23.042  73.471  17.874  0.00  0.00    -0.204 F 
ENDBRANCH  16  22
ENDBRANCH  11  15
ENDBRANCH   4  10
BRANCH   1  26
ATOM     25  C   LIG    1      -27.846  68.339  19.861  0.00  0.00    +0.283 C 
ATOM     26  N   LIG    1      -27.683  69.625  20.004  0.00  0.00    -0.194 NA
BRANCH  25  29
ATOM     27  C   LIG    1      -28.372  65.168  19.030  0.00  0.00    +0.133 C 
ATOM     28  C   LIG    1      -27.410  66.289  18.586  0.00  0.00    +0.140 C 
ATOM     29  N   LIG    1      -28.157  67.535  18.774  0.00  0.00    -0.283 N 
ATOM     30  C   LIG    1      -29.570  67.200  18.545  0.00  0.00    +0.112 C 
ATOM     31  C   LIG    1      -29.744  65.823  19.163  0.00  0.00    +0.052 C 
BRANCH  27  32
ATOM     32  O   LIG    1      -27.989  64.678  20.315  0.00  0.00    -0.390 OA
ATOM     33  H   LIG    1      -27.332  65.298  20.682  0.00  0.00    +0.210 HD
ENDBRANCH  27  32
ENDBRANCH  25  29
BRANCH  25  34
ATOM     34  O   LIG    1      -27.676  67.649  21.000  0.00  0.00    -0.481 OA
ATOM     35  H   LIG    1      -27.720  68.229  21.781  0.00  0.00    +0.295 HD
ENDBRANCH  25  34
ENDBRANCH   1  26
TORSDOF 7
ENDMDL
MODEL 7
REMARK VINA RESULT:      -6.2     15.460     19.877
REMARK  Name = pdb/CHEMBL3894479.pdb
REMARK                            x       y       z     vdW  Elec       q    Type
REMARK                         _______ _______ _______ _____ _____    ______ ____
ROOT
ATOM      1  C   LIG    1      -33.528  66.053  20.696  0.00  0.00    +0.133 A 
ATOM      2  C   LIG    1      -32.837  66.386  19.541  0.00  0.00    +0.183 A 
ATOM      3  N   LIG    1      -32.216  67.534  19.097  0.00  0.00    -0.211 NA
ATOM      4  C   LIG    1      -31.711  67.548  17.880  0.00  0.00    +0.126 A 
ATOM      5  C   LIG    1      -31.729  66.307  17.011  0.00  0.00    +0.063 A 
ATOM      6  C   LIG    1      -32.337  65.222  17.487  0.00  0.00    +0.118 A 
ATOM      7  N   LIG    1      -32.906  65.236  18.750  0.00  0.00    -0.220 N 
ATOM      8  N   LIG    1      -33.572  64.216  19.353  0.00  0.00    -0.171 NA
ATOM      9  C   LIG    1      -33.968  64.731  20.507  0.00  0.00    +0.165 A 
ENDROOT
BRANCH   4  10
ATOM     10  N   LIG    1      -31.116  68.702  17.353  0.00  0.00    -0.308 N 
ATOM     11  C   LIG    1      -30.484  69.728  18.209  0.00  0.00    +0.106 C 
ATOM     12  C   LIG    1      -31.243  71.003  17.780  0.00  0.00    +0.029 C 
ATOM     13  C   LIG    1      -31.421  70.827  16.284  0.00  0.00    +0.021 C 
ATOM     14  C   LIG    1      -31.687  69.341  16.145  0.00  0.00    +0.107 C 
BRANCH  11  15
ATOM     15  C   LIG    1      -28.951  69.849  18.040  0.00  0.00    -0.016 A 
ATOM     16  C   LIG    1      -27.983  68.915  18.503  0.00  0.00    +0.023 A 
ATOM     17  C   LIG    1      -26.604  69.169  18.297  0.00  0.00    +0.012 A 
ATOM     18  C   LIG    1      -26.157  70.327  17.675  0.00  0.00    +0.039 A 
ATOM     19  C   LIG    1      -27.090  71.251  17.243  0.00  0.00    +0.124 A 
ATOM     20  F   LIG    1      -26.666  72.375  16.651  0.00  0.00    -0.205 F 
ATOM     21  C   LIG    1      -28.458  71.028  17.418  0.00  0.00    +0.044 A 
BRANCH  16  22
ATOM     22  C   LIG    1      -28.307  67.624  19.220  0.00  0.00    +0.372 C 
ATOM     23  F   LIG    1      -27.257  67.140  19.957  0.00  0.00    -0.204 F 
ATOM     24  F   LIG    1      -28.578  66.605  18.363  0.00  0.00    -0.204 F 
ENDBRANCH  16  22
ENDBRANCH  11  15
ENDBRANCH   4  10
BRANCH   1  26
ATOM     25  C   LIG    1      -35.027  67.301  22.008  0.00  0.00    +0.283 C 
ATOM     26  N   LIG    1      -33.799  66.955  21.734  0.00  0.00    -0.194 NA
BRANCH  25  29
ATOM     27  C   LIG    1      -38.156  68.388  21.778  0.00  0.00    +0.133 C 
ATOM     28  C   LIG    1      -37.459  67.103  22.269  0.00  0.00    +0.140 C 
ATOM     29  N   LIG    1      -36.254  66.979  21.445  0.00  0.00    -0.283 N 
ATOM     30  C   LIG    1      -36.590  67.570  20.141  0.00  0.00    +0.112 C 
ATOM     31  C   LIG    1      -37.458  68.772  20.475  0.00  0.00    +0.052 C 
BRANCH  27  32
ATOM     32  O   LIG    1      -37.949  69.443  22.717  0.00  0.00    -0.390 OA
ATOM     33  H   LIG    1      -37.331  69.116  23.396  0.00  0.00    +0.210 HD
ENDBRANCH  27  32
ENDBRANCH  25  29
BRANCH  25  34
ATOM     34  O   LIG    1      -35.126  68.140  23.052  0.00  0.00    -0.481 OA
ATOM     35  H   LIG    1      -35.932  68.686  22.998  0.00  0.00    +0.295 HD
ENDBRANCH  25  34
ENDBRANCH   1  26
TORSDOF 7
ENDMDL
MODEL 8
REMARK VINA RESULT:      -6.2     21.882     24.400
REMARK  Name = pdb/CHEMBL3894479.pdb
REMARK                            x       y       z     vdW  Elec       q    Type
REMARK                         _______ _______ _______ _____ _____    ______ ____
ROOT
ATOM      1  C   LIG    1      -37.700  68.406  21.488  0.00  0.00    +0.133 A 
ATOM      2  C   LIG    1      -38.828  69.074  21.940  0.00  0.00    +0.183 A 
ATOM      3  N   LIG    1      -39.042  70.054  22.885  0.00  0.00    -0.211 NA
ATOM      4  C   LIG    1      -40.282  70.422  23.143  0.00  0.00    +0.126 A 
ATOM      5  C   LIG    1      -41.447  69.850  22.362  0.00  0.00    +0.063 A 
ATOM      6  C   LIG    1      -41.187  68.908  21.456  0.00  0.00    +0.118 A 
ATOM      7  N   LIG    1      -39.884  68.497  21.229  0.00  0.00    -0.220 N 
ATOM      8  N   LIG    1      -39.475  67.538  20.357  0.00  0.00    -0.171 NA
ATOM      9  C   LIG    1      -38.166  67.471  20.546  0.00  0.00    +0.165 A 
ENDROOT
BRANCH   4  10
ATOM     10  N   LIG    1      -40.566  71.375  24.131  0.00  0.00    -0.308 N 
ATOM     11  C   LIG    1      -39.598  72.419  24.526  0.00  0.00    +0.106 C 
ATOM     12  C   LIG    1      -39.486  72.182  26.048  0.00  0.00    +0.029 C 
ATOM     13  C   LIG    1      -40.903  71.833  26.460  0.00  0.00    +0.021 C 
ATOM     14  C   LIG    1      -41.404  71.003  25.294  0.00  0.00    +0.107 C 
BRANCH  11  15
ATOM     15  C   LIG    1      -40.027  73.861  24.167  0.00  0.00    -0.016 A 
ATOM     16  C   LIG    1      -39.290  75.046  24.442  0.00  0.00    +0.023 A 
ATOM     17  C   LIG    1      -39.820  76.308  24.074  0.00  0.00    +0.012 A 
ATOM     18  C   LIG    1      -41.064  76.432  23.470  0.00  0.00    +0.039 A 
ATOM     19  C   LIG    1      -41.798  75.288  23.221  0.00  0.00    +0.124 A 
ATOM     20  F   LIG    1      -43.004  75.401  22.648  0.00  0.00    -0.205 F 
ATOM     21  C   LIG    1      -41.301  74.027  23.558  0.00  0.00    +0.044 A 
BRANCH  16  22
ATOM     22  C   LIG    1      -37.936  75.080  25.116  0.00  0.00    +0.372 C 
ATOM     23  F   LIG    1      -38.010  75.358  26.456  0.00  0.00    -0.204 F 
ATOM     24  F   LIG    1      -37.141  76.073  24.638  0.00  0.00    -0.204 F 
ENDBRANCH  16  22
ENDBRANCH  11  15
ENDBRANCH   4  10
BRANCH   1  26
ATOM     25  C   LIG    1      -35.965  67.819  22.961  0.00  0.00    +0.283 C 
ATOM     26  N   LIG    1      -36.415  68.595  22.013  0.00  0.00    -0.194 NA
BRANCH  25  29
ATOM     27  C   LIG    1      -35.423  65.873  25.595  0.00  0.00    +0.133 C 
ATOM     28  C   LIG    1      -35.646  65.662  24.084  0.00  0.00    +0.140 C 
ATOM     29  N   LIG    1      -36.520  66.760  23.666  0.00  0.00    -0.283 N 
ATOM     30  C   LIG    1      -37.364  67.072  24.828  0.00  0.00    +0.112 C 
ATOM     31  C   LIG    1      -36.442  66.925  26.026  0.00  0.00    +0.052 C 
BRANCH  27  32
ATOM     32  O   LIG    1      -34.117  66.403  25.825  0.00  0.00    -0.390 OA
ATOM     33  H   LIG    1      -34.203  67.132  26.466  0.00  0.00    +0.210 HD
ENDBRANCH  27  32
ENDBRANCH  25  29
BRANCH  25  34
ATOM     34  O   LIG    1      -34.705  68.101  23.330  0.00  0.00    -0.481 OA
ATOM     35  H   LIG    1      -34.593  68.043  24.296  0.00  0.00    +0.295 HD
ENDBRANCH  25  34
ENDBRANCH   1  26
TORSDOF 7
ENDMDL
MODEL 9
REMARK VINA RESULT:      -6.1      6.130      8.800
REMARK  Name = pdb/CHEMBL3894479.pdb
REMARK                            x       y       z     vdW  Elec       q    Type
REMARK                         _______ _______ _______ _____ _____    ______ ____
ROOT
ATOM      1  C   LIG    1      -24.856  78.755  15.160  0.00  0.00    +0.133 A 
ATOM      2  C   LIG    1      -23.621  78.131  15.078  0.00  0.00    +0.183 A 
ATOM      3  N   LIG    1      -23.213  76.815  15.096  0.00  0.00    -0.211 NA
ATOM      4  C   LIG    1      -21.921  76.553  15.084  0.00  0.00    +0.126 A 
ATOM      5  C   LIG    1      -20.899  77.665  14.964  0.00  0.00    +0.063 A 
ATOM      6  C   LIG    1      -21.343  78.921  14.945  0.00  0.00    +0.118 A 
ATOM      7  N   LIG    1      -22.703  79.182  15.006  0.00  0.00    -0.220 N 
ATOM      8  N   LIG    1      -23.295  80.406  15.017  0.00  0.00    -0.171 NA
ATOM      9  C   LIG    1      -24.586  80.135  15.142  0.00  0.00    +0.165 A 
ENDROOT
BRANCH   4  10
ATOM     10  N   LIG    1      -21.445  75.237  15.157  0.00  0.00    -0.308 N 
ATOM     11  C   LIG    1      -20.403  74.823  16.119  0.00  0.00    +0.106 C 
ATOM     12  C   LIG    1      -19.339  74.210  15.183  0.00  0.00    +0.029 C 
ATOM     13  C   LIG    1      -20.161  73.492  14.130  0.00  0.00    +0.021 C 
ATOM     14  C   LIG    1      -21.340  74.422  13.924  0.00  0.00    +0.107 C 
BRANCH  11  15
ATOM     15  C   LIG    1      -20.891  73.840  17.210  0.00  0.00    -0.016 A 
ATOM     16  C   LIG    1      -20.105  73.313  18.272  0.00  0.00    +0.023 A 
ATOM     17  C   LIG    1      -20.681  72.399  19.188  0.00  0.00    +0.012 A 
ATOM     18  C   LIG    1      -21.997  71.973  19.069  0.00  0.00    +0.039 A 
ATOM     19  C   LIG    1      -22.761  72.461  18.026  0.00  0.00    +0.124 A 
ATOM     20  F   LIG    1      -24.028  72.047  17.898  0.00  0.00    -0.205 F 
ATOM     21  C   LIG    1      -22.229  73.373  17.111  0.00  0.00    +0.044 A 
BRANCH  16  22
ATOM     22  C   LIG    1      -18.654  73.657  18.522  0.00  0.00    +0.372 C 
ATOM     23  F   LIG    1      -17.787  72.702  18.057  0.00  0.00    -0.204 F 
ATOM     24  F   LIG    1      -18.354  73.727  19.845  0.00  0.00    -0.204 F 
ENDBRANCH  16  22
ENDBRANCH  11  15
ENDBRANCH   4  10
BRANCH   1  26
ATOM     25  C   LIG    1      -26.726  77.591  14.337  0.00  0.00    +0.283 C 
ATOM     26  N   LIG    1      -26.066  78.074  15.354  0.00  0.00    -0.194 NA
BRANCH  25  29
ATOM     27  C   LIG    1      -28.243  76.967  11.451  0.00  0.00    +0.133 C 
ATOM     28  C   LIG    1      -26.968  76.476  12.166  0.00  0.00    +0.140 C 
ATOM     29  N   LIG    1      -26.512  77.614  12.967  0.00  0.00    -0.283 N 
ATOM     30  C   LIG    1      -26.913  78.819  12.226  0.00  0.00    +0.112 C 
ATOM     31  C   LIG    1      -28.278  78.480  11.650  0.00  0.00    +0.052 C 
BRANCH  27  32
ATOM     32  O   LIG    1      -29.398  76.411  12.080  0.00  0.00    -0.390 OA
ATOM     33  H   LIG    1      -29.091  75.758  12.736  0.00  0.00    +0.210 HD
ENDBRANCH  27  32
ENDBRANCH  25  29
BRANCH  25  34
ATOM     34  O   LIG    1      -27.843  76.934  14.689  0.00  0.00    -0.481 OA
ATOM     35  H   LIG    1      -28.607  77.213  14.152  0.00  0.00    +0.295 HD
ENDBRANCH  25  34
ENDBRANCH   1  26
TORSDOF 7
ENDMDL
