MODEL 1
REMARK VINA RESULT:      -6.0      0.000      0.000
REMARK  Name = pdb/CHEMBL3675957.pdb
REMARK                            x       y       z     vdW  Elec       q    Type
REMARK                         _______ _______ _______ _____ _____    ______ ____
ROOT
ATOM      1  N   LIG    1      -23.432  84.952  11.955  0.00  0.00    -0.308 N 
ATOM      2  C   LIG    1      -23.077  86.163  12.722  0.00  0.00    +0.107 C 
ATOM      3  C   LIG    1      -23.610  87.314  11.845  0.00  0.00    +0.029 C 
ATOM      4  C   LIG    1      -23.547  86.772  10.428  0.00  0.00    +0.021 C 
ATOM      5  C   LIG    1      -23.916  85.315  10.620  0.00  0.00    +0.107 C 
ENDROOT
BRANCH   1   9
ATOM      6  C   LIG    1      -23.161  81.464  15.367  0.00  0.00    +0.100 A 
ATOM      7  C   LIG    1      -23.597  82.183  14.260  0.00  0.00    +0.170 A 
ATOM      8  N   LIG    1      -23.159  83.345  13.658  0.00  0.00    -0.212 NA
ATOM      9  C   LIG    1      -23.796  83.760  12.579  0.00  0.00    +0.126 A 
ATOM     10  C   LIG    1      -24.955  82.980  11.995  0.00  0.00    +0.063 A 
ATOM     11  C   LIG    1      -25.366  81.893  12.646  0.00  0.00    +0.118 A 
ATOM     12  N   LIG    1      -24.703  81.475  13.779  0.00  0.00    -0.221 N 
ATOM     13  N   LIG    1      -25.007  80.397  14.534  0.00  0.00    -0.173 NA
ATOM     14  C   LIG    1      -24.080  80.397  15.482  0.00  0.00    +0.150 A 
BRANCH   6  18
ATOM     15  N   LIG    1      -21.987  82.933  16.817  0.00  0.00    -0.325 N 
ATOM     16  H   LIG    1      -22.682  83.648  16.589  0.00  0.00    +0.145 HD
ATOM     17  H   LIG    1      -21.209  83.165  17.416  0.00  0.00    +0.145 HD
ATOM     18  C   LIG    1      -22.036  81.692  16.262  0.00  0.00    +0.247 C 
ATOM     19  O   LIG    1      -21.193  80.852  16.502  0.00  0.00    -0.270 OA
ENDBRANCH   6  18
ENDBRANCH   1   9
BRANCH   2  20
ATOM     20  C   LIG    1      -21.587  86.267  13.006  0.00  0.00    -0.001 A 
ATOM     21  CA  LIG    1      -21.091  86.894  14.168  0.00  0.00    +0.072 A 
ATOM     22  N   LIG    1      -19.755  87.002  14.443  0.00  0.00    -0.254 NA
ATOM     23  C   LIG    1      -18.887  86.456  13.560  0.00  0.00    +0.149 A 
ATOM     24  C   LIG    1      -19.283  85.835  12.396  0.00  0.00    +0.142 A 
ATOM     25  F   LIG    1      -18.380  85.324  11.549  0.00  0.00    -0.204 F 
ATOM     26  C   LIG    1      -20.637  85.747  12.110  0.00  0.00    +0.047 A 
BRANCH  21  27
ATOM     27  C   LIG    1      -22.005  87.504  15.217  0.00  0.00    +0.211 C 
BRANCH  27  28
ATOM     28  O   LIG    1      -21.424  87.454  16.522  0.00  0.00    -0.389 OA
ATOM     29  H   LIG    1      -21.291  86.501  16.706  0.00  0.00    +0.210 HD
ENDBRANCH  27  28
ENDBRANCH  21  27
ENDBRANCH   2  20
TORSDOF 5
ENDMDL
MODEL 2
REMARK VINA RESULT:      -5.9      2.726      6.656
REMARK  Name = pdb/CHEMBL3675957.pdb
REMARK                            x       y       z     vdW  Elec       q    Type
REMARK                         _______ _______ _______ _____ _____    ______ ____
ROOT
ATOM      1  N   LIG    1      -19.465  82.373  13.982  0.00  0.00    -0.308 N 
ATOM      2  C   LIG    1      -20.286  81.869  15.101  0.00  0.00    +0.107 C 
ATOM      3  C   LIG    1      -19.504  80.635  15.596  0.00  0.00    +0.029 C 
ATOM      4  C   LIG    1      -18.777  80.128  14.363  0.00  0.00    +0.021 C 
ATOM      5  C   LIG    1      -18.407  81.413  13.651  0.00  0.00    +0.107 C 
ENDROOT
BRANCH   1   9
ATOM      6  C   LIG    1      -20.924  87.036  13.936  0.00  0.00    +0.100 A 
ATOM      7  C   LIG    1      -20.127  85.911  13.759  0.00  0.00    +0.170 A 
ATOM      8  N   LIG    1      -20.320  84.569  14.015  0.00  0.00    -0.212 NA
ATOM      9  C   LIG    1      -19.348  83.733  13.703  0.00  0.00    +0.126 A 
ATOM     10  C   LIG    1      -18.065  84.217  13.060  0.00  0.00    +0.063 A 
ATOM     11  C   LIG    1      -17.913  85.528  12.881  0.00  0.00    +0.118 A 
ATOM     12  N   LIG    1      -18.930  86.394  13.222  0.00  0.00    -0.221 N 
ATOM     13  N   LIG    1      -18.913  87.738  13.096  0.00  0.00    -0.173 NA
ATOM     14  C   LIG    1      -20.110  88.115  13.525  0.00  0.00    +0.150 A 
BRANCH   6  18
ATOM     15  N   LIG    1      -23.135  86.176  14.041  0.00  0.00    -0.325 N 
ATOM     16  H   LIG    1      -22.828  85.422  13.422  0.00  0.00    +0.145 HD
ATOM     17  H   LIG    1      -24.103  86.231  14.321  0.00  0.00    +0.145 HD
ATOM     18  C   LIG    1      -22.285  87.165  14.432  0.00  0.00    +0.247 C 
ATOM     19  O   LIG    1      -22.656  88.081  15.138  0.00  0.00    -0.270 OA
ENDBRANCH   6  18
ENDBRANCH   1   9
BRANCH   2  20
ATOM     20  C   LIG    1      -21.713  81.547  14.688  0.00  0.00    -0.001 A 
ATOM     21  CA  LIG    1      -22.826  82.028  15.409  0.00  0.00    +0.072 A 
ATOM     22  N   LIG    1      -24.119  81.748  15.058  0.00  0.00    -0.254 NA
ATOM     23  C   LIG    1      -24.318  80.994  13.952  0.00  0.00    +0.149 A 
ATOM     24  C   LIG    1      -23.291  80.475  13.195  0.00  0.00    +0.142 A 
ATOM     25  F   LIG    1      -23.547  79.722  12.117  0.00  0.00    -0.204 F 
ATOM     26  C   LIG    1      -21.983  80.742  13.567  0.00  0.00    +0.047 A 
BRANCH  21  27
ATOM     27  C   LIG    1      -22.680  82.902  16.643  0.00  0.00    +0.211 C 
BRANCH  27  28
ATOM     28  O   LIG    1      -22.532  84.282  16.303  0.00  0.00    -0.389 OA
ATOM     29  H   LIG    1      -22.876  84.358  15.389  0.00  0.00    +0.210 HD
ENDBRANCH  27  28
ENDBRANCH  21  27
ENDBRANCH   2  20
TORSDOF 5
ENDMDL
MODEL 3
REMARK VINA RESULT:      -5.8     13.892     15.609
REMARK  Name = pdb/CHEMBL3675957.pdb
REMARK                            x       y       z     vdW  Elec       q    Type
REMARK                         _______ _______ _______ _____ _____    ______ ____
ROOT
ATOM      1  N   LIG    1      -34.750  91.515  19.365  0.00  0.00    -0.308 N 
ATOM      2  C   LIG    1      -35.333  91.491  18.009  0.00  0.00    +0.107 C 
ATOM      3  C   LIG    1      -36.817  91.154  18.260  0.00  0.00    +0.029 C 
ATOM      4  C   LIG    1      -36.810  90.337  19.539  0.00  0.00    +0.021 C 
ATOM      5  C   LIG    1      -35.714  91.004  20.345  0.00  0.00    +0.107 C 
ENDROOT
BRANCH   1   9
ATOM      6  C   LIG    1      -31.744  93.818  22.452  0.00  0.00    +0.100 A 
ATOM      7  C   LIG    1      -32.338  93.405  21.265  0.00  0.00    +0.170 A 
ATOM      8  N   LIG    1      -33.391  92.560  20.982  0.00  0.00    -0.212 NA
ATOM      9  C   LIG    1      -33.727  92.394  19.716  0.00  0.00    +0.126 A 
ATOM     10  C   LIG    1      -33.006  93.123  18.603  0.00  0.00    +0.063 A 
ATOM     11  C   LIG    1      -31.966  93.889  18.931  0.00  0.00    +0.118 A 
ATOM     12  N   LIG    1      -31.614  94.045  20.254  0.00  0.00    -0.221 N 
ATOM     13  N   LIG    1      -30.590  94.787  20.728  0.00  0.00    -0.173 NA
ATOM     14  C   LIG    1      -30.674  94.646  22.044  0.00  0.00    +0.150 A 
BRANCH   6  18
ATOM     15  N   LIG    1      -33.344  93.063  24.035  0.00  0.00    -0.325 N 
ATOM     16  H   LIG    1      -34.010  92.983  23.263  0.00  0.00    +0.145 HD
ATOM     17  H   LIG    1      -33.646  92.869  24.979  0.00  0.00    +0.145 HD
ATOM     18  C   LIG    1      -32.074  93.509  23.834  0.00  0.00    +0.247 C 
ATOM     19  O   LIG    1      -31.292  93.639  24.754  0.00  0.00    -0.270 OA
ENDBRANCH   6  18
ENDBRANCH   1   9
BRANCH   2  20
ATOM     20  C   LIG    1      -34.643  90.499  17.086  0.00  0.00    -0.001 A 
ATOM     21  CA  LIG    1      -34.662  90.646  15.683  0.00  0.00    +0.072 A 
ATOM     22  N   LIG    1      -34.050  89.765  14.834  0.00  0.00    -0.254 NA
ATOM     23  C   LIG    1      -33.383  88.724  15.384  0.00  0.00    +0.149 A 
ATOM     24  C   LIG    1      -33.322  88.498  16.742  0.00  0.00    +0.142 A 
ATOM     25  F   LIG    1      -32.659  87.443  17.232  0.00  0.00    -0.204 F 
ATOM     26  C   LIG    1      -33.961  89.381  17.598  0.00  0.00    +0.047 A 
BRANCH  21  27
ATOM     27  C   LIG    1      -35.366  91.804  14.996  0.00  0.00    +0.211 C 
BRANCH  27  28
ATOM     28  O   LIG    1      -36.726  91.492  14.689  0.00  0.00    -0.389 OA
ATOM     29  H   LIG    1      -37.173  91.415  15.558  0.00  0.00    +0.210 HD
ENDBRANCH  27  28
ENDBRANCH  21  27
ENDBRANCH   2  20
TORSDOF 5
ENDMDL
MODEL 4
REMARK VINA RESULT:      -5.7     22.254     23.719
REMARK  Name = pdb/CHEMBL3675957.pdb
REMARK                            x       y       z     vdW  Elec       q    Type
REMARK                         _______ _______ _______ _____ _____    ______ ____
ROOT
ATOM      1  N   LIG    1      -39.991  69.825  23.316  0.00  0.00    -0.308 N 
ATOM      2  C   LIG    1      -39.853  70.438  24.652  0.00  0.00    +0.107 C 
ATOM      3  C   LIG    1      -41.215  70.158  25.321  0.00  0.00    +0.029 C 
ATOM      4  C   LIG    1      -42.198  70.090  24.166  0.00  0.00    +0.021 C 
ATOM      5  C   LIG    1      -41.381  69.418  23.081  0.00  0.00    +0.107 C 
ENDROOT
BRANCH   1   9
ATOM      6  C   LIG    1      -35.563  67.782  23.013  0.00  0.00    +0.100 A 
ATOM      7  C   LIG    1      -36.821  68.245  22.643  0.00  0.00    +0.170 A 
ATOM      8  N   LIG    1      -37.829  68.887  23.331  0.00  0.00    -0.212 NA
ATOM      9  C   LIG    1      -38.919  69.219  22.665  0.00  0.00    +0.126 A 
ATOM     10  C   LIG    1      -39.059  68.933  21.185  0.00  0.00    +0.063 A 
ATOM     11  C   LIG    1      -38.075  68.267  20.582  0.00  0.00    +0.118 A 
ATOM     12  N   LIG    1      -36.946  67.913  21.290  0.00  0.00    -0.221 N 
ATOM     13  N   LIG    1      -35.878  67.241  20.810  0.00  0.00    -0.173 NA
ATOM     14  C   LIG    1      -35.054  67.167  21.847  0.00  0.00    +0.150 A 
BRANCH   6  18
ATOM     15  N   LIG    1      -34.672  66.668  24.911  0.00  0.00    -0.325 N 
ATOM     16  H   LIG    1      -35.029  65.795  24.515  0.00  0.00    +0.145 HD
ATOM     17  H   LIG    1      -34.226  66.661  25.816  0.00  0.00    +0.145 HD
ATOM     18  C   LIG    1      -34.861  67.861  24.284  0.00  0.00    +0.247 C 
ATOM     19  O   LIG    1      -34.470  68.904  24.769  0.00  0.00    -0.270 OA
ENDBRANCH   6  18
ENDBRANCH   1   9
BRANCH   2  20
ATOM     20  C   LIG    1      -39.511  71.918  24.591  0.00  0.00    -0.001 A 
ATOM     21  CA  LIG    1      -38.278  72.419  25.058  0.00  0.00    +0.072 A 
ATOM     22  N   LIG    1      -37.950  73.747  25.016  0.00  0.00    -0.254 NA
ATOM     23  C   LIG    1      -38.852  74.599  24.476  0.00  0.00    +0.149 A 
ATOM     24  C   LIG    1      -40.083  74.198  24.005  0.00  0.00    +0.142 A 
ATOM     25  F   LIG    1      -40.944  75.087  23.494  0.00  0.00    -0.204 F 
ATOM     26  C   LIG    1      -40.421  72.855  24.070  0.00  0.00    +0.047 A 
BRANCH  21  27
ATOM     27  C   LIG    1      -37.206  71.520  25.650  0.00  0.00    +0.211 C 
BRANCH  27  28
ATOM     28  O   LIG    1      -36.184  71.214  24.699  0.00  0.00    -0.389 OA
ATOM     29  H   LIG    1      -35.349  71.220  25.211  0.00  0.00    +0.210 HD
ENDBRANCH  27  28
ENDBRANCH  21  27
ENDBRANCH   2  20
TORSDOF 5
ENDMDL
MODEL 5
REMARK VINA RESULT:      -5.6     18.218     21.657
REMARK  Name = pdb/CHEMBL3675957.pdb
REMARK                            x       y       z     vdW  Elec       q    Type
REMARK                         _______ _______ _______ _____ _____    ______ ____
ROOT
ATOM      1  N   LIG    1      -22.789  77.449  34.269  0.00  0.00    -0.308 N 
ATOM      2  C   LIG    1      -23.557  77.352  33.011  0.00  0.00    +0.107 C 
ATOM      3  C   LIG    1      -24.596  76.252  33.305  0.00  0.00    +0.029 C 
ATOM      4  C   LIG    1      -23.921  75.357  34.330  0.00  0.00    +0.021 C 
ATOM      5  C   LIG    1      -23.149  76.351  35.173  0.00  0.00    +0.107 C 
ENDROOT
BRANCH   1   9
ATOM      6  C   LIG    1      -23.042  81.877  36.318  0.00  0.00    +0.100 A 
ATOM      7  C   LIG    1      -22.512  80.729  35.741  0.00  0.00    +0.170 A 
ATOM      8  N   LIG    1      -23.081  79.571  35.250  0.00  0.00    -0.212 NA
ATOM      9  C   LIG    1      -22.279  78.659  34.735  0.00  0.00    +0.126 A 
ATOM     10  C   LIG    1      -20.783  78.875  34.654  0.00  0.00    +0.063 A 
ATOM     11  C   LIG    1      -20.284  79.989  35.186  0.00  0.00    +0.118 A 
ATOM     12  N   LIG    1      -21.128  80.930  35.735  0.00  0.00    -0.221 N 
ATOM     13  N   LIG    1      -20.763  82.098  36.306  0.00  0.00    -0.173 NA
ATOM     14  C   LIG    1      -21.914  82.659  36.652  0.00  0.00    +0.150 A 
BRANCH   6  18
ATOM     15  N   LIG    1      -25.272  81.226  36.806  0.00  0.00    -0.325 N 
ATOM     16  H   LIG    1      -24.951  80.255  36.780  0.00  0.00    +0.145 HD
ATOM     17  H   LIG    1      -26.252  81.425  36.948  0.00  0.00    +0.145 HD
ATOM     18  C   LIG    1      -24.423  82.261  36.568  0.00  0.00    +0.247 C 
ATOM     19  O   LIG    1      -24.807  83.413  36.562  0.00  0.00    -0.270 OA
ENDBRANCH   6  18
ENDBRANCH   1   9
BRANCH   2  20
ATOM     20  C   LIG    1      -22.681  77.042  31.807  0.00  0.00    -0.001 A 
ATOM     21  CA  LIG    1      -23.048  77.423  30.499  0.00  0.00    +0.072 A 
ATOM     22  N   LIG    1      -22.278  77.152  29.401  0.00  0.00    -0.254 NA
ATOM     23  C   LIG    1      -21.104  76.509  29.602  0.00  0.00    +0.149 A 
ATOM     24  C   LIG    1      -20.673  76.091  30.842  0.00  0.00    +0.142 A 
ATOM     25  F   LIG    1      -19.509  75.444  30.981  0.00  0.00    -0.204 F 
ATOM     26  C   LIG    1      -21.467  76.348  31.949  0.00  0.00    +0.047 A 
BRANCH  21  27
ATOM     27  C   LIG    1      -24.336  78.172  30.201  0.00  0.00    +0.211 C 
BRANCH  27  28
ATOM     28  O   LIG    1      -25.326  77.318  29.625  0.00  0.00    -0.389 OA
ATOM     29  H   LIG    1      -26.171  77.593  30.037  0.00  0.00    +0.210 HD
ENDBRANCH  27  28
ENDBRANCH  21  27
ENDBRANCH   2  20
TORSDOF 5
ENDMDL
MODEL 6
REMARK VINA RESULT:      -5.5      2.819      5.706
REMARK  Name = pdb/CHEMBL3675957.pdb
REMARK                            x       y       z     vdW  Elec       q    Type
REMARK                         _______ _______ _______ _____ _____    ______ ____
ROOT
ATOM      1  N   LIG    1      -23.236  82.274  12.024  0.00  0.00    -0.308 N 
ATOM      2  C   LIG    1      -22.066  81.496  12.477  0.00  0.00    +0.107 C 
ATOM      3  C   LIG    1      -22.067  80.267  11.545  0.00  0.00    +0.029 C 
ATOM      4  C   LIG    1      -23.528  80.069  11.180  0.00  0.00    +0.021 C 
ATOM      5  C   LIG    1      -24.032  81.494  11.072  0.00  0.00    +0.107 C 
ENDROOT
BRANCH   1   9
ATOM      6  C   LIG    1      -22.640  86.699  14.009  0.00  0.00    +0.100 A 
ATOM      7  C   LIG    1      -22.908  85.710  13.070  0.00  0.00    +0.170 A 
ATOM      8  N   LIG    1      -22.924  84.331  13.131  0.00  0.00    -0.212 NA
ATOM      9  C   LIG    1      -23.249  83.668  12.038  0.00  0.00    +0.126 A 
ATOM     10  C   LIG    1      -23.621  84.385  10.758  0.00  0.00    +0.063 A 
ATOM     11  C   LIG    1      -23.541  85.715  10.742  0.00  0.00    +0.118 A 
ATOM     12  N   LIG    1      -23.187  86.399  11.886  0.00  0.00    -0.221 N 
ATOM     13  N   LIG    1      -23.068  87.737  12.013  0.00  0.00    -0.173 NA
ATOM     14  C   LIG    1      -22.740  87.910  13.287  0.00  0.00    +0.150 A 
BRANCH   6  18
ATOM     15  N   LIG    1      -22.401  85.347  15.946  0.00  0.00    -0.325 N 
ATOM     16  H   LIG    1      -22.703  84.552  15.379  0.00  0.00    +0.145 HD
ATOM     17  H   LIG    1      -22.224  85.221  16.932  0.00  0.00    +0.145 HD
ATOM     18  C   LIG    1      -22.312  86.600  15.423  0.00  0.00    +0.247 C 
ATOM     19  O   LIG    1      -21.988  87.554  16.102  0.00  0.00    -0.270 OA
ENDBRANCH   6  18
ENDBRANCH   1   9
BRANCH   2  20
ATOM     20  C   LIG    1      -22.134  81.129  13.951  0.00  0.00    -0.001 A 
ATOM     21  CA  LIG    1      -21.149  81.547  14.870  0.00  0.00    +0.072 A 
ATOM     22  N   LIG    1      -21.189  81.227  16.200  0.00  0.00    -0.254 NA
ATOM     23  C   LIG    1      -22.240  80.495  16.638  0.00  0.00    +0.149 A 
ATOM     24  C   LIG    1      -23.240  80.036  15.809  0.00  0.00    +0.142 A 
ATOM     25  F   LIG    1      -24.250  79.303  16.293  0.00  0.00    -0.204 F 
ATOM     26  C   LIG    1      -23.185  80.345  14.458  0.00  0.00    +0.047 A 
BRANCH  21  27
ATOM     27  C   LIG    1      -19.957  82.394  14.458  0.00  0.00    +0.211 C 
BRANCH  27  28
ATOM     28  O   LIG    1      -20.288  83.782  14.391  0.00  0.00    -0.389 OA
ATOM     29  H   LIG    1      -19.631  84.230  14.963  0.00  0.00    +0.210 HD
ENDBRANCH  27  28
ENDBRANCH  21  27
ENDBRANCH   2  20
TORSDOF 5
ENDMDL
MODEL 7
REMARK VINA RESULT:      -5.4     18.203     21.040
REMARK  Name = pdb/CHEMBL3675957.pdb
REMARK                            x       y       z     vdW  Elec       q    Type
REMARK                         _______ _______ _______ _____ _____    ______ ____
ROOT
ATOM      1  N   LIG    1      -24.228  78.262  33.954  0.00  0.00    -0.308 N 
ATOM      2  C   LIG    1      -23.363  78.324  35.149  0.00  0.00    +0.107 C 
ATOM      3  C   LIG    1      -24.267  77.790  36.278  0.00  0.00    +0.029 C 
ATOM      4  C   LIG    1      -25.675  78.151  35.839  0.00  0.00    +0.021 C 
ATOM      5  C   LIG    1      -25.610  77.953  34.339  0.00  0.00    +0.107 C 
ENDROOT
BRANCH   1   9
ATOM      6  C   LIG    1      -20.828  76.811  30.758  0.00  0.00    +0.100 A 
ATOM      7  C   LIG    1      -22.049  77.237  31.270  0.00  0.00    +0.170 A 
ATOM      8  N   LIG    1      -22.476  77.565  32.540  0.00  0.00    -0.212 NA
ATOM      9  C   LIG    1      -23.725  77.964  32.689  0.00  0.00    +0.126 A 
ATOM     10  C   LIG    1      -24.662  78.088  31.507  0.00  0.00    +0.063 A 
ATOM     11  C   LIG    1      -24.211  77.712  30.311  0.00  0.00    +0.118 A 
ATOM     12  N   LIG    1      -22.909  77.284  30.168  0.00  0.00    -0.221 N 
ATOM     13  N   LIG    1      -22.321  76.876  29.023  0.00  0.00    -0.173 NA
ATOM     14  C   LIG    1      -21.076  76.595  29.384  0.00  0.00    +0.150 A 
BRANCH   6  18
ATOM     15  N   LIG    1      -19.627  76.213  32.717  0.00  0.00    -0.325 N 
ATOM     16  H   LIG    1      -20.528  76.110  33.189  0.00  0.00    +0.145 HD
ATOM     17  H   LIG    1      -18.772  76.088  33.238  0.00  0.00    +0.145 HD
ATOM     18  C   LIG    1      -19.548  76.600  31.415  0.00  0.00    +0.247 C 
ATOM     19  O   LIG    1      -18.478  76.758  30.861  0.00  0.00    -0.270 OA
ENDBRANCH   6  18
ENDBRANCH   1   9
BRANCH   2  20
ATOM     20  C   LIG    1      -22.830  79.722  35.420  0.00  0.00    -0.001 A 
ATOM     21  CA  LIG    1      -21.455  80.027  35.328  0.00  0.00    +0.072 A 
ATOM     22  N   LIG    1      -20.953  81.277  35.570  0.00  0.00    -0.254 NA
ATOM     23  C   LIG    1      -21.832  82.255  35.887  0.00  0.00    +0.149 A 
ATOM     24  C   LIG    1      -23.187  82.044  36.009  0.00  0.00    +0.142 A 
ATOM     25  F   LIG    1      -24.011  83.047  36.340  0.00  0.00    -0.204 F 
ATOM     26  C   LIG    1      -23.690  80.772  35.784  0.00  0.00    +0.047 A 
BRANCH  21  27
ATOM     27  C   LIG    1      -20.414  78.988  34.950  0.00  0.00    +0.211 C 
BRANCH  27  28
ATOM     28  O   LIG    1      -19.991  79.129  33.592  0.00  0.00    -0.389 OA
ATOM     29  H   LIG    1      -20.262  80.033  33.332  0.00  0.00    +0.210 HD
ENDBRANCH  27  28
ENDBRANCH  21  27
ENDBRANCH   2  20
TORSDOF 5
ENDMDL
MODEL 8
REMARK VINA RESULT:      -5.4     18.214     21.106
REMARK  Name = pdb/CHEMBL3675957.pdb
REMARK                            x       y       z     vdW  Elec       q    Type
REMARK                         _______ _______ _______ _____ _____    ______ ____
ROOT
ATOM      1  N   LIG    1      -37.670  75.754  25.973  0.00  0.00    -0.308 N 
ATOM      2  C   LIG    1      -38.924  76.365  26.458  0.00  0.00    +0.107 C 
ATOM      3  C   LIG    1      -40.021  75.456  25.868  0.00  0.00    +0.029 C 
ATOM      4  C   LIG    1      -39.411  74.905  24.591  0.00  0.00    +0.021 C 
ATOM      5  C   LIG    1      -37.959  74.715  24.979  0.00  0.00    +0.107 C 
ENDROOT
BRANCH   1   9
ATOM      6  C   LIG    1      -33.356  77.469  27.497  0.00  0.00    +0.100 A 
ATOM      7  C   LIG    1      -34.487  76.665  27.400  0.00  0.00    +0.170 A 
ATOM      8  N   LIG    1      -35.598  76.695  26.582  0.00  0.00    -0.212 NA
ATOM      9  C   LIG    1      -36.504  75.749  26.736  0.00  0.00    +0.126 A 
ATOM     10  C   LIG    1      -36.330  74.644  27.756  0.00  0.00    +0.063 A 
ATOM     11  C   LIG    1      -35.262  74.693  28.551  0.00  0.00    +0.118 A 
ATOM     12  N   LIG    1      -34.328  75.693  28.392  0.00  0.00    -0.221 N 
ATOM     13  N   LIG    1      -33.205  75.863  29.122  0.00  0.00    -0.173 NA
ATOM     14  C   LIG    1      -32.629  76.928  28.580  0.00  0.00    +0.150 A 
BRANCH   6  18
ATOM     15  N   LIG    1      -33.402  79.820  27.171  0.00  0.00    -0.325 N 
ATOM     16  H   LIG    1      -34.012  79.881  27.990  0.00  0.00    +0.145 HD
ATOM     17  H   LIG    1      -33.183  80.655  26.647  0.00  0.00    +0.145 HD
ATOM     18  C   LIG    1      -32.945  78.623  26.713  0.00  0.00    +0.247 C 
ATOM     19  O   LIG    1      -32.250  78.544  25.720  0.00  0.00    -0.270 OA
ENDBRANCH   6  18
ENDBRANCH   1   9
BRANCH   2  20
ATOM     20  C   LIG    1      -39.069  77.821  26.047  0.00  0.00    -0.001 A 
ATOM     21  CA  LIG    1      -38.824  78.879  26.948  0.00  0.00    +0.072 A 
ATOM     22  N   LIG    1      -38.952  80.197  26.601  0.00  0.00    -0.254 NA
ATOM     23  C   LIG    1      -39.305  80.478  25.325  0.00  0.00    +0.149 A 
ATOM     24  C   LIG    1      -39.572  79.509  24.384  0.00  0.00    +0.142 A 
ATOM     25  F   LIG    1      -39.933  79.844  23.138  0.00  0.00    -0.204 F 
ATOM     26  C   LIG    1      -39.464  78.175  24.745  0.00  0.00    +0.047 A 
BRANCH  21  27
ATOM     27  C   LIG    1      -38.397  78.641  28.386  0.00  0.00    +0.211 C 
BRANCH  27  28
ATOM     28  O   LIG    1      -36.978  78.719  28.539  0.00  0.00    -0.389 OA
ATOM     29  H   LIG    1      -36.709  79.507  28.023  0.00  0.00    +0.210 HD
ENDBRANCH  27  28
ENDBRANCH  21  27
ENDBRANCH   2  20
TORSDOF 5
ENDMDL
MODEL 9
REMARK VINA RESULT:      -5.3     18.340     21.259
REMARK  Name = pdb/CHEMBL3675957.pdb
REMARK                            x       y       z     vdW  Elec       q    Type
REMARK                         _______ _______ _______ _____ _____    ______ ____
ROOT
ATOM      1  N   LIG    1      -34.873  74.872  28.725  0.00  0.00    -0.308 N 
ATOM      2  C   LIG    1      -33.714  75.679  28.296  0.00  0.00    +0.107 C 
ATOM      3  C   LIG    1      -32.546  75.101  29.121  0.00  0.00    +0.029 C 
ATOM      4  C   LIG    1      -33.198  74.581  30.390  0.00  0.00    +0.021 C 
ATOM      5  C   LIG    1      -34.518  74.039  29.879  0.00  0.00    +0.107 C 
ENDROOT
BRANCH   1   9
ATOM      6  C   LIG    1      -38.232  75.712  25.277  0.00  0.00    +0.100 A 
ATOM      7  C   LIG    1      -37.439  75.035  26.197  0.00  0.00    +0.170 A 
ATOM      8  N   LIG    1      -36.460  75.443  27.079  0.00  0.00    -0.212 NA
ATOM      9  C   LIG    1      -35.902  74.529  27.850  0.00  0.00    +0.126 A 
ATOM     10  C   LIG    1      -36.332  73.079  27.796  0.00  0.00    +0.063 A 
ATOM     11  C   LIG    1      -37.248  72.733  26.892  0.00  0.00    +0.118 A 
ATOM     12  N   LIG    1      -37.815  73.693  26.082  0.00  0.00    -0.221 N 
ATOM     13  N   LIG    1      -38.749  73.486  25.129  0.00  0.00    -0.173 NA
ATOM     14  C   LIG    1      -38.993  74.699  24.652  0.00  0.00    +0.150 A 
BRANCH   6  18
ATOM     15  N   LIG    1      -38.033  77.966  25.994  0.00  0.00    -0.325 N 
ATOM     16  H   LIG    1      -37.809  77.608  26.926  0.00  0.00    +0.145 HD
ATOM     17  H   LIG    1      -38.111  78.962  25.847  0.00  0.00    +0.145 HD
ATOM     18  C   LIG    1      -38.314  77.129  24.959  0.00  0.00    +0.247 C 
ATOM     19  O   LIG    1      -38.615  77.551  23.861  0.00  0.00    -0.270 OA
ENDBRANCH   6  18
ENDBRANCH   1   9
BRANCH   2  20
ATOM     20  C   LIG    1      -33.920  77.170  28.514  0.00  0.00    -0.001 A 
ATOM     21  CA  LIG    1      -33.292  78.137  27.700  0.00  0.00    +0.072 A 
ATOM     22  N   LIG    1      -33.460  79.483  27.880  0.00  0.00    -0.254 NA
ATOM     23  C   LIG    1      -34.288  79.885  28.872  0.00  0.00    +0.149 A 
ATOM     24  C   LIG    1      -34.933  79.011  29.719  0.00  0.00    +0.142 A 
ATOM     25  F   LIG    1      -35.730  79.464  30.695  0.00  0.00    -0.204 F 
ATOM     26  C   LIG    1      -34.742  77.648  29.548  0.00  0.00    +0.047 A 
BRANCH  21  27
ATOM     27  C   LIG    1      -32.372  77.761  26.551  0.00  0.00    +0.211 C 
BRANCH  27  28
ATOM     28  O   LIG    1      -32.294  78.799  25.572  0.00  0.00    -0.389 OA
ATOM     29  H   LIG    1      -31.829  79.536  26.018  0.00  0.00    +0.210 HD
ENDBRANCH  27  28
ENDBRANCH  21  27
ENDBRANCH   2  20
TORSDOF 5
ENDMDL
