MODEL 1
REMARK VINA RESULT:      -6.6      0.000      0.000
REMARK  Name = pdb/CHEMBL2152286.pdb
REMARK                            x       y       z     vdW  Elec       q    Type
REMARK                         _______ _______ _______ _____ _____    ______ ____
ROOT
ATOM      1  C   LIG    1      -20.763  81.299  36.287  0.00  0.00    +0.050 A 
ATOM      2  C   LIG    1      -20.731  80.619  35.065  0.00  0.00    +0.033 A 
ATOM      3  C   LIG    1      -19.815  79.576  34.835  0.00  0.00    -0.013 A 
ATOM      4  C   LIG    1      -18.928  79.268  35.888  0.00  0.00    +0.031 A 
ATOM      5  C   LIG    1      -18.902  79.993  37.089  0.00  0.00    +0.027 A 
ATOM      6  C   LIG    1      -19.858  80.984  37.295  0.00  0.00    +0.047 A 
ENDROOT
BRANCH   3   7
ATOM      7  C   LIG    1      -19.788  78.834  33.547  0.00  0.00    +0.001 A 
ATOM      8  C   LIG    1      -20.955  78.303  32.962  0.00  0.00    +0.022 A 
ATOM      9  C   LIG    1      -20.878  77.591  31.744  0.00  0.00    +0.027 A 
ATOM     10  C   LIG    1      -21.795  76.924  30.858  0.00  0.00    +0.009 A 
ATOM     11  C   LIG    1      -21.037  76.434  29.804  0.00  0.00    +0.093 A 
ATOM     12  N   LIG    1      -19.728  76.781  30.010  0.00  0.00    -0.345 N 
ATOM     13  H   LIG    1      -18.946  76.567  29.409  0.00  0.00    +0.167 HD
ATOM     14  C   LIG    1      -19.614  77.481  31.177  0.00  0.00    +0.139 A 
ATOM     15  N   LIG    1      -18.455  77.963  31.652  0.00  0.00    -0.237 NA
ATOM     16  C   LIG    1      -18.602  78.621  32.832  0.00  0.00    +0.121 A 
BRANCH  10  17
ATOM     17  C   LIG    1      -23.241  76.728  30.946  0.00  0.00    -0.013 A 
ATOM     18  C   LIG    1      -23.789  75.448  31.072  0.00  0.00    +0.028 A 
ATOM     19  C   LIG    1      -25.166  75.313  31.160  0.00  0.00    +0.111 A 
ATOM     20  N   LIG    1      -26.025  76.350  31.122  0.00  0.00    -0.263 NA
ATOM     21  C   LIG    1      -25.481  77.577  30.995  0.00  0.00    +0.111 A 
ATOM     22  C   LIG    1      -24.117  77.815  30.912  0.00  0.00    +0.028 A 
ENDBRANCH  10  17
ENDBRANCH   3   7
BRANCH   5  23
ATOM     23  N   LIG    1      -18.088  79.570  38.147  0.00  0.00    -0.358 N 
ATOM     24  H   LIG    1      -17.953  78.564  38.193  0.00  0.00    +0.142 HD
ATOM     25  H   LIG    1      -17.210  80.076  38.225  0.00  0.00    +0.142 HD
ENDBRANCH   5  23
BRANCH   1  26
ATOM     26  N   LIG    1      -21.681  82.373  36.468  0.00  0.00    -0.216 N 
ATOM     27  H   LIG    1      -21.313  83.236  36.871  0.00  0.00    +0.174 HD
BRANCH  26  28
ATOM     28  S   LIG    1      -23.188  81.994  37.145  0.00  0.00    +0.072 S 
ATOM     29  O   LIG    1      -23.046  81.825  38.578  0.00  0.00    -0.150 OA
ATOM     30  O   LIG    1      -24.125  82.949  36.601  0.00  0.00    -0.150 OA
BRANCH  28  35
ATOM     31  C   LIG    1      -24.253  76.593  34.588  0.00  0.00    +0.044 C 
ATOM     32  C   LIG    1      -24.037  77.931  35.234  0.00  0.00    -0.050 A 
ATOM     33  C   LIG    1      -23.533  78.003  36.542  0.00  0.00    +0.005 A 
ATOM     34  C   LIG    1      -23.287  79.241  37.140  0.00  0.00    +0.029 A 
ATOM     35  C   LIG    1      -23.549  80.412  36.424  0.00  0.00    +0.109 A 
ATOM     36  C   LIG    1      -24.033  80.353  35.115  0.00  0.00    +0.029 A 
ATOM     37  C   LIG    1      -24.283  79.113  34.527  0.00  0.00    +0.005 A 
ENDBRANCH  28  35
ENDBRANCH  26  28
ENDBRANCH   1  26
TORSDOF 6
ENDMDL
MODEL 2
REMARK VINA RESULT:      -6.3     12.765     17.316
REMARK  Name = pdb/CHEMBL2152286.pdb
REMARK                            x       y       z     vdW  Elec       q    Type
REMARK                         _______ _______ _______ _____ _____    ______ ____
ROOT
ATOM      1  C   LIG    1      -36.489  71.220  27.094  0.00  0.00    +0.050 A 
ATOM      2  C   LIG    1      -35.569  72.080  27.703  0.00  0.00    +0.033 A 
ATOM      3  C   LIG    1      -34.369  71.593  28.251  0.00  0.00    -0.013 A 
ATOM      4  C   LIG    1      -34.153  70.201  28.170  0.00  0.00    +0.031 A 
ATOM      5  C   LIG    1      -35.103  69.321  27.628  0.00  0.00    +0.027 A 
ATOM      6  C   LIG    1      -36.255  69.849  27.052  0.00  0.00    +0.047 A 
ENDROOT
BRANCH   3   7
ATOM      7  C   LIG    1      -33.376  72.503  28.881  0.00  0.00    +0.001 A 
ATOM      8  C   LIG    1      -33.300  73.871  28.556  0.00  0.00    +0.022 A 
ATOM      9  C   LIG    1      -32.329  74.695  29.170  0.00  0.00    +0.027 A 
ATOM     10  C   LIG    1      -31.942  76.080  29.117  0.00  0.00    +0.009 A 
ATOM     11  C   LIG    1      -30.891  76.229  30.012  0.00  0.00    +0.093 A 
ATOM     12  N   LIG    1      -30.642  75.015  30.597  0.00  0.00    -0.345 N 
ATOM     13  H   LIG    1      -29.939  74.815  31.293  0.00  0.00    +0.167 HD
ATOM     14  C   LIG    1      -31.502  74.078  30.100  0.00  0.00    +0.139 A 
ATOM     15  N   LIG    1      -31.509  72.790  30.482  0.00  0.00    -0.237 NA
ATOM     16  C   LIG    1      -32.456  72.057  29.841  0.00  0.00    +0.121 A 
BRANCH  10  17
ATOM     17  C   LIG    1      -32.461  77.191  28.321  0.00  0.00    -0.013 A 
ATOM     18  C   LIG    1      -31.906  77.510  27.079  0.00  0.00    +0.028 A 
ATOM     19  C   LIG    1      -32.438  78.568  26.358  0.00  0.00    +0.111 A 
ATOM     20  N   LIG    1      -33.466  79.325  26.787  0.00  0.00    -0.263 NA
ATOM     21  C   LIG    1      -33.987  79.007  27.988  0.00  0.00    +0.111 A 
ATOM     22  C   LIG    1      -33.533  77.961  28.777  0.00  0.00    +0.028 A 
ENDBRANCH  10  17
ENDBRANCH   3   7
BRANCH   5  23
ATOM     23  N   LIG    1      -34.789  67.966  27.460  0.00  0.00    -0.358 N 
ATOM     24  H   LIG    1      -34.582  67.476  28.325  0.00  0.00    +0.142 HD
ATOM     25  H   LIG    1      -35.448  67.455  26.882  0.00  0.00    +0.142 HD
ENDBRANCH   5  23
BRANCH   1  26
ATOM     26  N   LIG    1      -37.710  71.746  26.583  0.00  0.00    -0.216 N 
ATOM     27  H   LIG    1      -38.552  71.588  27.137  0.00  0.00    +0.174 HD
BRANCH  26  28
ATOM     28  S   LIG    1      -38.024  71.502  24.935  0.00  0.00    +0.072 S 
ATOM     29  O   LIG    1      -36.777  71.537  24.196  0.00  0.00    -0.150 OA
ATOM     30  O   LIG    1      -38.899  70.356  24.858  0.00  0.00    -0.150 OA
BRANCH  28  35
ATOM     31  C   LIG    1      -41.378  76.390  23.628  0.00  0.00    +0.044 C 
ATOM     32  C   LIG    1      -40.530  75.182  23.905  0.00  0.00    -0.050 A 
ATOM     33  C   LIG    1      -39.275  75.332  24.514  0.00  0.00    +0.005 A 
ATOM     34  C   LIG    1      -38.495  74.214  24.817  0.00  0.00    +0.029 A 
ATOM     35  C   LIG    1      -38.975  72.938  24.506  0.00  0.00    +0.109 A 
ATOM     36  C   LIG    1      -40.231  72.776  23.916  0.00  0.00    +0.029 A 
ATOM     37  C   LIG    1      -41.001  73.897  23.610  0.00  0.00    +0.005 A 
ENDBRANCH  28  35
ENDBRANCH  26  28
ENDBRANCH   1  26
TORSDOF 6
ENDMDL
MODEL 3
REMARK VINA RESULT:      -6.2      5.852      9.691
REMARK  Name = pdb/CHEMBL2152286.pdb
REMARK                            x       y       z     vdW  Elec       q    Type
REMARK                         _______ _______ _______ _____ _____    ______ ____
ROOT
ATOM      1  C   LIG    1      -26.487  76.390  32.551  0.00  0.00    +0.050 A 
ATOM      2  C   LIG    1      -27.508  75.829  31.776  0.00  0.00    +0.033 A 
ATOM      3  C   LIG    1      -28.848  75.864  32.200  0.00  0.00    -0.013 A 
ATOM      4  C   LIG    1      -29.104  76.478  33.444  0.00  0.00    +0.031 A 
ATOM      5  C   LIG    1      -28.080  76.978  34.263  0.00  0.00    +0.027 A 
ATOM      6  C   LIG    1      -26.772  76.966  33.785  0.00  0.00    +0.047 A 
ENDROOT
BRANCH   3   7
ATOM      7  C   LIG    1      -29.941  75.288  31.373  0.00  0.00    +0.001 A 
ATOM      8  C   LIG    1      -30.664  76.060  30.441  0.00  0.00    +0.022 A 
ATOM      9  C   LIG    1      -31.705  75.472  29.688  0.00  0.00    +0.027 A 
ATOM     10  C   LIG    1      -32.639  75.896  28.678  0.00  0.00    +0.009 A 
ATOM     11  C   LIG    1      -33.397  74.780  28.350  0.00  0.00    +0.093 A 
ATOM     12  N   LIG    1      -32.958  73.720  29.099  0.00  0.00    -0.345 N 
ATOM     13  H   LIG    1      -33.315  72.776  29.075  0.00  0.00    +0.167 HD
ATOM     14  C   LIG    1      -31.937  74.121  29.912  0.00  0.00    +0.139 A 
ATOM     15  N   LIG    1      -31.294  73.306  30.765  0.00  0.00    -0.237 NA
ATOM     16  C   LIG    1      -30.318  73.941  31.465  0.00  0.00    +0.121 A 
BRANCH  10  17
ATOM     17  C   LIG    1      -32.850  77.202  28.056  0.00  0.00    -0.013 A 
ATOM     18  C   LIG    1      -32.186  77.556  26.878  0.00  0.00    +0.028 A 
ATOM     19  C   LIG    1      -32.425  78.803  26.321  0.00  0.00    +0.111 A 
ATOM     20  N   LIG    1      -33.262  79.714  26.855  0.00  0.00    -0.263 NA
ATOM     21  C   LIG    1      -33.891  79.359  27.993  0.00  0.00    +0.111 A 
ATOM     22  C   LIG    1      -33.728  78.131  28.618  0.00  0.00    +0.028 A 
ENDBRANCH  10  17
ENDBRANCH   3   7
BRANCH   5  23
ATOM     23  N   LIG    1      -28.396  77.684  35.430  0.00  0.00    -0.358 N 
ATOM     24  H   LIG    1      -29.338  77.523  35.773  0.00  0.00    +0.142 HD
ATOM     25  H   LIG    1      -27.703  77.601  36.168  0.00  0.00    +0.142 HD
ENDBRANCH   5  23
BRANCH   1  26
ATOM     26  N   LIG    1      -25.137  76.301  32.106  0.00  0.00    -0.216 N 
ATOM     27  H   LIG    1      -24.423  76.138  32.816  0.00  0.00    +0.174 HD
BRANCH  26  28
ATOM     28  S   LIG    1      -24.616  77.466  30.990  0.00  0.00    +0.072 S 
ATOM     29  O   LIG    1      -25.250  77.225  29.708  0.00  0.00    -0.150 OA
ATOM     30  O   LIG    1      -24.745  78.743  31.652  0.00  0.00    -0.150 OA
BRANCH  28  35
ATOM     31  C   LIG    1      -18.664  76.425  30.416  0.00  0.00    +0.044 C 
ATOM     32  C   LIG    1      -20.143  76.634  30.561  0.00  0.00    -0.050 A 
ATOM     33  C   LIG    1      -20.688  76.926  31.821  0.00  0.00    +0.005 A 
ATOM     34  C   LIG    1      -22.056  77.165  31.964  0.00  0.00    +0.029 A 
ATOM     35  C   LIG    1      -22.884  77.108  30.838  0.00  0.00    +0.109 A 
ATOM     36  C   LIG    1      -22.350  76.836  29.577  0.00  0.00    +0.029 A 
ATOM     37  C   LIG    1      -20.983  76.591  29.442  0.00  0.00    +0.005 A 
ENDBRANCH  28  35
ENDBRANCH  26  28
ENDBRANCH   1  26
TORSDOF 6
ENDMDL
MODEL 4
REMARK VINA RESULT:      -6.1      2.907      6.519
REMARK  Name = pdb/CHEMBL2152286.pdb
REMARK                            x       y       z     vdW  Elec       q    Type
REMARK                         _______ _______ _______ _____ _____    ______ ____
ROOT
ATOM      1  C   LIG    1      -22.551  76.616  31.116  0.00  0.00    +0.050 A 
ATOM      2  C   LIG    1      -21.926  77.099  32.271  0.00  0.00    +0.033 A 
ATOM      3  C   LIG    1      -20.594  77.549  32.245  0.00  0.00    -0.013 A 
ATOM      4  C   LIG    1      -19.923  77.474  31.006  0.00  0.00    +0.031 A 
ATOM      5  C   LIG    1      -20.516  76.923  29.860  0.00  0.00    +0.027 A 
ATOM      6  C   LIG    1      -21.852  76.533  29.916  0.00  0.00    +0.047 A 
ENDROOT
BRANCH   3   7
ATOM      7  C   LIG    1      -19.929  78.083  33.463  0.00  0.00    +0.001 A 
ATOM      8  C   LIG    1      -20.580  78.967  34.347  0.00  0.00    +0.022 A 
ATOM      9  C   LIG    1      -19.902  79.460  35.485  0.00  0.00    +0.027 A 
ATOM     10  C   LIG    1      -20.200  80.339  36.585  0.00  0.00    +0.009 A 
ATOM     11  C   LIG    1      -19.060  80.380  37.375  0.00  0.00    +0.093 A 
ATOM     12  N   LIG    1      -18.110  79.568  36.811  0.00  0.00    -0.345 N 
ATOM     13  H   LIG    1      -17.181  79.393  37.164  0.00  0.00    +0.167 HD
ATOM     14  C   LIG    1      -18.602  79.005  35.669  0.00  0.00    +0.139 A 
ATOM     15  N   LIG    1      -17.909  78.158  34.892  0.00  0.00    -0.237 NA
ATOM     16  C   LIG    1      -18.616  77.737  33.811  0.00  0.00    +0.121 A 
BRANCH  10  17
ATOM     17  C   LIG    1      -21.408  81.097  36.907  0.00  0.00    -0.013 A 
ATOM     18  C   LIG    1      -22.056  81.868  35.937  0.00  0.00    +0.028 A 
ATOM     19  C   LIG    1      -23.203  82.562  36.288  0.00  0.00    +0.111 A 
ATOM     20  N   LIG    1      -23.737  82.550  37.525  0.00  0.00    -0.263 NA
ATOM     21  C   LIG    1      -23.098  81.806  38.449  0.00  0.00    +0.111 A 
ATOM     22  C   LIG    1      -21.953  81.067  38.192  0.00  0.00    +0.028 A 
ENDBRANCH  10  17
ENDBRANCH   3   7
BRANCH   5  23
ATOM     23  N   LIG    1      -19.852  76.982  28.628  0.00  0.00    -0.358 N 
ATOM     24  H   LIG    1      -19.813  76.097  28.132  0.00  0.00    +0.142 HD
ATOM     25  H   LIG    1      -20.156  77.743  28.028  0.00  0.00    +0.142 HD
ENDBRANCH   5  23
BRANCH   1  26
ATOM     26  N   LIG    1      -23.889  76.134  31.191  0.00  0.00    -0.216 N 
ATOM     27  H   LIG    1      -24.135  75.348  30.588  0.00  0.00    +0.174 HD
BRANCH  26  28
ATOM     28  S   LIG    1      -25.126  77.293  31.195  0.00  0.00    +0.072 S 
ATOM     29  O   LIG    1      -24.738  78.417  30.366  0.00  0.00    -0.150 OA
ATOM     30  O   LIG    1      -26.352  76.574  30.939  0.00  0.00    -0.150 OA
BRANCH  28  35
ATOM     31  C   LIG    1      -25.328  79.258  36.934  0.00  0.00    +0.044 C 
ATOM     32  C   LIG    1      -25.243  78.740  35.528  0.00  0.00    -0.050 A 
ATOM     33  C   LIG    1      -26.126  77.739  35.095  0.00  0.00    +0.005 A 
ATOM     34  C   LIG    1      -26.086  77.279  33.777  0.00  0.00    +0.029 A 
ATOM     35  C   LIG    1      -25.154  77.824  32.888  0.00  0.00    +0.109 A 
ATOM     36  C   LIG    1      -24.281  78.833  33.303  0.00  0.00    +0.029 A 
ATOM     37  C   LIG    1      -24.322  79.283  34.622  0.00  0.00    +0.005 A 
ENDBRANCH  28  35
ENDBRANCH  26  28
ENDBRANCH   1  26
TORSDOF 6
ENDMDL
MODEL 5
REMARK VINA RESULT:      -6.0     14.746     19.390
REMARK  Name = pdb/CHEMBL2152286.pdb
REMARK                            x       y       z     vdW  Elec       q    Type
REMARK                         _______ _______ _______ _____ _____    ______ ____
ROOT
ATOM      1  C   LIG    1      -37.658  76.047  25.193  0.00  0.00    +0.050 A 
ATOM      2  C   LIG    1      -38.095  74.738  24.967  0.00  0.00    +0.033 A 
ATOM      3  C   LIG    1      -39.379  74.476  24.455  0.00  0.00    -0.013 A 
ATOM      4  C   LIG    1      -40.199  75.594  24.197  0.00  0.00    +0.031 A 
ATOM      5  C   LIG    1      -39.798  76.907  24.489  0.00  0.00    +0.027 A 
ATOM      6  C   LIG    1      -38.503  77.126  24.950  0.00  0.00    +0.047 A 
ENDROOT
BRANCH   3   7
ATOM      7  C   LIG    1      -39.843  73.088  24.193  0.00  0.00    +0.001 A 
ATOM      8  C   LIG    1      -38.950  72.003  24.098  0.00  0.00    +0.022 A 
ATOM      9  C   LIG    1      -39.437  70.703  23.833  0.00  0.00    +0.027 A 
ATOM     10  C   LIG    1      -38.880  69.386  23.670  0.00  0.00    +0.009 A 
ATOM     11  C   LIG    1      -39.949  68.532  23.435  0.00  0.00    +0.093 A 
ATOM     12  N   LIG    1      -41.106  69.267  23.461  0.00  0.00    -0.345 N 
ATOM     13  H   LIG    1      -42.044  68.918  23.328  0.00  0.00    +0.167 HD
ATOM     14  C   LIG    1      -40.814  70.579  23.699  0.00  0.00    +0.139 A 
ATOM     15  N   LIG    1      -41.739  71.549  23.786  0.00  0.00    -0.237 NA
ATOM     16  C   LIG    1      -41.199  72.771  24.027  0.00  0.00    +0.121 A 
BRANCH  10  17
ATOM     17  C   LIG    1      -37.495  68.919  23.710  0.00  0.00    -0.013 A 
ATOM     18  C   LIG    1      -36.928  68.246  22.623  0.00  0.00    +0.028 A 
ATOM     19  C   LIG    1      -35.609  67.830  22.705  0.00  0.00    +0.111 A 
ATOM     20  N   LIG    1      -34.826  68.027  23.785  0.00  0.00    -0.263 NA
ATOM     21  C   LIG    1      -35.389  68.673  24.825  0.00  0.00    +0.111 A 
ATOM     22  C   LIG    1      -36.696  69.138  24.833  0.00  0.00    +0.028 A 
ENDBRANCH  10  17
ENDBRANCH   3   7
BRANCH   5  23
ATOM     23  N   LIG    1      -40.600  77.988  24.103  0.00  0.00    -0.358 N 
ATOM     24  H   LIG    1      -41.028  78.487  24.877  0.00  0.00    +0.142 HD
ATOM     25  H   LIG    1      -40.158  78.619  23.441  0.00  0.00    +0.142 HD
ENDBRANCH   5  23
BRANCH   1  26
ATOM     26  N   LIG    1      -36.366  76.270  25.748  0.00  0.00    -0.216 N 
ATOM     27  H   LIG    1      -35.646  75.577  25.544  0.00  0.00    +0.174 HD
BRANCH  26  28
ATOM     28  S   LIG    1      -36.297  76.741  27.375  0.00  0.00    +0.072 S 
ATOM     29  O   LIG    1      -36.003  78.159  27.456  0.00  0.00    -0.150 OA
ATOM     30  O   LIG    1      -37.477  76.193  28.002  0.00  0.00    -0.150 OA
BRANCH  28  35
ATOM     31  C   LIG    1      -31.560  73.688  29.626  0.00  0.00    +0.044 C 
ATOM     32  C   LIG    1      -32.709  74.443  29.026  0.00  0.00    -0.050 A 
ATOM     33  C   LIG    1      -33.849  73.751  28.589  0.00  0.00    +0.005 A 
ATOM     34  C   LIG    1      -34.944  74.444  28.068  0.00  0.00    +0.029 A 
ATOM     35  C   LIG    1      -34.894  75.839  27.981  0.00  0.00    +0.109 A 
ATOM     36  C   LIG    1      -33.772  76.539  28.429  0.00  0.00    +0.029 A 
ATOM     37  C   LIG    1      -32.680  75.840  28.942  0.00  0.00    +0.005 A 
ENDBRANCH  28  35
ENDBRANCH  26  28
ENDBRANCH   1  26
TORSDOF 6
ENDMDL
MODEL 6
REMARK VINA RESULT:      -5.9     13.311     17.996
REMARK  Name = pdb/CHEMBL2152286.pdb
REMARK                            x       y       z     vdW  Elec       q    Type
REMARK                         _______ _______ _______ _____ _____    ______ ____
ROOT
ATOM      1  C   LIG    1      -36.454  69.287  26.400  0.00  0.00    +0.050 A 
ATOM      2  C   LIG    1      -35.699  70.185  27.162  0.00  0.00    +0.033 A 
ATOM      3  C   LIG    1      -34.402  69.859  27.600  0.00  0.00    -0.013 A 
ATOM      4  C   LIG    1      -33.915  68.583  27.245  0.00  0.00    +0.031 A 
ATOM      5  C   LIG    1      -34.692  67.647  26.545  0.00  0.00    +0.027 A 
ATOM      6  C   LIG    1      -35.951  68.028  26.089  0.00  0.00    +0.047 A 
ENDROOT
BRANCH   3   7
ATOM      7  C   LIG    1      -33.585  70.815  28.393  0.00  0.00    +0.001 A 
ATOM      8  C   LIG    1      -33.696  72.210  28.230  0.00  0.00    +0.022 A 
ATOM      9  C   LIG    1      -32.887  73.081  28.996  0.00  0.00    +0.027 A 
ATOM     10  C   LIG    1      -32.704  74.502  29.126  0.00  0.00    +0.009 A 
ATOM     11  C   LIG    1      -31.731  74.687  30.098  0.00  0.00    +0.093 A 
ATOM     12  N   LIG    1      -31.336  73.457  30.557  0.00  0.00    -0.345 N 
ATOM     13  H   LIG    1      -30.645  73.275  31.270  0.00  0.00    +0.167 HD
ATOM     14  C   LIG    1      -32.024  72.477  29.902  0.00  0.00    +0.139 A 
ATOM     15  N   LIG    1      -31.860  71.164  30.133  0.00  0.00    -0.237 NA
ATOM     16  C   LIG    1      -32.657  70.389  29.353  0.00  0.00    +0.121 A 
BRANCH  10  17
ATOM     17  C   LIG    1      -33.343  75.618  28.429  0.00  0.00    -0.013 A 
ATOM     18  C   LIG    1      -34.683  75.552  28.036  0.00  0.00    +0.028 A 
ATOM     19  C   LIG    1      -35.246  76.638  27.385  0.00  0.00    +0.111 A 
ATOM     20  N   LIG    1      -34.572  77.769  27.093  0.00  0.00    -0.263 NA
ATOM     21  C   LIG    1      -33.280  77.815  27.475  0.00  0.00    +0.111 A 
ATOM     22  C   LIG    1      -32.633  76.785  28.141  0.00  0.00    +0.028 A 
ENDBRANCH  10  17
ENDBRANCH   3   7
BRANCH   5  23
ATOM     23  N   LIG    1      -34.121  66.444  26.113  0.00  0.00    -0.358 N 
ATOM     24  H   LIG    1      -33.908  66.416  25.120  0.00  0.00    +0.142 HD
ATOM     25  H   LIG    1      -33.339  66.127  26.678  0.00  0.00    +0.142 HD
ENDBRANCH   5  23
BRANCH   1  26
ATOM     26  N   LIG    1      -37.777  69.639  26.008  0.00  0.00    -0.216 N 
ATOM     27  H   LIG    1      -38.540  69.080  26.390  0.00  0.00    +0.174 HD
BRANCH  26  28
ATOM     28  S   LIG    1      -38.034  69.955  24.362  0.00  0.00    +0.072 S 
ATOM     29  O   LIG    1      -36.760  69.983  23.671  0.00  0.00    -0.150 OA
ATOM     30  O   LIG    1      -39.085  69.059  23.940  0.00  0.00    -0.150 OA
BRANCH  28  35
ATOM     31  C   LIG    1      -40.216  75.618  24.276  0.00  0.00    +0.044 C 
ATOM     32  C   LIG    1      -39.694  74.212  24.343  0.00  0.00    -0.050 A 
ATOM     33  C   LIG    1      -40.453  73.158  23.814  0.00  0.00    +0.005 A 
ATOM     34  C   LIG    1      -39.961  71.851  23.830  0.00  0.00    +0.029 A 
ATOM     35  C   LIG    1      -38.701  71.600  24.383  0.00  0.00    +0.109 A 
ATOM     36  C   LIG    1      -37.929  72.644  24.897  0.00  0.00    +0.029 A 
ATOM     37  C   LIG    1      -38.430  73.946  24.883  0.00  0.00    +0.005 A 
ENDBRANCH  28  35
ENDBRANCH  26  28
ENDBRANCH   1  26
TORSDOF 6
ENDMDL
MODEL 7
REMARK VINA RESULT:      -5.9     13.088     17.714
REMARK  Name = pdb/CHEMBL2152286.pdb
REMARK                            x       y       z     vdW  Elec       q    Type
REMARK                         _______ _______ _______ _____ _____    ______ ____
ROOT
ATOM      1  C   LIG    1      -36.407  71.482  26.135  0.00  0.00    +0.050 A 
ATOM      2  C   LIG    1      -35.466  72.281  26.794  0.00  0.00    +0.033 A 
ATOM      3  C   LIG    1      -34.696  71.775  27.856  0.00  0.00    -0.013 A 
ATOM      4  C   LIG    1      -34.932  70.435  28.229  0.00  0.00    +0.031 A 
ATOM      5  C   LIG    1      -35.924  69.648  27.624  0.00  0.00    +0.027 A 
ATOM      6  C   LIG    1      -36.631  70.171  26.545  0.00  0.00    +0.047 A 
ENDROOT
BRANCH   3   7
ATOM      7  C   LIG    1      -33.679  72.612  28.548  0.00  0.00    +0.001 A 
ATOM      8  C   LIG    1      -33.538  73.989  28.286  0.00  0.00    +0.022 A 
ATOM      9  C   LIG    1      -32.546  74.741  28.957  0.00  0.00    +0.027 A 
ATOM     10  C   LIG    1      -32.099  76.108  28.975  0.00  0.00    +0.009 A 
ATOM     11  C   LIG    1      -31.064  76.171  29.897  0.00  0.00    +0.093 A 
ATOM     12  N   LIG    1      -30.881  74.923  30.433  0.00  0.00    -0.345 N 
ATOM     13  H   LIG    1      -30.203  74.661  31.133  0.00  0.00    +0.167 HD
ATOM     14  C   LIG    1      -31.768  74.047  29.876  0.00  0.00    +0.139 A 
ATOM     15  N   LIG    1      -31.840  72.746  30.198  0.00  0.00    -0.237 NA
ATOM     16  C   LIG    1      -32.802  72.084  29.505  0.00  0.00    +0.121 A 
BRANCH  10  17
ATOM     17  C   LIG    1      -32.552  77.275  28.220  0.00  0.00    -0.013 A 
ATOM     18  C   LIG    1      -33.570  78.100  28.707  0.00  0.00    +0.028 A 
ATOM     19  C   LIG    1      -33.960  79.199  27.958  0.00  0.00    +0.111 A 
ATOM     20  N   LIG    1      -33.419  79.525  26.768  0.00  0.00    -0.263 NA
ATOM     21  C   LIG    1      -32.442  78.717  26.310  0.00  0.00    +0.111 A 
ATOM     22  C   LIG    1      -31.975  77.603  26.991  0.00  0.00    +0.028 A 
ENDBRANCH  10  17
ENDBRANCH   3   7
BRANCH   5  23
ATOM     23  N   LIG    1      -36.036  68.290  27.947  0.00  0.00    -0.358 N 
ATOM     24  H   LIG    1      -35.267  67.717  27.611  0.00  0.00    +0.142 HD
ATOM     25  H   LIG    1      -36.246  68.110  28.924  0.00  0.00    +0.142 HD
ENDBRANCH   5  23
BRANCH   1  26
ATOM     26  N   LIG    1      -37.194  72.041  25.089  0.00  0.00    -0.216 N 
ATOM     27  H   LIG    1      -36.718  72.253  24.211  0.00  0.00    +0.174 HD
BRANCH  26  28
ATOM     28  S   LIG    1      -38.258  73.293  25.509  0.00  0.00    +0.072 S 
ATOM     29  O   LIG    1      -38.657  73.142  26.895  0.00  0.00    -0.150 OA
ATOM     30  O   LIG    1      -37.644  74.515  25.044  0.00  0.00    -0.150 OA
BRANCH  28  35
ATOM     31  C   LIG    1      -42.969  72.241  21.831  0.00  0.00    +0.044 C 
ATOM     32  C   LIG    1      -41.834  72.496  22.779  0.00  0.00    -0.050 A 
ATOM     33  C   LIG    1      -40.988  71.443  23.157  0.00  0.00    +0.005 A 
ATOM     34  C   LIG    1      -39.902  71.674  24.004  0.00  0.00    +0.029 A 
ATOM     35  C   LIG    1      -39.665  72.968  24.478  0.00  0.00    +0.109 A 
ATOM     36  C   LIG    1      -40.491  74.028  24.095  0.00  0.00    +0.029 A 
ATOM     37  C   LIG    1      -41.577  73.788  23.254  0.00  0.00    +0.005 A 
ENDBRANCH  28  35
ENDBRANCH  26  28
ENDBRANCH   1  26
TORSDOF 6
ENDMDL
MODEL 8
REMARK VINA RESULT:      -5.7     14.851     19.062
REMARK  Name = pdb/CHEMBL2152286.pdb
REMARK                            x       y       z     vdW  Elec       q    Type
REMARK                         _______ _______ _______ _____ _____    ______ ____
ROOT
ATOM      1  C   LIG    1      -36.778  69.094  23.917  0.00  0.00    +0.050 A 
ATOM      2  C   LIG    1      -36.200  69.790  24.984  0.00  0.00    +0.033 A 
ATOM      3  C   LIG    1      -35.164  69.224  25.748  0.00  0.00    -0.013 A 
ATOM      4  C   LIG    1      -34.753  67.922  25.394  0.00  0.00    +0.031 A 
ATOM      5  C   LIG    1      -35.376  67.186  24.373  0.00  0.00    +0.027 A 
ATOM      6  C   LIG    1      -36.365  67.802  23.610  0.00  0.00    +0.047 A 
ENDROOT
BRANCH   3   7
ATOM      7  C   LIG    1      -34.530  69.966  26.870  0.00  0.00    +0.001 A 
ATOM      8  C   LIG    1      -34.652  71.362  27.010  0.00  0.00    +0.022 A 
ATOM      9  C   LIG    1      -34.018  72.026  28.085  0.00  0.00    +0.027 A 
ATOM     10  C   LIG    1      -33.905  73.379  28.564  0.00  0.00    +0.009 A 
ATOM     11  C   LIG    1      -33.127  73.326  29.712  0.00  0.00    +0.093 A 
ATOM     12  N   LIG    1      -32.783  72.020  29.945  0.00  0.00    -0.345 N 
ATOM     13  H   LIG    1      -32.225  71.672  30.710  0.00  0.00    +0.167 HD
ATOM     14  C   LIG    1      -33.313  71.222  28.972  0.00  0.00    +0.139 A 
ATOM     15  N   LIG    1      -33.154  69.890  28.927  0.00  0.00    -0.237 NA
ATOM     16  C   LIG    1      -33.776  69.322  27.861  0.00  0.00    +0.121 A 
BRANCH  10  17
ATOM     17  C   LIG    1      -34.443  74.631  28.034  0.00  0.00    -0.013 A 
ATOM     18  C   LIG    1      -35.809  74.779  27.776  0.00  0.00    +0.028 A 
ATOM     19  C   LIG    1      -36.271  75.988  27.281  0.00  0.00    +0.111 A 
ATOM     20  N   LIG    1      -35.477  77.044  27.019  0.00  0.00    -0.263 NA
ATOM     21  C   LIG    1      -34.162  76.884  27.268  0.00  0.00    +0.111 A 
ATOM     22  C   LIG    1      -33.606  75.718  27.774  0.00  0.00    +0.028 A 
ENDBRANCH  10  17
ENDBRANCH   3   7
BRANCH   5  23
ATOM     23  N   LIG    1      -34.853  65.948  23.981  0.00  0.00    -0.358 N 
ATOM     24  H   LIG    1      -34.733  65.844  22.978  0.00  0.00    +0.142 HD
ATOM     25  H   LIG    1      -34.023  65.665  24.494  0.00  0.00    +0.142 HD
ENDBRANCH   5  23
BRANCH   1  26
ATOM     26  N   LIG    1      -37.851  69.686  23.191  0.00  0.00    -0.216 N 
ATOM     27  H   LIG    1      -37.624  70.480  22.592  0.00  0.00    +0.174 HD
BRANCH  26  28
ATOM     28  S   LIG    1      -39.291  69.968  24.038  0.00  0.00    +0.072 S 
ATOM     29  O   LIG    1      -40.419  69.552  23.227  0.00  0.00    -0.150 OA
ATOM     30  O   LIG    1      -39.092  69.426  25.362  0.00  0.00    -0.150 OA
BRANCH  28  35
ATOM     31  C   LIG    1      -39.488  76.001  24.674  0.00  0.00    +0.044 C 
ATOM     32  C   LIG    1      -39.423  74.515  24.471  0.00  0.00    -0.050 A 
ATOM     33  C   LIG    1      -38.298  73.798  24.907  0.00  0.00    +0.005 A 
ATOM     34  C   LIG    1      -38.243  72.410  24.764  0.00  0.00    +0.029 A 
ATOM     35  C   LIG    1      -39.319  71.738  24.177  0.00  0.00    +0.109 A 
ATOM     36  C   LIG    1      -40.450  72.439  23.754  0.00  0.00    +0.029 A 
ATOM     37  C   LIG    1      -40.496  73.826  23.894  0.00  0.00    +0.005 A 
ENDBRANCH  28  35
ENDBRANCH  26  28
ENDBRANCH   1  26
TORSDOF 6
ENDMDL
MODEL 9
REMARK VINA RESULT:      -5.6      6.255      9.857
REMARK  Name = pdb/CHEMBL2152286.pdb
REMARK                            x       y       z     vdW  Elec       q    Type
REMARK                         _______ _______ _______ _____ _____    ______ ____
ROOT
ATOM      1  C   LIG    1      -26.945  75.611  32.651  0.00  0.00    +0.050 A 
ATOM      2  C   LIG    1      -27.960  75.140  31.811  0.00  0.00    +0.033 A 
ATOM      3  C   LIG    1      -29.309  75.464  32.044  0.00  0.00    -0.013 A 
ATOM      4  C   LIG    1      -29.582  76.269  33.170  0.00  0.00    +0.031 A 
ATOM      5  C   LIG    1      -28.580  76.686  34.060  0.00  0.00    +0.027 A 
ATOM      6  C   LIG    1      -27.253  76.384  33.766  0.00  0.00    +0.047 A 
ENDROOT
BRANCH   3   7
ATOM      7  C   LIG    1      -30.391  74.984  31.145  0.00  0.00    +0.001 A 
ATOM      8  C   LIG    1      -31.057  75.842  30.248  0.00  0.00    +0.022 A 
ATOM      9  C   LIG    1      -32.090  75.344  29.422  0.00  0.00    +0.027 A 
ATOM     10  C   LIG    1      -32.975  75.868  28.416  0.00  0.00    +0.009 A 
ATOM     11  C   LIG    1      -33.757  74.805  27.986  0.00  0.00    +0.093 A 
ATOM     12  N   LIG    1      -33.377  73.681  28.673  0.00  0.00    -0.345 N 
ATOM     13  H   LIG    1      -33.763  72.754  28.570  0.00  0.00    +0.167 HD
ATOM     14  C   LIG    1      -32.372  73.989  29.544  0.00  0.00    +0.139 A 
ATOM     15  N   LIG    1      -31.785  73.096  30.356  0.00  0.00    -0.237 NA
ATOM     16  C   LIG    1      -30.813  73.648  31.130  0.00  0.00    +0.121 A 
BRANCH  10  17
ATOM     17  C   LIG    1      -33.124  77.221  27.881  0.00  0.00    -0.013 A 
ATOM     18  C   LIG    1      -32.254  77.709  26.902  0.00  0.00    +0.028 A 
ATOM     19  C   LIG    1      -32.440  78.995  26.420  0.00  0.00    +0.111 A 
ATOM     20  N   LIG    1      -33.414  79.822  26.846  0.00  0.00    -0.263 NA
ATOM     21  C   LIG    1      -34.242  79.338  27.794  0.00  0.00    +0.111 A 
ATOM     22  C   LIG    1      -34.145  78.062  28.328  0.00  0.00    +0.028 A 
ENDBRANCH  10  17
ENDBRANCH   3   7
BRANCH   5  23
ATOM     23  N   LIG    1      -28.886  77.583  35.091  0.00  0.00    -0.358 N 
ATOM     24  H   LIG    1      -28.641  77.251  36.019  0.00  0.00    +0.142 HD
ATOM     25  H   LIG    1      -28.561  78.531  34.928  0.00  0.00    +0.142 HD
ENDBRANCH   5  23
BRANCH   1  26
ATOM     26  N   LIG    1      -25.595  75.230  32.404  0.00  0.00    -0.216 N 
ATOM     27  H   LIG    1      -25.027  74.979  33.213  0.00  0.00    +0.174 HD
BRANCH  26  28
ATOM     28  S   LIG    1      -24.708  76.193  31.327  0.00  0.00    +0.072 S 
ATOM     29  O   LIG    1      -23.772  75.363  30.595  0.00  0.00    -0.150 OA
ATOM     30  O   LIG    1      -25.674  77.011  30.630  0.00  0.00    -0.150 OA
BRANCH  28  35
ATOM     31  C   LIG    1      -21.487  79.888  34.906  0.00  0.00    +0.044 C 
ATOM     32  C   LIG    1      -22.297  78.949  34.060  0.00  0.00    -0.050 A 
ATOM     33  C   LIG    1      -23.609  79.289  33.697  0.00  0.00    +0.005 A 
ATOM     34  C   LIG    1      -24.359  78.444  32.876  0.00  0.00    +0.029 A 
ATOM     35  C   LIG    1      -23.792  77.252  32.418  0.00  0.00    +0.109 A 
ATOM     36  C   LIG    1      -22.481  76.911  32.759  0.00  0.00    +0.029 A 
ATOM     37  C   LIG    1      -21.740  77.756  33.585  0.00  0.00    +0.005 A 
ENDBRANCH  28  35
ENDBRANCH  26  28
ENDBRANCH   1  26
TORSDOF 6
ENDMDL
