MODEL 1
REMARK VINA RESULT:      -6.5      0.000      0.000
REMARK  Name = pdb/CHEMBL3961730.pdb
REMARK                            x       y       z     vdW  Elec       q    Type
REMARK                         _______ _______ _______ _____ _____    ______ ____
ROOT
ATOM      1  C   LIG    1      -36.827  76.683  26.887  0.00  0.00    +0.149 A 
ATOM      2  N   LIG    1      -38.040  77.258  26.783  0.00  0.00    -0.160 NA
ATOM      3  N   LIG    1      -38.696  76.532  25.837  0.00  0.00    -0.218 N 
ATOM      4  C   LIG    1      -37.963  75.401  25.464  0.00  0.00    +0.129 A 
ATOM      5  C   LIG    1      -36.762  75.502  26.120  0.00  0.00    +0.078 A 
ENDROOT
BRANCH   3   6
ATOM      6  C   LIG    1      -39.958  76.966  25.333  0.00  0.00    +0.067 A 
ATOM      7  C   LIG    1      -40.185  77.063  23.953  0.00  0.00    +0.028 A 
ATOM      8  C   LIG    1      -41.422  77.503  23.470  0.00  0.00    +0.002 A 
ATOM      9  C   LIG    1      -42.441  77.845  24.357  0.00  0.00    +0.000 A 
ATOM     10  C   LIG    1      -42.224  77.757  25.731  0.00  0.00    +0.002 A 
ATOM     11  C   LIG    1      -40.984  77.328  26.222  0.00  0.00    +0.028 A 
ENDBRANCH   3   6
BRANCH   4  12
ATOM     12  N   LIG    1      -38.378  74.322  24.677  0.00  0.00    -0.266 N 
ATOM     13  H   LIG    1      -38.070  74.307  23.712  0.00  0.00    +0.157 HD
ATOM     14  C   LIG    1      -39.257  73.287  25.165  0.00  0.00    +0.251 C 
ATOM     15  O   LIG    1      -39.614  73.253  26.320  0.00  0.00    -0.270 OA
BRANCH  14  16
ATOM     16  C   LIG    1      -39.659  72.222  24.221  0.00  0.00    +0.056 A 
ATOM     17  C   LIG    1      -40.847  72.242  23.492  0.00  0.00    +0.054 A 
ATOM     18 CL   LIG    1      -41.975  73.548  23.534  0.00  0.00    -0.083 Cl
ATOM     19  C   LIG    1      -41.165  71.170  22.664  0.00  0.00    +0.041 A 
ATOM     20  C   LIG    1      -40.301  70.070  22.522  0.00  0.00    +0.052 A 
ATOM     21 CL   LIG    1      -40.814  68.934  21.324  0.00  0.00    -0.083 Cl
ATOM     22  C   LIG    1      -39.093  69.989  23.244  0.00  0.00    +0.022 A 
ATOM     23  C   LIG    1      -38.802  71.098  24.089  0.00  0.00    +0.026 A 
BRANCH  22  24
ATOM     24  C   LIG    1      -38.100  68.875  23.159  0.00  0.00    +0.107 A 
ATOM     25  C   LIG    1      -37.165  68.698  22.135  0.00  0.00    +0.149 A 
ATOM     26  F   LIG    1      -37.127  69.489  21.056  0.00  0.00    -0.203 F 
ATOM     27  C   LIG    1      -36.270  67.633  22.174  0.00  0.00    +0.042 A 
ATOM     28  C   LIG    1      -36.352  66.712  23.207  0.00  0.00    +0.023 A 
ATOM     29  C   LIG    1      -37.329  66.909  24.166  0.00  0.00    +0.111 A 
ATOM     30  N   LIG    1      -38.187  67.961  24.172  0.00  0.00    -0.252 NA
ENDBRANCH  22  24
ENDBRANCH  14  16
ENDBRANCH   4  12
BRANCH   1  32
ATOM     31  N   LIG    1      -35.044  78.202  27.342  0.00  0.00    -0.238 NA
ATOM     32  C   LIG    1      -35.749  77.189  27.735  0.00  0.00    +0.237 C 
BRANCH  31  33
ATOM     33  C   LIG    1      -34.009  78.807  28.205  0.00  0.00    +0.114 C 
ATOM     34  C   LIG    1      -34.050  80.362  28.077  0.00  0.00    +0.192 C 
ATOM     35  O   LIG    1      -34.782  80.492  29.320  0.00  0.00    -0.375 OA
ATOM     36  C   LIG    1      -34.513  79.113  29.645  0.00  0.00    +0.192 C 
BRANCH  33  37
ATOM     37  C   LIG    1      -32.630  78.172  28.032  0.00  0.00    +0.062 C 
BRANCH  37  38
ATOM     38  C   LIG    1      -32.405  77.613  26.629  0.00  0.00    +0.158 C 
BRANCH  38  39
ATOM     39  O   LIG    1      -32.249  78.695  25.718  0.00  0.00    -0.395 OA
ATOM     40  H   LIG    1      -32.395  78.341  24.822  0.00  0.00    +0.209 HD
ENDBRANCH  38  39
ENDBRANCH  37  38
ENDBRANCH  33  37
ENDBRANCH  31  33
BRANCH  32  41
ATOM     41  O   LIG    1      -35.548  76.495  28.870  0.00  0.00    -0.491 OA
ATOM     42  H   LIG    1      -35.092  77.013  29.541  0.00  0.00    +0.294 HD
ENDBRANCH  32  41
ENDBRANCH   1  32
TORSDOF 10
ENDMDL
MODEL 2
REMARK VINA RESULT:      -6.5     17.651     20.090
REMARK  Name = pdb/CHEMBL3961730.pdb
REMARK                            x       y       z     vdW  Elec       q    Type
REMARK                         _______ _______ _______ _____ _____    ______ ____
ROOT
ATOM      1  C   LIG    1      -22.434  83.165  14.971  0.00  0.00    +0.149 A 
ATOM      2  N   LIG    1      -23.633  82.628  14.675  0.00  0.00    -0.160 NA
ATOM      3  N   LIG    1      -23.451  81.283  14.762  0.00  0.00    -0.218 N 
ATOM      4  C   LIG    1      -22.186  80.972  15.274  0.00  0.00    +0.129 A 
ATOM      5  C   LIG    1      -21.528  82.170  15.393  0.00  0.00    +0.078 A 
ENDROOT
BRANCH   3   6
ATOM      6  C   LIG    1      -24.472  80.382  14.336  0.00  0.00    +0.067 A 
ATOM      7  C   LIG    1      -24.872  80.335  12.993  0.00  0.00    +0.028 A 
ATOM      8  C   LIG    1      -25.884  79.457  12.589  0.00  0.00    +0.002 A 
ATOM      9  C   LIG    1      -26.499  78.619  13.516  0.00  0.00    +0.000 A 
ATOM     10  C   LIG    1      -26.111  78.662  14.854  0.00  0.00    +0.002 A 
ATOM     11  C   LIG    1      -25.106  79.546  15.269  0.00  0.00    +0.028 A 
ENDBRANCH   3   6
BRANCH   4  12
ATOM     12  N   LIG    1      -21.704  79.727  15.688  0.00  0.00    -0.266 N 
ATOM     13  H   LIG    1      -21.670  79.552  16.686  0.00  0.00    +0.157 HD
ATOM     14  C   LIG    1      -21.212  78.730  14.769  0.00  0.00    +0.251 C 
ATOM     15  O   LIG    1      -21.272  78.889  13.571  0.00  0.00    -0.270 OA
BRANCH  14  16
ATOM     16  C   LIG    1      -20.687  77.469  15.335  0.00  0.00    +0.056 A 
ATOM     17  C   LIG    1      -19.394  77.324  15.834  0.00  0.00    +0.054 A 
ATOM     18 CL   LIG    1      -18.253  78.615  15.931  0.00  0.00    -0.083 Cl
ATOM     19  C   LIG    1      -18.973  76.083  16.302  0.00  0.00    +0.041 A 
ATOM     20  C   LIG    1      -19.831  74.969  16.308  0.00  0.00    +0.052 A 
ATOM     21 CL   LIG    1      -19.156  73.577  17.081  0.00  0.00    -0.083 Cl
ATOM     22  C   LIG    1      -21.144  75.053  15.803  0.00  0.00    +0.022 A 
ATOM     23  C   LIG    1      -21.541  76.335  15.324  0.00  0.00    +0.026 A 
BRANCH  22  24
ATOM     24  C   LIG    1      -22.139  73.939  15.774  0.00  0.00    +0.107 A 
ATOM     25  C   LIG    1      -23.026  73.614  16.805  0.00  0.00    +0.149 A 
ATOM     26  F   LIG    1      -23.008  74.240  17.988  0.00  0.00    -0.203 F 
ATOM     27  C   LIG    1      -23.929  72.567  16.654  0.00  0.00    +0.042 A 
ATOM     28  C   LIG    1      -23.902  71.805  15.496  0.00  0.00    +0.023 A 
ATOM     29  C   LIG    1      -22.971  72.139  14.530  0.00  0.00    +0.111 A 
ATOM     30  N   LIG    1      -22.106  73.182  14.636  0.00  0.00    -0.252 NA
ENDBRANCH  22  24
ENDBRANCH  14  16
ENDBRANCH   4  12
BRANCH   1  32
ATOM     31  N   LIG    1      -21.542  85.092  13.883  0.00  0.00    -0.238 NA
ATOM     32  C   LIG    1      -22.139  84.596  14.920  0.00  0.00    +0.237 C 
BRANCH  31  33
ATOM     33  C   LIG    1      -21.309  86.544  13.744  0.00  0.00    +0.114 C 
ATOM     34  C   LIG    1      -20.130  86.986  14.665  0.00  0.00    +0.192 C 
ATOM     35  O   LIG    1      -19.203  87.001  13.552  0.00  0.00    -0.375 OA
ATOM     36  C   LIG    1      -20.295  86.896  12.616  0.00  0.00    +0.192 C 
BRANCH  33  37
ATOM     37  C   LIG    1      -22.584  87.376  13.867  0.00  0.00    +0.062 C 
BRANCH  37  38
ATOM     38  C   LIG    1      -22.319  88.803  14.339  0.00  0.00    +0.158 C 
BRANCH  38  39
ATOM     39  O   LIG    1      -22.635  88.899  15.724  0.00  0.00    -0.395 OA
ATOM     40  H   LIG    1      -23.284  89.620  15.822  0.00  0.00    +0.209 HD
ENDBRANCH  38  39
ENDBRANCH  37  38
ENDBRANCH  33  37
ENDBRANCH  31  33
BRANCH  32  41
ATOM     41  O   LIG    1      -22.486  85.285  16.022  0.00  0.00    -0.491 OA
ATOM     42  H   LIG    1      -23.339  85.721  15.929  0.00  0.00    +0.294 HD
ENDBRANCH  32  41
ENDBRANCH   1  32
TORSDOF 10
ENDMDL
MODEL 3
REMARK VINA RESULT:      -6.4      1.024      1.516
REMARK  Name = pdb/CHEMBL3961730.pdb
REMARK                            x       y       z     vdW  Elec       q    Type
REMARK                         _______ _______ _______ _____ _____    ______ ____
ROOT
ATOM      1  C   LIG    1      -37.123  76.859  26.657  0.00  0.00    +0.149 A 
ATOM      2  N   LIG    1      -38.391  77.310  26.664  0.00  0.00    -0.160 NA
ATOM      3  N   LIG    1      -39.050  76.530  25.766  0.00  0.00    -0.218 N 
ATOM      4  C   LIG    1      -38.242  75.480  25.314  0.00  0.00    +0.129 A 
ATOM      5  C   LIG    1      -37.006  75.696  25.869  0.00  0.00    +0.078 A 
ENDROOT
BRANCH   3   6
ATOM      6  C   LIG    1      -40.387  76.839  25.376  0.00  0.00    +0.067 A 
ATOM      7  C   LIG    1      -41.455  76.654  26.266  0.00  0.00    +0.028 A 
ATOM      8  C   LIG    1      -42.763  76.948  25.868  0.00  0.00    +0.002 A 
ATOM      9  C   LIG    1      -43.017  77.430  24.585  0.00  0.00    +0.000 A 
ATOM     10  C   LIG    1      -41.963  77.612  23.692  0.00  0.00    +0.002 A 
ATOM     11  C   LIG    1      -40.650  77.310  24.079  0.00  0.00    +0.028 A 
ENDBRANCH   3   6
BRANCH   4  12
ATOM     12  N   LIG    1      -38.614  74.372  24.548  0.00  0.00    -0.266 N 
ATOM     13  H   LIG    1      -38.376  74.388  23.563  0.00  0.00    +0.157 HD
ATOM     14  C   LIG    1      -39.358  73.258  25.086  0.00  0.00    +0.251 C 
ATOM     15  O   LIG    1      -39.627  73.188  26.264  0.00  0.00    -0.270 OA
BRANCH  14  16
ATOM     16  C   LIG    1      -39.729  72.166  24.162  0.00  0.00    +0.056 A 
ATOM     17  C   LIG    1      -40.929  72.125  23.453  0.00  0.00    +0.054 A 
ATOM     18 CL   LIG    1      -42.111  73.382  23.498  0.00  0.00    -0.083 Cl
ATOM     19  C   LIG    1      -41.213  71.030  22.644  0.00  0.00    +0.041 A 
ATOM     20  C   LIG    1      -40.305  69.966  22.501  0.00  0.00    +0.052 A 
ATOM     21 CL   LIG    1      -40.789  68.794  21.325  0.00  0.00    -0.083 Cl
ATOM     22  C   LIG    1      -39.084  69.946  23.204  0.00  0.00    +0.022 A 
ATOM     23  C   LIG    1      -38.827  71.078  24.030  0.00  0.00    +0.026 A 
BRANCH  22  24
ATOM     24  C   LIG    1      -38.045  68.875  23.115  0.00  0.00    +0.107 A 
ATOM     25  C   LIG    1      -37.181  68.669  22.036  0.00  0.00    +0.149 A 
ATOM     26  F   LIG    1      -37.262  69.384  20.908  0.00  0.00    -0.203 F 
ATOM     27  C   LIG    1      -36.233  67.651  22.076  0.00  0.00    +0.042 A 
ATOM     28  C   LIG    1      -36.193  66.801  23.170  0.00  0.00    +0.023 A 
ATOM     29  C   LIG    1      -37.104  67.019  24.187  0.00  0.00    +0.111 A 
ATOM     30  N   LIG    1      -38.012  68.030  24.190  0.00  0.00    -0.252 NA
ENDBRANCH  22  24
ENDBRANCH  14  16
ENDBRANCH   4  12
BRANCH   1  32
ATOM     31  N   LIG    1      -34.806  77.261  27.058  0.00  0.00    -0.238 NA
ATOM     32  C   LIG    1      -36.032  77.463  27.421  0.00  0.00    +0.237 C 
BRANCH  31  33
ATOM     33  C   LIG    1      -33.675  77.926  27.739  0.00  0.00    +0.114 C 
ATOM     34  C   LIG    1      -32.485  78.105  26.746  0.00  0.00    +0.192 C 
ATOM     35  O   LIG    1      -32.820  79.497  26.521  0.00  0.00    -0.375 OA
ATOM     36  C   LIG    1      -33.729  79.478  27.641  0.00  0.00    +0.192 C 
BRANCH  33  37
ATOM     37  C   LIG    1      -33.319  77.289  29.081  0.00  0.00    +0.062 C 
BRANCH  37  38
ATOM     38  C   LIG    1      -32.158  76.304  28.982  0.00  0.00    +0.158 C 
BRANCH  38  39
ATOM     39  O   LIG    1      -31.070  76.789  29.760  0.00  0.00    -0.395 OA
ATOM     40  H   LIG    1      -31.374  76.832  30.685  0.00  0.00    +0.209 HD
ENDBRANCH  38  39
ENDBRANCH  37  38
ENDBRANCH  33  37
ENDBRANCH  31  33
BRANCH  32  41
ATOM     41  O   LIG    1      -36.417  78.162  28.504  0.00  0.00    -0.491 OA
ATOM     42  H   LIG    1      -35.677  78.396  29.072  0.00  0.00    +0.294 HD
ENDBRANCH  32  41
ENDBRANCH   1  32
TORSDOF 10
ENDMDL
MODEL 4
REMARK VINA RESULT:      -6.4      3.547      5.470
REMARK  Name = pdb/CHEMBL3961730.pdb
REMARK                            x       y       z     vdW  Elec       q    Type
REMARK                         _______ _______ _______ _____ _____    ______ ____
ROOT
ATOM      1  C   LIG    1      -36.998  76.801  26.279  0.00  0.00    +0.149 A 
ATOM      2  N   LIG    1      -37.883  77.815  26.285  0.00  0.00    -0.160 NA
ATOM      3  N   LIG    1      -38.825  77.469  25.367  0.00  0.00    -0.218 N 
ATOM      4  C   LIG    1      -38.628  76.165  24.901  0.00  0.00    +0.129 A 
ATOM      5  C   LIG    1      -37.453  75.741  25.470  0.00  0.00    +0.078 A 
ENDROOT
BRANCH   3   6
ATOM      6  C   LIG    1      -39.834  78.399  24.973  0.00  0.00    +0.067 A 
ATOM      7  C   LIG    1      -41.131  78.316  25.500  0.00  0.00    +0.028 A 
ATOM      8  C   LIG    1      -42.115  79.224  25.097  0.00  0.00    +0.002 A 
ATOM      9  C   LIG    1      -41.815  80.221  24.170  0.00  0.00    +0.000 A 
ATOM     10  C   LIG    1      -40.530  80.308  23.637  0.00  0.00    +0.002 A 
ATOM     11  C   LIG    1      -39.541  79.395  24.028  0.00  0.00    +0.028 A 
ENDBRANCH   3   6
BRANCH   4  12
ATOM     12  N   LIG    1      -39.483  75.390  24.112  0.00  0.00    -0.266 N 
ATOM     13  H   LIG    1      -39.287  75.351  23.118  0.00  0.00    +0.157 HD
ATOM     14  C   LIG    1      -40.638  74.708  24.641  0.00  0.00    +0.251 C 
ATOM     15  O   LIG    1      -40.881  74.701  25.826  0.00  0.00    -0.270 OA
BRANCH  14  16
ATOM     16  C   LIG    1      -41.489  73.956  23.694  0.00  0.00    +0.056 A 
ATOM     17  C   LIG    1      -41.253  72.633  23.324  0.00  0.00    +0.054 A 
ATOM     18 CL   LIG    1      -39.982  71.667  23.978  0.00  0.00    -0.083 Cl
ATOM     19  C   LIG    1      -42.081  72.023  22.387  0.00  0.00    +0.041 A 
ATOM     20  C   LIG    1      -43.172  72.702  21.817  0.00  0.00    +0.052 A 
ATOM     21 CL   LIG    1      -44.158  71.706  20.803  0.00  0.00    -0.083 Cl
ATOM     22  C   LIG    1      -43.451  74.045  22.142  0.00  0.00    +0.022 A 
ATOM     23  C   LIG    1      -42.580  74.642  23.098  0.00  0.00    +0.026 A 
BRANCH  22  24
ATOM     24  C   LIG    1      -44.587  74.854  21.607  0.00  0.00    +0.107 A 
ATOM     25  C   LIG    1      -45.759  75.167  22.301  0.00  0.00    +0.149 A 
ATOM     26  F   LIG    1      -46.017  74.685  23.523  0.00  0.00    -0.203 F 
ATOM     27  C   LIG    1      -46.742  75.953  21.707  0.00  0.00    +0.042 A 
ATOM     28  C   LIG    1      -46.579  76.371  20.396  0.00  0.00    +0.023 A 
ATOM     29  C   LIG    1      -45.423  75.991  19.740  0.00  0.00    +0.111 A 
ATOM     30  N   LIG    1      -44.431  75.259  20.310  0.00  0.00    -0.252 NA
ENDBRANCH  22  24
ENDBRANCH  14  16
ENDBRANCH   4  12
BRANCH   1  32
ATOM     31  N   LIG    1      -35.342  77.875  27.619  0.00  0.00    -0.238 NA
ATOM     32  C   LIG    1      -35.763  76.785  27.062  0.00  0.00    +0.237 C 
BRANCH  31  33
ATOM     33  C   LIG    1      -34.153  77.888  28.497  0.00  0.00    +0.114 C 
ATOM     34  C   LIG    1      -34.274  79.039  29.542  0.00  0.00    +0.192 C 
ATOM     35  O   LIG    1      -34.698  78.119  30.578  0.00  0.00    -0.375 OA
ATOM     36  C   LIG    1      -34.315  76.994  29.761  0.00  0.00    +0.192 C 
BRANCH  33  37
ATOM     37  C   LIG    1      -32.833  77.836  27.729  0.00  0.00    +0.062 C 
BRANCH  37  38
ATOM     38  C   LIG    1      -32.559  79.110  26.934  0.00  0.00    +0.158 C 
BRANCH  38  39
ATOM     39  O   LIG    1      -32.334  78.766  25.571  0.00  0.00    -0.395 OA
ATOM     40  H   LIG    1      -32.588  77.831  25.464  0.00  0.00    +0.209 HD
ENDBRANCH  38  39
ENDBRANCH  37  38
ENDBRANCH  33  37
ENDBRANCH  31  33
BRANCH  32  41
ATOM     41  O   LIG    1      -35.127  75.600  27.091  0.00  0.00    -0.491 OA
ATOM     42  H   LIG    1      -34.721  75.422  27.945  0.00  0.00    +0.294 HD
ENDBRANCH  32  41
ENDBRANCH   1  32
TORSDOF 10
ENDMDL
MODEL 5
REMARK VINA RESULT:      -6.4      1.847      2.229
REMARK  Name = pdb/CHEMBL3961730.pdb
REMARK                            x       y       z     vdW  Elec       q    Type
REMARK                         _______ _______ _______ _____ _____    ______ ____
ROOT
ATOM      1  C   LIG    1      -36.735  76.624  26.353  0.00  0.00    +0.149 A 
ATOM      2  N   LIG    1      -37.673  77.588  26.312  0.00  0.00    -0.160 NA
ATOM      3  N   LIG    1      -38.585  77.156  25.399  0.00  0.00    -0.218 N 
ATOM      4  C   LIG    1      -38.313  75.847  24.987  0.00  0.00    +0.129 A 
ATOM      5  C   LIG    1      -37.123  75.510  25.582  0.00  0.00    +0.078 A 
ENDROOT
BRANCH   3   6
ATOM      6  C   LIG    1      -39.637  78.014  24.960  0.00  0.00    +0.067 A 
ATOM      7  C   LIG    1      -40.934  77.880  25.474  0.00  0.00    +0.028 A 
ATOM      8  C   LIG    1      -41.961  78.718  25.026  0.00  0.00    +0.002 A 
ATOM      9  C   LIG    1      -41.703  79.695  24.067  0.00  0.00    +0.000 A 
ATOM     10  C   LIG    1      -40.417  79.833  23.546  0.00  0.00    +0.002 A 
ATOM     11  C   LIG    1      -39.386  78.991  23.982  0.00  0.00    +0.028 A 
ENDBRANCH   3   6
BRANCH   4  12
ATOM     12  N   LIG    1      -39.116  74.998  24.220  0.00  0.00    -0.266 N 
ATOM     13  H   LIG    1      -38.950  74.980  23.221  0.00  0.00    +0.157 HD
ATOM     14  C   LIG    1      -40.185  74.209  24.782  0.00  0.00    +0.251 C 
ATOM     15  O   LIG    1      -40.388  74.177  25.975  0.00  0.00    -0.270 OA
BRANCH  14  16
ATOM     16  C   LIG    1      -40.992  73.383  23.859  0.00  0.00    +0.056 A 
ATOM     17  C   LIG    1      -42.045  73.881  23.095  0.00  0.00    +0.054 A 
ATOM     18 CL   LIG    1      -42.504  75.544  23.063  0.00  0.00    -0.083 Cl
ATOM     19  C   LIG    1      -42.780  73.016  22.290  0.00  0.00    +0.041 A 
ATOM     20  C   LIG    1      -42.470  71.647  22.207  0.00  0.00    +0.052 A 
ATOM     21 CL   LIG    1      -43.405  70.794  21.028  0.00  0.00    -0.083 Cl
ATOM     22  C   LIG    1      -41.425  71.084  22.968  0.00  0.00    +0.022 A 
ATOM     23  C   LIG    1      -40.699  71.996  23.787  0.00  0.00    +0.026 A 
BRANCH  22  24
ATOM     24  C   LIG    1      -41.006  69.651  22.946  0.00  0.00    +0.107 A 
ATOM     25  C   LIG    1      -40.231  69.047  21.951  0.00  0.00    +0.149 A 
ATOM     26  F   LIG    1      -39.851  69.698  20.845  0.00  0.00    -0.203 F 
ATOM     27  C   LIG    1      -39.879  67.704  22.050  0.00  0.00    +0.042 A 
ATOM     28  C   LIG    1      -40.355  66.952  23.112  0.00  0.00    +0.023 A 
ATOM     29  C   LIG    1      -41.158  67.588  24.041  0.00  0.00    +0.111 A 
ATOM     30  N   LIG    1      -41.482  68.906  23.989  0.00  0.00    -0.252 NA
ENDBRANCH  22  24
ENDBRANCH  14  16
ENDBRANCH   4  12
BRANCH   1  32
ATOM     31  N   LIG    1      -35.145  77.839  27.652  0.00  0.00    -0.238 NA
ATOM     32  C   LIG    1      -35.510  76.703  27.148  0.00  0.00    +0.237 C 
BRANCH  31  33
ATOM     33  C   LIG    1      -33.968  77.951  28.539  0.00  0.00    +0.114 C 
ATOM     34  C   LIG    1      -34.125  79.186  29.480  0.00  0.00    +0.192 C 
ATOM     35  O   LIG    1      -34.545  78.350  30.586  0.00  0.00    -0.375 OA
ATOM     36  C   LIG    1      -34.130  77.166  29.873  0.00  0.00    +0.192 C 
BRANCH  33  37
ATOM     37  C   LIG    1      -32.638  77.861  27.793  0.00  0.00    +0.062 C 
BRANCH  37  38
ATOM     38  C   LIG    1      -32.379  79.065  26.892  0.00  0.00    +0.158 C 
BRANCH  38  39
ATOM     39  O   LIG    1      -32.625  78.693  25.541  0.00  0.00    -0.395 OA
ATOM     40  H   LIG    1      -33.459  79.121  25.271  0.00  0.00    +0.209 HD
ENDBRANCH  38  39
ENDBRANCH  37  38
ENDBRANCH  33  37
ENDBRANCH  31  33
BRANCH  32  41
ATOM     41  O   LIG    1      -34.820  75.552  27.243  0.00  0.00    -0.491 OA
ATOM     42  H   LIG    1      -34.169  75.455  26.542  0.00  0.00    +0.294 HD
ENDBRANCH  32  41
ENDBRANCH   1  32
TORSDOF 10
ENDMDL
MODEL 6
REMARK VINA RESULT:      -6.3      2.755      4.866
REMARK  Name = pdb/CHEMBL3961730.pdb
REMARK                            x       y       z     vdW  Elec       q    Type
REMARK                         _______ _______ _______ _____ _____    ______ ____
ROOT
ATOM      1  C   LIG    1      -35.892  78.927  27.814  0.00  0.00    +0.149 A 
ATOM      2  N   LIG    1      -34.989  78.025  28.240  0.00  0.00    -0.160 NA
ATOM      3  N   LIG    1      -35.574  76.814  28.034  0.00  0.00    -0.218 N 
ATOM      4  C   LIG    1      -36.774  76.941  27.326  0.00  0.00    +0.129 A 
ATOM      5  C   LIG    1      -36.989  78.290  27.197  0.00  0.00    +0.078 A 
ENDROOT
BRANCH   3   6
ATOM      6  C   LIG    1      -34.974  75.621  28.537  0.00  0.00    +0.067 A 
ATOM      7  C   LIG    1      -35.509  74.966  29.656  0.00  0.00    +0.028 A 
ATOM      8  C   LIG    1      -34.904  73.805  30.149  0.00  0.00    +0.002 A 
ATOM      9  C   LIG    1      -33.767  73.287  29.532  0.00  0.00    +0.000 A 
ATOM     10  C   LIG    1      -33.225  73.934  28.423  0.00  0.00    +0.002 A 
ATOM     11  C   LIG    1      -33.818  75.104  27.929  0.00  0.00    +0.028 A 
ENDBRANCH   3   6
BRANCH   4  12
ATOM     12  N   LIG    1      -37.555  75.929  26.760  0.00  0.00    -0.266 N 
ATOM     13  H   LIG    1      -38.055  75.319  27.397  0.00  0.00    +0.157 HD
ATOM     14  C   LIG    1      -37.627  75.693  25.339  0.00  0.00    +0.251 C 
ATOM     15  O   LIG    1      -37.074  76.423  24.548  0.00  0.00    -0.270 OA
BRANCH  14  16
ATOM     16  C   LIG    1      -38.455  74.563  24.868  0.00  0.00    +0.056 A 
ATOM     17  C   LIG    1      -39.691  74.717  24.242  0.00  0.00    +0.054 A 
ATOM     18 CL   LIG    1      -40.388  76.248  23.861  0.00  0.00    -0.083 Cl
ATOM     19  C   LIG    1      -40.423  73.591  23.877  0.00  0.00    +0.041 A 
ATOM     20  C   LIG    1      -39.934  72.292  24.103  0.00  0.00    +0.052 A 
ATOM     21 CL   LIG    1      -40.929  71.049  23.427  0.00  0.00    -0.083 Cl
ATOM     22  C   LIG    1      -38.698  72.075  24.745  0.00  0.00    +0.022 A 
ATOM     23  C   LIG    1      -37.978  73.248  25.112  0.00  0.00    +0.026 A 
BRANCH  22  24
ATOM     24  C   LIG    1      -38.082  70.742  25.021  0.00  0.00    +0.107 A 
ATOM     25  C   LIG    1      -37.478  69.914  24.071  0.00  0.00    +0.149 A 
ATOM     26  F   LIG    1      -37.469  70.210  22.765  0.00  0.00    -0.203 F 
ATOM     27  C   LIG    1      -36.912  68.700  24.450  0.00  0.00    +0.042 A 
ATOM     28  C   LIG    1      -37.007  68.288  25.770  0.00  0.00    +0.023 A 
ATOM     29  C   LIG    1      -37.659  69.124  26.659  0.00  0.00    +0.111 A 
ATOM     30  N   LIG    1      -38.183  70.331  26.321  0.00  0.00    -0.252 NA
ENDBRANCH  22  24
ENDBRANCH  14  16
ENDBRANCH   4  12
BRANCH   1  32
ATOM     31  N   LIG    1      -36.500  81.057  28.698  0.00  0.00    -0.238 NA
ATOM     32  C   LIG    1      -35.721  80.375  27.922  0.00  0.00    +0.237 C 
BRANCH  31  33
ATOM     33  C   LIG    1      -36.305  82.506  28.914  0.00  0.00    +0.114 C 
ATOM     34  C   LIG    1      -36.655  82.879  30.388  0.00  0.00    +0.192 C 
ATOM     35  O   LIG    1      -35.257  82.906  30.764  0.00  0.00    -0.375 OA
ATOM     36  C   LIG    1      -34.864  82.869  29.376  0.00  0.00    +0.192 C 
BRANCH  33  37
ATOM     37  C   LIG    1      -36.969  83.372  27.844  0.00  0.00    +0.062 C 
BRANCH  37  38
ATOM     38  C   LIG    1      -35.965  84.175  27.022  0.00  0.00    +0.158 C 
BRANCH  38  39
ATOM     39  O   LIG    1      -35.545  83.392  25.910  0.00  0.00    -0.395 OA
ATOM     40  H   LIG    1      -35.698  83.925  25.108  0.00  0.00    +0.209 HD
ENDBRANCH  38  39
ENDBRANCH  37  38
ENDBRANCH  33  37
ENDBRANCH  31  33
BRANCH  32  41
ATOM     41  O   LIG    1      -34.761  80.892  27.134  0.00  0.00    -0.491 OA
ATOM     42  H   LIG    1      -34.730  80.472  26.268  0.00  0.00    +0.294 HD
ENDBRANCH  32  41
ENDBRANCH   1  32
TORSDOF 10
ENDMDL
MODEL 7
REMARK VINA RESULT:      -6.3      4.079      7.395
REMARK  Name = pdb/CHEMBL3961730.pdb
REMARK                            x       y       z     vdW  Elec       q    Type
REMARK                         _______ _______ _______ _____ _____    ______ ____
ROOT
ATOM      1  C   LIG    1      -37.213  76.223  25.992  0.00  0.00    +0.149 A 
ATOM      2  N   LIG    1      -37.652  75.075  25.443  0.00  0.00    -0.160 NA
ATOM      3  N   LIG    1      -38.839  75.392  24.860  0.00  0.00    -0.218 N 
ATOM      4  C   LIG    1      -39.073  76.771  24.895  0.00  0.00    +0.129 A 
ATOM      5  C   LIG    1      -38.044  77.303  25.631  0.00  0.00    +0.078 A 
ENDROOT
BRANCH   3   6
ATOM      6  C   LIG    1      -39.685  74.372  24.330  0.00  0.00    +0.067 A 
ATOM      7  C   LIG    1      -40.924  74.693  23.757  0.00  0.00    +0.028 A 
ATOM      8  C   LIG    1      -41.750  73.683  23.252  0.00  0.00    +0.002 A 
ATOM      9  C   LIG    1      -41.348  72.350  23.312  0.00  0.00    +0.000 A 
ATOM     10  C   LIG    1      -40.121  72.021  23.885  0.00  0.00    +0.002 A 
ATOM     11  C   LIG    1      -39.292  73.025  24.402  0.00  0.00    +0.028 A 
ENDBRANCH   3   6
BRANCH   4  12
ATOM     12  N   LIG    1      -40.072  77.496  24.238  0.00  0.00    -0.266 N 
ATOM     13  H   LIG    1      -39.922  77.709  23.259  0.00  0.00    +0.157 HD
ATOM     14  C   LIG    1      -41.253  77.988  24.905  0.00  0.00    +0.251 C 
ATOM     15  O   LIG    1      -41.482  77.721  26.063  0.00  0.00    -0.270 OA
BRANCH  14  16
ATOM     16  C   LIG    1      -42.215  78.779  24.110  0.00  0.00    +0.056 A 
ATOM     17  C   LIG    1      -42.204  80.171  24.043  0.00  0.00    +0.054 A 
ATOM     18 CL   LIG    1      -41.019  81.158  24.817  0.00  0.00    -0.083 Cl
ATOM     19  C   LIG    1      -43.182  80.833  23.306  0.00  0.00    +0.041 A 
ATOM     20  C   LIG    1      -44.174  80.128  22.603  0.00  0.00    +0.052 A 
ATOM     21 CL   LIG    1      -45.184  81.138  21.628  0.00  0.00    -0.083 Cl
ATOM     22  C   LIG    1      -44.244  78.720  22.645  0.00  0.00    +0.022 A 
ATOM     23  C   LIG    1      -43.233  78.075  23.414  0.00  0.00    +0.026 A 
BRANCH  22  24
ATOM     24  C   LIG    1      -45.245  77.875  21.927  0.00  0.00    +0.107 A 
ATOM     25  C   LIG    1      -45.402  77.805  20.540  0.00  0.00    +0.149 A 
ATOM     26  F   LIG    1      -44.702  78.577  19.700  0.00  0.00    -0.203 F 
ATOM     27  C   LIG    1      -46.356  76.959  19.980  0.00  0.00    +0.042 A 
ATOM     28  C   LIG    1      -47.193  76.233  20.812  0.00  0.00    +0.023 A 
ATOM     29  C   LIG    1      -47.027  76.379  22.177  0.00  0.00    +0.111 A 
ATOM     30  N   LIG    1      -46.077  77.166  22.747  0.00  0.00    -0.252 NA
ENDBRANCH  22  24
ENDBRANCH  14  16
ENDBRANCH   4  12
BRANCH   1  32
ATOM     31  N   LIG    1      -35.576  77.506  27.161  0.00  0.00    -0.238 NA
ATOM     32  C   LIG    1      -36.000  76.337  26.799  0.00  0.00    +0.237 C 
BRANCH  31  33
ATOM     33  C   LIG    1      -34.411  77.666  28.055  0.00  0.00    +0.114 C 
ATOM     34  C   LIG    1      -34.481  79.045  28.781  0.00  0.00    +0.192 C 
ATOM     35  O   LIG    1      -34.989  78.436  29.993  0.00  0.00    -0.375 OA
ATOM     36  C   LIG    1      -34.662  77.123  29.492  0.00  0.00    +0.192 C 
BRANCH  33  37
ATOM     37  C   LIG    1      -33.079  77.350  27.376  0.00  0.00    +0.062 C 
BRANCH  37  38
ATOM     38  C   LIG    1      -32.296  78.602  26.993  0.00  0.00    +0.158 C 
BRANCH  38  39
ATOM     39  O   LIG    1      -32.369  78.782  25.584  0.00  0.00    -0.395 OA
ATOM     40  H   LIG    1      -31.892  79.605  25.372  0.00  0.00    +0.209 HD
ENDBRANCH  38  39
ENDBRANCH  37  38
ENDBRANCH  33  37
ENDBRANCH  31  33
BRANCH  32  41
ATOM     41  O   LIG    1      -35.383  75.170  27.061  0.00  0.00    -0.491 OA
ATOM     42  H   LIG    1      -34.950  75.169  27.921  0.00  0.00    +0.294 HD
ENDBRANCH  32  41
ENDBRANCH   1  32
TORSDOF 10
ENDMDL
MODEL 8
REMARK VINA RESULT:      -6.3     17.221     21.448
REMARK  Name = pdb/CHEMBL3961730.pdb
REMARK                            x       y       z     vdW  Elec       q    Type
REMARK                         _______ _______ _______ _____ _____    ______ ____
ROOT
ATOM      1  C   LIG    1      -26.149  77.817  14.005  0.00  0.00    +0.149 A 
ATOM      2  N   LIG    1      -25.096  77.867  14.842  0.00  0.00    -0.160 NA
ATOM      3  N   LIG    1      -24.529  79.085  14.625  0.00  0.00    -0.218 N 
ATOM      4  C   LIG    1      -25.317  79.869  13.775  0.00  0.00    +0.129 A 
ATOM      5  C   LIG    1      -26.344  79.057  13.365  0.00  0.00    +0.078 A 
ENDROOT
BRANCH   3   6
ATOM      6  C   LIG    1      -23.273  79.418  15.214  0.00  0.00    +0.067 A 
ATOM      7  C   LIG    1      -23.174  80.453  16.155  0.00  0.00    +0.028 A 
ATOM      8  C   LIG    1      -21.934  80.780  16.716  0.00  0.00    +0.002 A 
ATOM      9  C   LIG    1      -20.788  80.078  16.346  0.00  0.00    +0.000 A 
ATOM     10  C   LIG    1      -20.876  79.051  15.408  0.00  0.00    +0.002 A 
ATOM     11  C   LIG    1      -22.112  78.725  14.833  0.00  0.00    +0.028 A 
ENDBRANCH   3   6
BRANCH   4  12
ATOM     12  N   LIG    1      -25.175  81.227  13.474  0.00  0.00    -0.266 N 
ATOM     13  H   LIG    1      -25.623  81.889  14.097  0.00  0.00    +0.157 HD
ATOM     14  C   LIG    1      -24.477  81.704  12.305  0.00  0.00    +0.251 C 
ATOM     15  O   LIG    1      -23.898  80.945  11.561  0.00  0.00    -0.270 OA
BRANCH  14  16
ATOM     16  C   LIG    1      -24.434  83.164  12.075  0.00  0.00    +0.056 A 
ATOM     17  C   LIG    1      -25.317  83.842  11.237  0.00  0.00    +0.054 A 
ATOM     18 CL   LIG    1      -26.630  83.083  10.413  0.00  0.00    -0.083 Cl
ATOM     19  C   LIG    1      -25.168  85.212  11.044  0.00  0.00    +0.041 A 
ATOM     20  C   LIG    1      -24.157  85.940  11.695  0.00  0.00    +0.052 A 
ATOM     21 CL   LIG    1      -24.257  87.647  11.438  0.00  0.00    -0.083 Cl
ATOM     22  C   LIG    1      -23.226  85.306  12.543  0.00  0.00    +0.022 A 
ATOM     23  C   LIG    1      -23.402  83.902  12.712  0.00  0.00    +0.026 A 
BRANCH  22  24
ATOM     24  C   LIG    1      -22.125  85.984  13.291  0.00  0.00    +0.107 A 
ATOM     25  C   LIG    1      -20.769  85.943  12.955  0.00  0.00    +0.149 A 
ATOM     26  F   LIG    1      -20.305  85.197  11.945  0.00  0.00    -0.203 F 
ATOM     27  C   LIG    1      -19.833  86.638  13.714  0.00  0.00    +0.042 A 
ATOM     28  C   LIG    1      -20.248  87.323  14.845  0.00  0.00    +0.023 A 
ATOM     29  C   LIG    1      -21.594  87.290  15.159  0.00  0.00    +0.111 A 
ATOM     30  N   LIG    1      -22.533  86.653  14.412  0.00  0.00    -0.252 NA
ENDBRANCH  22  24
ENDBRANCH  14  16
ENDBRANCH   4  12
BRANCH   1  32
ATOM     31  N   LIG    1      -26.912  75.925  12.768  0.00  0.00    -0.238 NA
ATOM     32  C   LIG    1      -27.010  76.646  13.838  0.00  0.00    +0.237 C 
BRANCH  31  33
ATOM     33  C   LIG    1      -27.691  74.681  12.597  0.00  0.00    +0.114 C 
ATOM     34  C   LIG    1      -26.930  73.700  11.651  0.00  0.00    +0.192 C 
ATOM     35  O   LIG    1      -26.441  72.923  12.772  0.00  0.00    -0.375 OA
ATOM     36  C   LIG    1      -27.356  73.596  13.661  0.00  0.00    +0.192 C 
BRANCH  33  37
ATOM     37  C   LIG    1      -29.156  74.930  12.241  0.00  0.00    +0.062 C 
BRANCH  37  38
ATOM     38  C   LIG    1      -29.352  76.152  11.349  0.00  0.00    +0.158 C 
BRANCH  38  39
ATOM     39  O   LIG    1      -29.626  77.284  12.167  0.00  0.00    -0.395 OA
ATOM     40  H   LIG    1      -30.061  77.949  11.603  0.00  0.00    +0.209 HD
ENDBRANCH  38  39
ENDBRANCH  37  38
ENDBRANCH  33  37
ENDBRANCH  31  33
BRANCH  32  41
ATOM     41  O   LIG    1      -27.895  76.448  14.832  0.00  0.00    -0.491 OA
ATOM     42  H   LIG    1      -27.823  75.569  15.218  0.00  0.00    +0.294 HD
ENDBRANCH  32  41
ENDBRANCH   1  32
TORSDOF 10
ENDMDL
MODEL 9
REMARK VINA RESULT:      -6.2      4.843      7.958
REMARK  Name = pdb/CHEMBL3961730.pdb
REMARK                            x       y       z     vdW  Elec       q    Type
REMARK                         _______ _______ _______ _____ _____    ______ ____
ROOT
ATOM      1  C   LIG    1      -31.762  74.399  30.005  0.00  0.00    +0.149 A 
ATOM      2  N   LIG    1      -31.916  75.733  29.906  0.00  0.00    -0.160 NA
ATOM      3  N   LIG    1      -32.808  75.912  28.894  0.00  0.00    -0.218 N 
ATOM      4  C   LIG    1      -33.345  74.693  28.466  0.00  0.00    +0.129 A 
ATOM      5  C   LIG    1      -32.667  73.724  29.162  0.00  0.00    +0.078 A 
ENDROOT
BRANCH   3   6
ATOM      6  C   LIG    1      -33.078  77.218  28.385  0.00  0.00    +0.067 A 
ATOM      7  C   LIG    1      -32.293  77.763  27.359  0.00  0.00    +0.028 A 
ATOM      8  C   LIG    1      -32.558  79.049  26.876  0.00  0.00    +0.002 A 
ATOM      9  C   LIG    1      -33.606  79.798  27.409  0.00  0.00    +0.000 A 
ATOM     10  C   LIG    1      -34.388  79.266  28.433  0.00  0.00    +0.002 A 
ATOM     11  C   LIG    1      -34.122  77.983  28.929  0.00  0.00    +0.028 A 
ENDBRANCH   3   6
BRANCH   4  12
ATOM     12  N   LIG    1      -34.418  74.479  27.596  0.00  0.00    -0.266 N 
ATOM     13  H   LIG    1      -34.206  74.408  26.607  0.00  0.00    +0.157 HD
ATOM     14  C   LIG    1      -35.789  74.416  28.040  0.00  0.00    +0.251 C 
ATOM     15  O   LIG    1      -36.076  74.461  29.215  0.00  0.00    -0.270 OA
BRANCH  14  16
ATOM     16  C   LIG    1      -36.838  74.229  27.015  0.00  0.00    +0.056 A 
ATOM     17  C   LIG    1      -37.182  72.991  26.476  0.00  0.00    +0.054 A 
ATOM     18 CL   LIG    1      -36.484  71.497  26.986  0.00  0.00    -0.083 Cl
ATOM     19  C   LIG    1      -38.149  72.919  25.479  0.00  0.00    +0.041 A 
ATOM     20  C   LIG    1      -38.813  74.068  25.014  0.00  0.00    +0.052 A 
ATOM     21 CL   LIG    1      -40.086  73.729  23.894  0.00  0.00    -0.083 Cl
ATOM     22  C   LIG    1      -38.497  75.348  25.512  0.00  0.00    +0.022 A 
ATOM     23  C   LIG    1      -37.497  75.387  26.526  0.00  0.00    +0.026 A 
BRANCH  22  24
ATOM     24  C   LIG    1      -39.147  76.629  25.099  0.00  0.00    +0.107 A 
ATOM     25  C   LIG    1      -38.702  77.471  24.076  0.00  0.00    +0.149 A 
ATOM     26  F   LIG    1      -37.567  77.245  23.405  0.00  0.00    -0.203 F 
ATOM     27  C   LIG    1      -39.406  78.630  23.761  0.00  0.00    +0.042 A 
ATOM     28  C   LIG    1      -40.519  78.976  24.511  0.00  0.00    +0.023 A 
ATOM     29  C   LIG    1      -40.885  78.131  25.543  0.00  0.00    +0.111 A 
ATOM     30  N   LIG    1      -40.239  76.974  25.844  0.00  0.00    -0.252 NA
ENDBRANCH  22  24
ENDBRANCH  14  16
ENDBRANCH   4  12
BRANCH   1  32
ATOM     31  N   LIG    1      -31.008  72.509  31.249  0.00  0.00    -0.238 NA
ATOM     32  C   LIG    1      -30.824  73.747  30.917  0.00  0.00    +0.237 C 
BRANCH  31  33
ATOM     33  C   LIG    1      -30.037  71.779  32.091  0.00  0.00    +0.114 C 
ATOM     34  C   LIG    1      -30.123  72.283  33.565  0.00  0.00    +0.192 C 
ATOM     35  O   LIG    1      -30.919  71.139  33.960  0.00  0.00    -0.375 OA
ATOM     36  C   LIG    1      -30.621  70.478  32.713  0.00  0.00    +0.192 C 
BRANCH  33  37
ATOM     37  C   LIG    1      -28.631  71.737  31.494  0.00  0.00    +0.062 C 
BRANCH  37  38
ATOM     38  C   LIG    1      -28.458  70.629  30.459  0.00  0.00    +0.158 C 
BRANCH  38  39
ATOM     39  O   LIG    1      -29.219  70.954  29.301  0.00  0.00    -0.395 OA
ATOM     40  H   LIG    1      -29.333  71.922  29.292  0.00  0.00    +0.209 HD
ENDBRANCH  38  39
ENDBRANCH  37  38
ENDBRANCH  33  37
ENDBRANCH  31  33
BRANCH  32  41
ATOM     41  O   LIG    1      -29.844  74.540  31.385  0.00  0.00    -0.491 OA
ATOM     42  H   LIG    1      -29.110  74.620  30.767  0.00  0.00    +0.294 HD
ENDBRANCH  32  41
ENDBRANCH   1  32
TORSDOF 10
ENDMDL
