MODEL 1
REMARK VINA RESULT:      -8.0      0.000      0.000
REMARK  Name = pdb/CHEMBL2037211.pdb
REMARK                            x       y       z     vdW  Elec       q    Type
REMARK                         _______ _______ _______ _____ _____    ______ ____
ROOT
ATOM      1  C   LIG    1      -38.009  74.897  25.255  0.00  0.00    +0.035 A 
ATOM      2  C   LIG    1      -38.332  73.536  25.117  0.00  0.00    +0.046 A 
ATOM      3  C   LIG    1      -39.522  73.126  24.484  0.00  0.00    +0.033 A 
ATOM      4  C   LIG    1      -40.390  74.110  24.005  0.00  0.00    +0.023 A 
ATOM      5  C   LIG    1      -40.088  75.462  24.154  0.00  0.00    +0.004 A 
ATOM      6  C   LIG    1      -38.899  75.846  24.761  0.00  0.00    +0.023 A 
ENDROOT
BRANCH   1   8
ATOM      7  C   LIG    1      -36.654  75.720  27.185  0.00  0.00    +0.248 C 
ATOM      8  N   LIG    1      -36.792  75.245  25.885  0.00  0.00    -0.281 N 
ATOM      9  H   LIG    1      -35.958  75.098  25.332  0.00  0.00    +0.155 HD
ATOM     10  O   LIG    1      -37.563  75.876  27.993  0.00  0.00    -0.270 OA
BRANCH   7  15
ATOM     11  C   LIG    1      -33.164  75.448  28.733  0.00  0.00    +0.031 A 
ATOM     12  C   LIG    1      -32.629  76.653  28.244  0.00  0.00    +0.035 A 
ATOM     13  C   LIG    1      -33.382  77.585  27.499  0.00  0.00    +0.057 A 
ATOM     14  C   LIG    1      -34.714  77.290  27.202  0.00  0.00    +0.025 A 
ATOM     15  C   LIG    1      -35.271  76.078  27.624  0.00  0.00    +0.039 A 
ATOM     16  C   LIG    1      -34.493  75.179  28.370  0.00  0.00    +0.036 A 
BRANCH  11  21
ATOM     17  C   LIG    1      -31.269  73.734  32.956  0.00  0.00    +0.105 C 
ATOM     18  N   LIG    1      -32.136  74.782  32.417  0.00  0.00    -0.302 NA
ATOM     19  C   LIG    1      -33.329  74.205  31.753  0.00  0.00    +0.103 C 
ATOM     20  C   LIG    1      -33.054  73.558  30.372  0.00  0.00    +0.120 C 
ATOM     21  N   LIG    1      -32.396  74.531  29.461  0.00  0.00    -0.327 N 
ATOM     22  C   LIG    1      -31.127  75.007  30.071  0.00  0.00    +0.120 C 
ATOM     23  C   LIG    1      -31.401  75.646  31.456  0.00  0.00    +0.103 C 
ENDBRANCH  11  21
BRANCH  13  24
ATOM     24  C   LIG    1      -32.732  78.859  27.025  0.00  0.00    +0.417 C 
ATOM     25  F   LIG    1      -33.559  79.935  27.090  0.00  0.00    -0.166 F 
ATOM     26  F   LIG    1      -32.335  78.775  25.717  0.00  0.00    -0.166 F 
ATOM     27  F   LIG    1      -31.612  79.203  27.723  0.00  0.00    -0.166 F 
ENDBRANCH  13  24
ENDBRANCH   7  15
ENDBRANCH   1   8
BRANCH   3  28
ATOM     28  N   LIG    1      -39.795  71.754  24.326  0.00  0.00    -0.314 N 
ATOM     29  H   LIG    1      -40.494  71.398  24.970  0.00  0.00    +0.152 HD
BRANCH  28  30
ATOM     30  C   LIG    1      -39.069  70.719  23.697  0.00  0.00    +0.033 A 
ATOM     31  C   LIG    1      -37.747  70.401  24.025  0.00  0.00    +0.047 A 
ATOM     32  C   LIG    1      -37.144  69.345  23.354  0.00  0.00    +0.043 A 
ATOM     33  N   LIG    1      -35.867  68.847  23.582  0.00  0.00    -0.281 N 
ATOM     34  H   LIG    1      -35.215  69.184  24.273  0.00  0.00    +0.155 HD
ATOM     35  C   LIG    1      -35.565  67.803  22.725  0.00  0.00    +0.249 C 
ATOM     36  O   LIG    1      -34.504  67.210  22.681  0.00  0.00    -0.270 OA
ATOM     37  C   LIG    1      -36.790  67.622  21.857  0.00  0.00    +0.048 C 
ATOM     38  C   LIG    1      -36.990  66.760  20.845  0.00  0.00    +0.039 C 
ATOM     39  C   LIG    1      -37.772  68.619  22.335  0.00  0.00    +0.008 A 
ATOM     40  C   LIG    1      -39.070  68.934  21.983  0.00  0.00    +0.012 A 
ATOM     41  C   LIG    1      -39.709  69.981  22.672  0.00  0.00    +0.024 A 
BRANCH  38  42
ATOM     42  C   LIG    1      -36.076  65.799  20.326  0.00  0.00    +0.040 A 
ATOM     43  N   LIG    1      -35.641  64.726  21.072  0.00  0.00    -0.361 N 
ATOM     44  H   LIG    1      -35.993  64.473  21.988  0.00  0.00    +0.165 HD
ATOM     45  C   LIG    1      -34.745  63.977  20.358  0.00  0.00    +0.083 A 
ATOM     46  C   LIG    1      -34.586  64.571  19.131  0.00  0.00    +0.019 A 
ATOM     47  C   LIG    1      -35.404  65.719  19.113  0.00  0.00    +0.027 A 
ENDBRANCH  38  42
ENDBRANCH  28  30
ENDBRANCH   3  28
TORSDOF 7
ENDMDL
MODEL 2
REMARK VINA RESULT:      -7.9      2.798      4.501
REMARK  Name = pdb/CHEMBL2037211.pdb
REMARK                            x       y       z     vdW  Elec       q    Type
REMARK                         _______ _______ _______ _____ _____    ______ ____
ROOT
ATOM      1  C   LIG    1      -38.274  74.155  24.998  0.00  0.00    +0.035 A 
ATOM      2  C   LIG    1      -37.827  72.822  25.008  0.00  0.00    +0.046 A 
ATOM      3  C   LIG    1      -38.612  71.783  24.470  0.00  0.00    +0.033 A 
ATOM      4  C   LIG    1      -39.863  72.105  23.937  0.00  0.00    +0.023 A 
ATOM      5  C   LIG    1      -40.322  73.420  23.940  0.00  0.00    +0.004 A 
ATOM      6  C   LIG    1      -39.524  74.434  24.454  0.00  0.00    +0.023 A 
ENDROOT
BRANCH   1   8
ATOM      7  C   LIG    1      -37.288  75.458  26.887  0.00  0.00    +0.248 C 
ATOM      8  N   LIG    1      -37.432  75.156  25.536  0.00  0.00    -0.281 N 
ATOM      9  H   LIG    1      -36.873  75.662  24.865  0.00  0.00    +0.155 HD
ATOM     10  O   LIG    1      -37.842  74.881  27.816  0.00  0.00    -0.270 OA
BRANCH   7  15
ATOM     11  C   LIG    1      -36.070  78.874  28.111  0.00  0.00    +0.031 A 
ATOM     12  C   LIG    1      -34.686  78.628  28.059  0.00  0.00    +0.035 A 
ATOM     13  C   LIG    1      -34.135  77.427  27.566  0.00  0.00    +0.057 A 
ATOM     14  C   LIG    1      -34.997  76.416  27.138  0.00  0.00    +0.025 A 
ATOM     15  C   LIG    1      -36.382  76.598  27.224  0.00  0.00    +0.039 A 
ATOM     16  C   LIG    1      -36.893  77.810  27.712  0.00  0.00    +0.036 A 
BRANCH  11  21
ATOM     17  C   LIG    1      -37.785  83.465  27.530  0.00  0.00    +0.105 C 
ATOM     18  N   LIG    1      -37.277  82.316  26.782  0.00  0.00    -0.302 NA
ATOM     19  C   LIG    1      -38.143  81.127  26.965  0.00  0.00    +0.103 C 
ATOM     20  C   LIG    1      -38.012  80.436  28.346  0.00  0.00    +0.120 C 
ATOM     21  N   LIG    1      -36.598  80.070  28.615  0.00  0.00    -0.327 N 
ATOM     22  C   LIG    1      -35.748  81.288  28.564  0.00  0.00    +0.120 C 
ATOM     23  C   LIG    1      -35.885  81.984  27.187  0.00  0.00    +0.103 C 
ENDBRANCH  11  21
BRANCH  13  24
ATOM     24  C   LIG    1      -32.637  77.253  27.533  0.00  0.00    +0.417 C 
ATOM     25  F   LIG    1      -31.970  78.280  28.122  0.00  0.00    -0.166 F 
ATOM     26  F   LIG    1      -32.158  77.186  26.252  0.00  0.00    -0.166 F 
ATOM     27  F   LIG    1      -32.199  76.117  28.146  0.00  0.00    -0.166 F 
ENDBRANCH  13  24
ENDBRANCH   7  15
ENDBRANCH   1   8
BRANCH   3  28
ATOM     28  N   LIG    1      -38.118  70.464  24.459  0.00  0.00    -0.314 N 
ATOM     29  H   LIG    1      -37.805  70.136  25.366  0.00  0.00    +0.152 HD
BRANCH  28  30
ATOM     30  C   LIG    1      -37.664  69.643  23.404  0.00  0.00    +0.033 A 
ATOM     31  C   LIG    1      -38.181  69.704  22.106  0.00  0.00    +0.047 A 
ATOM     32  C   LIG    1      -37.636  68.862  21.147  0.00  0.00    +0.043 A 
ATOM     33  N   LIG    1      -37.974  68.821  19.799  0.00  0.00    -0.281 N 
ATOM     34  H   LIG    1      -38.656  69.405  19.343  0.00  0.00    +0.155 HD
ATOM     35  C   LIG    1      -37.258  67.850  19.121  0.00  0.00    +0.249 C 
ATOM     36  O   LIG    1      -37.383  67.574  17.944  0.00  0.00    -0.270 OA
ATOM     37  C   LIG    1      -36.366  67.205  20.157  0.00  0.00    +0.048 C 
ATOM     38  C   LIG    1      -35.501  66.185  20.013  0.00  0.00    +0.039 C 
ATOM     39  C   LIG    1      -36.635  67.922  21.423  0.00  0.00    +0.008 A 
ATOM     40  C   LIG    1      -36.129  67.832  22.704  0.00  0.00    +0.012 A 
ATOM     41  C   LIG    1      -36.646  68.698  23.685  0.00  0.00    +0.024 A 
BRANCH  38  42
ATOM     42  C   LIG    1      -35.220  65.442  18.831  0.00  0.00    +0.040 A 
ATOM     43  N   LIG    1      -36.158  64.622  18.242  0.00  0.00    -0.361 N 
ATOM     44  H   LIG    1      -37.128  64.550  18.527  0.00  0.00    +0.165 HD
ATOM     45  C   LIG    1      -35.630  63.999  17.145  0.00  0.00    +0.083 A 
ATOM     46  C   LIG    1      -34.326  64.411  17.016  0.00  0.00    +0.019 A 
ATOM     47  C   LIG    1      -34.062  65.300  18.078  0.00  0.00    +0.027 A 
ENDBRANCH  38  42
ENDBRANCH  28  30
ENDBRANCH   3  28
TORSDOF 7
ENDMDL
MODEL 3
REMARK VINA RESULT:      -7.6     16.267     19.329
REMARK  Name = pdb/CHEMBL2037211.pdb
REMARK                            x       y       z     vdW  Elec       q    Type
REMARK                         _______ _______ _______ _____ _____    ______ ____
ROOT
ATOM      1  C   LIG    1      -32.622  79.171  10.765  0.00  0.00    +0.035 A 
ATOM      2  C   LIG    1      -31.220  79.058  10.742  0.00  0.00    +0.046 A 
ATOM      3  C   LIG    1      -30.589  77.816  10.529  0.00  0.00    +0.033 A 
ATOM      4  C   LIG    1      -31.392  76.686  10.355  0.00  0.00    +0.023 A 
ATOM      5  C   LIG    1      -32.781  76.784  10.395  0.00  0.00    +0.004 A 
ATOM      6  C   LIG    1      -33.385  78.021  10.584  0.00  0.00    +0.023 A 
ENDROOT
BRANCH   1   8
ATOM      7  C   LIG    1      -33.548  81.348   9.968  0.00  0.00    +0.248 C 
ATOM      8  N   LIG    1      -33.195  80.447  10.967  0.00  0.00    -0.281 N 
ATOM      9  H   LIG    1      -33.385  80.692  11.929  0.00  0.00    +0.155 HD
ATOM     10  O   LIG    1      -33.447  81.159   8.760  0.00  0.00    -0.270 OA
BRANCH   7  15
ATOM     11  C   LIG    1      -35.992  84.039  11.166  0.00  0.00    +0.031 A 
ATOM     12  C   LIG    1      -35.057  85.046  11.464  0.00  0.00    +0.035 A 
ATOM     13  C   LIG    1      -33.675  84.913  11.215  0.00  0.00    +0.057 A 
ATOM     14  C   LIG    1      -33.201  83.715  10.678  0.00  0.00    +0.025 A 
ATOM     15  C   LIG    1      -34.089  82.667  10.417  0.00  0.00    +0.039 A 
ATOM     16  C   LIG    1      -35.459  82.839  10.670  0.00  0.00    +0.036 A 
BRANCH  11  21
ATOM     17  C   LIG    1      -40.392  86.117  10.336  0.00  0.00    +0.105 C 
ATOM     18  N   LIG    1      -39.006  86.115   9.869  0.00  0.00    -0.302 NA
ATOM     19  C   LIG    1      -38.612  84.781   9.356  0.00  0.00    +0.103 C 
ATOM     20  C   LIG    1      -38.369  83.711  10.450  0.00  0.00    +0.120 C 
ATOM     21  N   LIG    1      -37.360  84.187  11.431  0.00  0.00    -0.327 N 
ATOM     22  C   LIG    1      -37.822  85.459  12.046  0.00  0.00    +0.120 C 
ATOM     23  C   LIG    1      -38.073  86.526  10.951  0.00  0.00    +0.103 C 
ENDBRANCH  11  21
BRANCH  13  24
ATOM     24  C   LIG    1      -32.745  86.050  11.553  0.00  0.00    +0.417 C 
ATOM     25  F   LIG    1      -31.554  85.631  12.054  0.00  0.00    -0.166 F 
ATOM     26  F   LIG    1      -33.276  86.880  12.503  0.00  0.00    -0.166 F 
ATOM     27  F   LIG    1      -32.446  86.854  10.493  0.00  0.00    -0.166 F 
ENDBRANCH  13  24
ENDBRANCH   7  15
ENDBRANCH   1   8
BRANCH   3  28
ATOM     28  N   LIG    1      -29.184  77.744  10.471  0.00  0.00    -0.314 N 
ATOM     29  H   LIG    1      -28.835  77.016   9.857  0.00  0.00    +0.152 HD
BRANCH  28  30
ATOM     30  C   LIG    1      -28.183  78.244  11.333  0.00  0.00    +0.033 A 
ATOM     31  C   LIG    1      -28.025  77.816  12.654  0.00  0.00    +0.047 A 
ATOM     32  C   LIG    1      -26.987  78.363  13.397  0.00  0.00    +0.043 A 
ATOM     33  N   LIG    1      -26.637  78.021  14.698  0.00  0.00    -0.281 N 
ATOM     34  H   LIG    1      -27.088  77.323  15.269  0.00  0.00    +0.155 HD
ATOM     35  C   LIG    1      -25.568  78.772  15.155  0.00  0.00    +0.249 C 
ATOM     36  O   LIG    1      -25.083  78.706  16.268  0.00  0.00    -0.270 OA
ATOM     37  C   LIG    1      -25.202  79.693  14.013  0.00  0.00    +0.048 C 
ATOM     38  C   LIG    1      -24.251  80.643  13.963  0.00  0.00    +0.039 C 
ATOM     39  C   LIG    1      -26.128  79.355  12.910  0.00  0.00    +0.008 A 
ATOM     40  C   LIG    1      -26.285  79.806  11.615  0.00  0.00    +0.012 A 
ATOM     41  C   LIG    1      -27.310  79.243  10.834  0.00  0.00    +0.024 A 
BRANCH  38  42
ATOM     42  C   LIG    1      -23.351  81.028  14.997  0.00  0.00    +0.040 A 
ATOM     43  N   LIG    1      -22.485  80.132  15.585  0.00  0.00    -0.361 N 
ATOM     44  H   LIG    1      -22.342  79.176  15.281  0.00  0.00    +0.165 HD
ATOM     45  C   LIG    1      -21.757  80.744  16.568  0.00  0.00    +0.083 A 
ATOM     46  C   LIG    1      -22.155  82.056  16.631  0.00  0.00    +0.019 A 
ATOM     47  C   LIG    1      -23.163  82.234  15.661  0.00  0.00    +0.027 A 
ENDBRANCH  38  42
ENDBRANCH  28  30
ENDBRANCH   3  28
TORSDOF 7
ENDMDL
MODEL 4
REMARK VINA RESULT:      -7.6      4.070     12.227
REMARK  Name = pdb/CHEMBL2037211.pdb
REMARK                            x       y       z     vdW  Elec       q    Type
REMARK                         _______ _______ _______ _____ _____    ______ ____
ROOT
ATOM      1  C   LIG    1      -34.695  71.638  28.005  0.00  0.00    +0.035 A 
ATOM      2  C   LIG    1      -34.064  72.888  28.127  0.00  0.00    +0.046 A 
ATOM      3  C   LIG    1      -33.006  73.089  29.036  0.00  0.00    +0.033 A 
ATOM      4  C   LIG    1      -32.604  72.014  29.833  0.00  0.00    +0.023 A 
ATOM      5  C   LIG    1      -33.237  70.777  29.734  0.00  0.00    +0.004 A 
ATOM      6  C   LIG    1      -34.263  70.592  28.816  0.00  0.00    +0.023 A 
ENDROOT
BRANCH   1   8
ATOM      7  C   LIG    1      -35.628  70.908  25.807  0.00  0.00    +0.248 C 
ATOM      8  N   LIG    1      -35.739  71.494  27.063  0.00  0.00    -0.281 N 
ATOM      9  H   LIG    1      -36.645  71.827  27.363  0.00  0.00    +0.155 HD
ATOM     10  O   LIG    1      -34.615  70.396  25.339  0.00  0.00    -0.270 OA
BRANCH   7  15
ATOM     11  C   LIG    1      -38.416  69.727  23.466  0.00  0.00    +0.031 A 
ATOM     12  C   LIG    1      -39.246  70.860  23.549  0.00  0.00    +0.035 A 
ATOM     13  C   LIG    1      -38.896  72.021  24.270  0.00  0.00    +0.057 A 
ATOM     14  C   LIG    1      -37.685  72.042  24.964  0.00  0.00    +0.025 A 
ATOM     15  C   LIG    1      -36.854  70.917  24.953  0.00  0.00    +0.039 A 
ATOM     16  C   LIG    1      -37.232  69.783  24.217  0.00  0.00    +0.036 A 
BRANCH  11  21
ATOM     17  C   LIG    1      -37.597  66.272  20.039  0.00  0.00    +0.105 C 
ATOM     18  N   LIG    1      -36.993  67.447  20.664  0.00  0.00    -0.302 NA
ATOM     19  C   LIG    1      -36.783  67.237  22.116  0.00  0.00    +0.103 C 
ATOM     20  C   LIG    1      -38.072  67.297  22.974  0.00  0.00    +0.120 C 
ATOM     21  N   LIG    1      -38.788  68.580  22.754  0.00  0.00    -0.327 N 
ATOM     22  C   LIG    1      -39.119  68.726  21.312  0.00  0.00    +0.120 C 
ATOM     23  C   LIG    1      -37.831  68.658  20.454  0.00  0.00    +0.103 C 
ENDBRANCH  11  21
BRANCH  13  24
ATOM     24  C   LIG    1      -39.840  73.196  24.294  0.00  0.00    +0.417 C 
ATOM     25  F   LIG    1      -40.590  73.251  25.425  0.00  0.00    -0.166 F 
ATOM     26  F   LIG    1      -40.734  73.155  23.258  0.00  0.00    -0.166 F 
ATOM     27  F   LIG    1      -39.220  74.406  24.193  0.00  0.00    -0.166 F 
ENDBRANCH  13  24
ENDBRANCH   7  15
ENDBRANCH   1   8
BRANCH   3  28
ATOM     28  N   LIG    1      -32.368  74.343  29.103  0.00  0.00    -0.314 N 
ATOM     29  H   LIG    1      -31.409  74.298  29.432  0.00  0.00    +0.152 HD
BRANCH  28  30
ATOM     30  C   LIG    1      -32.883  75.657  29.130  0.00  0.00    +0.033 A 
ATOM     31  C   LIG    1      -32.941  76.482  28.002  0.00  0.00    +0.047 A 
ATOM     32  C   LIG    1      -33.493  77.747  28.147  0.00  0.00    +0.043 A 
ATOM     33  N   LIG    1      -33.690  78.681  27.137  0.00  0.00    -0.281 N 
ATOM     34  H   LIG    1      -33.463  78.555  26.163  0.00  0.00    +0.155 HD
ATOM     35  C   LIG    1      -34.242  79.853  27.622  0.00  0.00    +0.249 C 
ATOM     36  O   LIG    1      -34.483  80.846  26.964  0.00  0.00    -0.270 OA
ATOM     37  C   LIG    1      -34.415  79.635  29.109  0.00  0.00    +0.048 C 
ATOM     38  C   LIG    1      -34.881  80.485  30.041  0.00  0.00    +0.039 C 
ATOM     39  C   LIG    1      -33.946  78.257  29.371  0.00  0.00    +0.008 A 
ATOM     40  C   LIG    1      -33.876  77.464  30.499  0.00  0.00    +0.012 A 
ATOM     41  C   LIG    1      -33.348  76.167  30.367  0.00  0.00    +0.024 A 
BRANCH  38  42
ATOM     42  C   LIG    1      -35.320  81.827  29.853  0.00  0.00    +0.040 A 
ATOM     43  N   LIG    1      -34.471  82.820  29.416  0.00  0.00    -0.361 N 
ATOM     44  H   LIG    1      -33.517  82.675  29.103  0.00  0.00    +0.165 HD
ATOM     45  C   LIG    1      -35.127  84.019  29.352  0.00  0.00    +0.083 A 
ATOM     46  C   LIG    1      -36.421  83.810  29.760  0.00  0.00    +0.019 A 
ATOM     47  C   LIG    1      -36.541  82.445  30.089  0.00  0.00    +0.027 A 
ENDBRANCH  38  42
ENDBRANCH  28  30
ENDBRANCH   3  28
TORSDOF 7
ENDMDL
MODEL 5
REMARK VINA RESULT:      -7.5     16.530     19.330
REMARK  Name = pdb/CHEMBL2037211.pdb
REMARK                            x       y       z     vdW  Elec       q    Type
REMARK                         _______ _______ _______ _____ _____    ______ ____
ROOT
ATOM      1  C   LIG    1      -32.556  79.171  10.900  0.00  0.00    +0.035 A 
ATOM      2  C   LIG    1      -31.164  78.974  10.915  0.00  0.00    +0.046 A 
ATOM      3  C   LIG    1      -30.598  77.717  10.623  0.00  0.00    +0.033 A 
ATOM      4  C   LIG    1      -31.458  76.655  10.331  0.00  0.00    +0.023 A 
ATOM      5  C   LIG    1      -32.840  76.835  10.333  0.00  0.00    +0.004 A 
ATOM      6  C   LIG    1      -33.377  78.088  10.601  0.00  0.00    +0.023 A 
ENDROOT
BRANCH   1   8
ATOM      7  C   LIG    1      -33.513  81.383  10.247  0.00  0.00    +0.248 C 
ATOM      8  N   LIG    1      -33.062  80.460  11.185  0.00  0.00    -0.281 N 
ATOM      9  H   LIG    1      -33.119  80.698  12.165  0.00  0.00    +0.155 HD
ATOM     10  O   LIG    1      -33.573  81.206   9.035  0.00  0.00    -0.270 OA
BRANCH   7  15
ATOM     11  C   LIG    1      -33.414  85.025  11.418  0.00  0.00    +0.031 A 
ATOM     12  C   LIG    1      -34.799  85.240  11.536  0.00  0.00    +0.035 A 
ATOM     13  C   LIG    1      -35.757  84.225  11.328  0.00  0.00    +0.057 A 
ATOM     14  C   LIG    1      -35.319  82.953  10.955  0.00  0.00    +0.025 A 
ATOM     15  C   LIG    1      -33.953  82.710  10.774  0.00  0.00    +0.039 A 
ATOM     16  C   LIG    1      -33.030  83.743  10.998  0.00  0.00    +0.036 A 
BRANCH  11  21
ATOM     17  C   LIG    1      -30.548  88.692   9.772  0.00  0.00    +0.105 C 
ATOM     18  N   LIG    1      -31.536  87.707   9.331  0.00  0.00    -0.302 NA
ATOM     19  C   LIG    1      -32.842  87.916  10.001  0.00  0.00    +0.103 C 
ATOM     20  C   LIG    1      -32.888  87.472  11.485  0.00  0.00    +0.120 C 
ATOM     21  N   LIG    1      -32.480  86.050  11.618  0.00  0.00    -0.327 N 
ATOM     22  C   LIG    1      -31.111  85.868  11.067  0.00  0.00    +0.120 C 
ATOM     23  C   LIG    1      -31.063  86.321   9.586  0.00  0.00    +0.103 C 
ENDBRANCH  11  21
BRANCH  13  24
ATOM     24  C   LIG    1      -37.222  84.540  11.489  0.00  0.00    +0.417 C 
ATOM     25  F   LIG    1      -37.590  85.692  10.870  0.00  0.00    -0.166 F 
ATOM     26  F   LIG    1      -37.570  84.699  12.804  0.00  0.00    -0.166 F 
ATOM     27  F   LIG    1      -38.052  83.571  11.007  0.00  0.00    -0.166 F 
ENDBRANCH  13  24
ENDBRANCH   7  15
ENDBRANCH   1   8
BRANCH   3  28
ATOM     28  N   LIG    1      -29.198  77.565  10.607  0.00  0.00    -0.314 N 
ATOM     29  H   LIG    1      -28.879  76.766  10.069  0.00  0.00    +0.152 HD
BRANCH  28  30
ATOM     30  C   LIG    1      -28.189  78.086  11.445  0.00  0.00    +0.033 A 
ATOM     31  C   LIG    1      -28.027  77.703  12.781  0.00  0.00    +0.047 A 
ATOM     32  C   LIG    1      -26.981  78.267  13.499  0.00  0.00    +0.043 A 
ATOM     33  N   LIG    1      -26.627  77.968  14.809  0.00  0.00    -0.281 N 
ATOM     34  H   LIG    1      -27.081  77.295  15.406  0.00  0.00    +0.155 HD
ATOM     35  C   LIG    1      -25.549  78.725  15.233  0.00  0.00    +0.249 C 
ATOM     36  O   LIG    1      -25.058  78.695  16.345  0.00  0.00    -0.270 OA
ATOM     37  C   LIG    1      -25.180  79.602  14.057  0.00  0.00    +0.048 C 
ATOM     38  C   LIG    1      -24.221  80.540  13.968  0.00  0.00    +0.039 C 
ATOM     39  C   LIG    1      -26.115  79.233  12.972  0.00  0.00    +0.008 A 
ATOM     40  C   LIG    1      -26.274  79.639  11.662  0.00  0.00    +0.012 A 
ATOM     41  C   LIG    1      -27.309  79.058  10.907  0.00  0.00    +0.024 A 
BRANCH  38  42
ATOM     42  C   LIG    1      -23.311  80.954  14.983  0.00  0.00    +0.040 A 
ATOM     43  N   LIG    1      -22.383  80.095  15.529  0.00  0.00    -0.361 N 
ATOM     44  H   LIG    1      -22.200  79.152  15.202  0.00  0.00    +0.165 HD
ATOM     45  C   LIG    1      -21.659  80.726  16.503  0.00  0.00    +0.083 A 
ATOM     46  C   LIG    1      -22.123  82.014  16.602  0.00  0.00    +0.019 A 
ATOM     47  C   LIG    1      -23.167  82.156  15.665  0.00  0.00    +0.027 A 
ENDBRANCH  38  42
ENDBRANCH  28  30
ENDBRANCH   3  28
TORSDOF 7
ENDMDL
MODEL 6
REMARK VINA RESULT:      -7.5      5.061     10.277
REMARK  Name = pdb/CHEMBL2037211.pdb
REMARK                            x       y       z     vdW  Elec       q    Type
REMARK                         _______ _______ _______ _____ _____    ______ ____
ROOT
ATOM      1  C   LIG    1      -37.913  75.365  25.299  0.00  0.00    +0.035 A 
ATOM      2  C   LIG    1      -38.838  76.400  25.074  0.00  0.00    +0.046 A 
ATOM      3  C   LIG    1      -40.092  76.146  24.485  0.00  0.00    +0.033 A 
ATOM      4  C   LIG    1      -40.395  74.834  24.110  0.00  0.00    +0.023 A 
ATOM      5  C   LIG    1      -39.478  73.805  24.311  0.00  0.00    +0.004 A 
ATOM      6  C   LIG    1      -38.255  74.072  24.915  0.00  0.00    +0.023 A 
ENDROOT
BRANCH   1   8
ATOM      7  C   LIG    1      -36.357  75.483  27.249  0.00  0.00    +0.248 C 
ATOM      8  N   LIG    1      -36.678  75.681  25.909  0.00  0.00    -0.281 N 
ATOM      9  H   LIG    1      -35.970  76.053  25.292  0.00  0.00    +0.155 HD
ATOM     10  O   LIG    1      -37.085  74.973  28.095  0.00  0.00    -0.270 OA
BRANCH   7  15
ATOM     11  C   LIG    1      -32.884  75.500  28.857  0.00  0.00    +0.031 A 
ATOM     12  C   LIG    1      -32.414  76.710  28.316  0.00  0.00    +0.035 A 
ATOM     13  C   LIG    1      -33.209  77.557  27.516  0.00  0.00    +0.057 A 
ATOM     14  C   LIG    1      -34.516  77.167  27.215  0.00  0.00    +0.025 A 
ATOM     15  C   LIG    1      -35.006  75.945  27.688  0.00  0.00    +0.039 A 
ATOM     16  C   LIG    1      -34.188  75.133  28.489  0.00  0.00    +0.036 A 
BRANCH  11  21
ATOM     17  C   LIG    1      -31.180  73.926  33.214  0.00  0.00    +0.105 C 
ATOM     18  N   LIG    1      -32.121  74.870  32.612  0.00  0.00    -0.302 NA
ATOM     19  C   LIG    1      -33.164  74.165  31.829  0.00  0.00    +0.103 C 
ATOM     20  C   LIG    1      -32.683  73.596  30.470  0.00  0.00    +0.120 C 
ATOM     21  N   LIG    1      -32.074  74.668  29.641  0.00  0.00    -0.327 N 
ATOM     22  C   LIG    1      -30.938  75.284  30.375  0.00  0.00    +0.120 C 
ATOM     23  C   LIG    1      -31.417  75.845  31.737  0.00  0.00    +0.103 C 
ENDBRANCH  11  21
BRANCH  13  24
ATOM     24  C   LIG    1      -32.628  78.844  26.987  0.00  0.00    +0.417 C 
ATOM     25  F   LIG    1      -32.243  78.758  25.687  0.00  0.00    -0.166 F 
ATOM     26  F   LIG    1      -31.511  79.224  27.681  0.00  0.00    -0.166 F 
ATOM     27  F   LIG    1      -33.480  79.906  27.059  0.00  0.00    -0.166 F 
ENDBRANCH  13  24
ENDBRANCH   7  15
ENDBRANCH   1   8
BRANCH   3  28
ATOM     28  N   LIG    1      -41.011  77.198  24.311  0.00  0.00    -0.314 N 
ATOM     29  H   LIG    1      -41.942  76.891  24.050  0.00  0.00    +0.152 HD
BRANCH  28  30
ATOM     30  C   LIG    1      -40.823  78.582  24.098  0.00  0.00    +0.033 A 
ATOM     31  C   LIG    1      -41.754  79.551  24.486  0.00  0.00    +0.047 A 
ATOM     32  C   LIG    1      -41.446  80.883  24.246  0.00  0.00    +0.043 A 
ATOM     33  N   LIG    1      -42.212  81.984  24.611  0.00  0.00    -0.281 N 
ATOM     34  H   LIG    1      -43.089  81.956  25.107  0.00  0.00    +0.155 HD
ATOM     35  C   LIG    1      -41.631  83.171  24.201  0.00  0.00    +0.249 C 
ATOM     36  O   LIG    1      -42.105  84.280  24.355  0.00  0.00    -0.270 OA
ATOM     37  C   LIG    1      -40.352  82.776  23.497  0.00  0.00    +0.048 C 
ATOM     38  C   LIG    1      -39.444  83.558  22.888  0.00  0.00    +0.039 C 
ATOM     39  C   LIG    1      -40.281  81.301  23.591  0.00  0.00    +0.008 A 
ATOM     40  C   LIG    1      -39.362  80.356  23.181  0.00  0.00    +0.012 A 
ATOM     41  C   LIG    1      -39.640  79.002  23.442  0.00  0.00    +0.024 A 
BRANCH  38  42
ATOM     42  C   LIG    1      -39.472  84.975  22.744  0.00  0.00    +0.040 A 
ATOM     43  N   LIG    1      -40.427  85.614  21.983  0.00  0.00    -0.361 N 
ATOM     44  H   LIG    1      -41.226  85.161  21.553  0.00  0.00    +0.165 HD
ATOM     45  C   LIG    1      -40.213  86.965  21.980  0.00  0.00    +0.083 A 
ATOM     46  C   LIG    1      -39.100  87.214  22.743  0.00  0.00    +0.019 A 
ATOM     47  C   LIG    1      -38.624  85.972  23.209  0.00  0.00    +0.027 A 
ENDBRANCH  38  42
ENDBRANCH  28  30
ENDBRANCH   3  28
TORSDOF 7
ENDMDL
MODEL 7
REMARK VINA RESULT:      -7.4      3.121      4.422
REMARK  Name = pdb/CHEMBL2037211.pdb
REMARK                            x       y       z     vdW  Elec       q    Type
REMARK                         _______ _______ _______ _____ _____    ______ ____
ROOT
ATOM      1  C   LIG    1      -37.849  72.535  25.325  0.00  0.00    +0.035 A 
ATOM      2  C   LIG    1      -37.996  71.255  24.762  0.00  0.00    +0.046 A 
ATOM      3  C   LIG    1      -39.128  70.919  23.994  0.00  0.00    +0.033 A 
ATOM      4  C   LIG    1      -40.120  71.887  23.816  0.00  0.00    +0.023 A 
ATOM      5  C   LIG    1      -39.992  73.152  24.386  0.00  0.00    +0.004 A 
ATOM      6  C   LIG    1      -38.858  73.472  25.121  0.00  0.00    +0.023 A 
ENDROOT
BRANCH   1   8
ATOM      7  C   LIG    1      -36.488  72.532  27.419  0.00  0.00    +0.248 C 
ATOM      8  N   LIG    1      -36.682  72.818  26.071  0.00  0.00    -0.281 N 
ATOM      9  H   LIG    1      -35.924  73.237  25.551  0.00  0.00    +0.155 HD
ATOM     10  O   LIG    1      -37.286  71.961  28.155  0.00  0.00    -0.270 OA
BRANCH   7  15
ATOM     11  C   LIG    1      -33.771  74.770  28.921  0.00  0.00    +0.031 A 
ATOM     12  C   LIG    1      -32.877  73.763  29.328  0.00  0.00    +0.035 A 
ATOM     13  C   LIG    1      -33.087  72.394  29.062  0.00  0.00    +0.057 A 
ATOM     14  C   LIG    1      -34.250  72.009  28.391  0.00  0.00    +0.025 A 
ATOM     15  C   LIG    1      -35.191  72.973  28.016  0.00  0.00    +0.039 A 
ATOM     16  C   LIG    1      -34.943  74.327  28.291  0.00  0.00    +0.036 A 
BRANCH  11  21
ATOM     17  C   LIG    1      -33.525  79.518  27.592  0.00  0.00    +0.105 C 
ATOM     18  N   LIG    1      -33.828  78.185  27.073  0.00  0.00    -0.302 NA
ATOM     19  C   LIG    1      -34.985  77.582  27.776  0.00  0.00    +0.103 C 
ATOM     20  C   LIG    1      -34.684  77.083  29.212  0.00  0.00    +0.120 C 
ATOM     21  N   LIG    1      -33.549  76.124  29.205  0.00  0.00    -0.327 N 
ATOM     22  C   LIG    1      -32.348  76.776  28.621  0.00  0.00    +0.120 C 
ATOM     23  C   LIG    1      -32.651  77.283  27.189  0.00  0.00    +0.103 C 
ENDBRANCH  11  21
BRANCH  13  24
ATOM     24  C   LIG    1      -32.070  71.381  29.524  0.00  0.00    +0.417 C 
ATOM     25  F   LIG    1      -32.183  70.186  28.887  0.00  0.00    -0.166 F 
ATOM     26  F   LIG    1      -32.194  71.103  30.858  0.00  0.00    -0.166 F 
ATOM     27  F   LIG    1      -30.777  71.778  29.352  0.00  0.00    -0.166 F 
ENDBRANCH  13  24
ENDBRANCH   7  15
ENDBRANCH   1   8
BRANCH   3  28
ATOM     28  N   LIG    1      -39.225  69.641  23.410  0.00  0.00    -0.314 N 
ATOM     29  H   LIG    1      -39.849  69.011  23.903  0.00  0.00    +0.152 HD
BRANCH  28  30
ATOM     30  C   LIG    1      -38.391  68.963  22.495  0.00  0.00    +0.033 A 
ATOM     31  C   LIG    1      -38.607  68.963  21.113  0.00  0.00    +0.047 A 
ATOM     32  C   LIG    1      -37.703  68.280  20.311  0.00  0.00    +0.043 A 
ATOM     33  N   LIG    1      -37.717  68.218  18.923  0.00  0.00    -0.281 N 
ATOM     34  H   LIG    1      -38.385  68.670  18.317  0.00  0.00    +0.155 HD
ATOM     35  C   LIG    1      -36.687  67.434  18.435  0.00  0.00    +0.249 C 
ATOM     36  O   LIG    1      -36.488  67.179  17.263  0.00  0.00    -0.270 OA
ATOM     37  C   LIG    1      -35.936  66.946  19.653  0.00  0.00    +0.048 C 
ATOM     38  C   LIG    1      -34.873  66.125  19.720  0.00  0.00    +0.039 C 
ATOM     39  C   LIG    1      -36.620  67.551  20.817  0.00  0.00    +0.008 A 
ATOM     40  C   LIG    1      -36.404  67.521  22.180  0.00  0.00    +0.012 A 
ATOM     41  C   LIG    1      -37.291  68.232  23.009  0.00  0.00    +0.024 A 
BRANCH  38  42
ATOM     42  C   LIG    1      -34.191  65.494  18.640  0.00  0.00    +0.040 A 
ATOM     43  N   LIG    1      -33.469  66.212  17.711  0.00  0.00    -0.361 N 
ATOM     44  H   LIG    1      -33.280  67.207  17.764  0.00  0.00    +0.165 HD
ATOM     45  C   LIG    1      -32.944  65.378  16.763  0.00  0.00    +0.083 A 
ATOM     46  C   LIG    1      -33.332  64.097  17.070  0.00  0.00    +0.019 A 
ATOM     47  C   LIG    1      -34.125  64.168  18.233  0.00  0.00    +0.027 A 
ENDBRANCH  38  42
ENDBRANCH  28  30
ENDBRANCH   3  28
TORSDOF 7
ENDMDL
MODEL 8
REMARK VINA RESULT:      -7.3      1.728      2.099
REMARK  Name = pdb/CHEMBL2037211.pdb
REMARK                            x       y       z     vdW  Elec       q    Type
REMARK                         _______ _______ _______ _____ _____    ______ ____
ROOT
ATOM      1  C   LIG    1      -38.413  73.625  25.018  0.00  0.00    +0.035 A 
ATOM      2  C   LIG    1      -38.530  72.269  24.663  0.00  0.00    +0.046 A 
ATOM      3  C   LIG    1      -39.645  71.794  23.944  0.00  0.00    +0.033 A 
ATOM      4  C   LIG    1      -40.649  72.704  23.600  0.00  0.00    +0.023 A 
ATOM      5  C   LIG    1      -40.551  74.045  23.964  0.00  0.00    +0.004 A 
ATOM      6  C   LIG    1      -39.434  74.499  24.654  0.00  0.00    +0.023 A 
ENDROOT
BRANCH   1   8
ATOM      7  C   LIG    1      -37.107  74.030  27.107  0.00  0.00    +0.248 C 
ATOM      8  N   LIG    1      -37.263  74.044  25.725  0.00  0.00    -0.281 N 
ATOM      9  H   LIG    1      -36.487  74.347  25.153  0.00  0.00    +0.155 HD
ATOM     10  O   LIG    1      -37.929  73.621  27.920  0.00  0.00    -0.270 OA
BRANCH   7  15
ATOM     11  C   LIG    1      -33.568  74.187  28.557  0.00  0.00    +0.031 A 
ATOM     12  C   LIG    1      -33.352  75.571  28.420  0.00  0.00    +0.035 A 
ATOM     13  C   LIG    1      -34.339  76.462  27.950  0.00  0.00    +0.057 A 
ATOM     14  C   LIG    1      -35.582  75.951  27.571  0.00  0.00    +0.025 A 
ATOM     15  C   LIG    1      -35.821  74.574  27.640  0.00  0.00    +0.039 A 
ATOM     16  C   LIG    1      -34.817  73.719  28.121  0.00  0.00    +0.036 A 
BRANCH  11  21
ATOM     17  C   LIG    1      -31.122  71.881  32.171  0.00  0.00    +0.105 C 
ATOM     18  N   LIG    1      -32.236  72.796  31.929  0.00  0.00    -0.302 NA
ATOM     19  C   LIG    1      -33.290  72.156  31.104  0.00  0.00    +0.103 C 
ATOM     20  C   LIG    1      -32.935  72.003  29.604  0.00  0.00    +0.120 C 
ATOM     21  N   LIG    1      -32.570  73.317  29.016  0.00  0.00    -0.327 N 
ATOM     22  C   LIG    1      -31.422  73.897  29.761  0.00  0.00    +0.120 C 
ATOM     23  C   LIG    1      -31.774  74.042  31.263  0.00  0.00    +0.103 C 
ENDBRANCH  11  21
BRANCH  13  24
ATOM     24  C   LIG    1      -34.026  77.933  27.847  0.00  0.00    +0.417 C 
ATOM     25  F   LIG    1      -35.135  78.702  27.688  0.00  0.00    -0.166 F 
ATOM     26  F   LIG    1      -33.224  78.211  26.773  0.00  0.00    -0.166 F 
ATOM     27  F   LIG    1      -33.371  78.436  28.932  0.00  0.00    -0.166 F 
ENDBRANCH  13  24
ENDBRANCH   7  15
ENDBRANCH   1   8
BRANCH   3  28
ATOM     28  N   LIG    1      -39.711  70.439  23.569  0.00  0.00    -0.314 N 
ATOM     29  H   LIG    1      -40.392  69.901  24.094  0.00  0.00    +0.152 HD
BRANCH  28  30
ATOM     30  C   LIG    1      -38.807  69.616  22.862  0.00  0.00    +0.033 A 
ATOM     31  C   LIG    1      -38.838  69.459  21.472  0.00  0.00    +0.047 A 
ATOM     32  C   LIG    1      -37.880  68.642  20.887  0.00  0.00    +0.043 A 
ATOM     33  N   LIG    1      -37.714  68.413  19.526  0.00  0.00    -0.281 N 
ATOM     34  H   LIG    1      -38.265  68.819  18.786  0.00  0.00    +0.155 HD
ATOM     35  C   LIG    1      -36.680  67.528  19.278  0.00  0.00    +0.249 C 
ATOM     36  O   LIG    1      -36.344  67.123  18.183  0.00  0.00    -0.270 OA
ATOM     37  C   LIG    1      -36.129  67.156  20.637  0.00  0.00    +0.048 C 
ATOM     38  C   LIG    1      -35.139  66.300  20.944  0.00  0.00    +0.039 C 
ATOM     39  C   LIG    1      -36.922  67.929  21.618  0.00  0.00    +0.008 A 
ATOM     40  C   LIG    1      -36.892  68.054  22.992  0.00  0.00    +0.012 A 
ATOM     41  C   LIG    1      -37.834  68.902  23.603  0.00  0.00    +0.024 A 
BRANCH  38  42
ATOM     42  C   LIG    1      -34.361  65.511  20.048  0.00  0.00    +0.040 A 
ATOM     43  N   LIG    1      -34.915  64.497  19.297  0.00  0.00    -0.361 N 
ATOM     44  H   LIG    1      -35.906  64.291  19.239  0.00  0.00    +0.165 HD
ATOM     45  C   LIG    1      -33.954  63.875  18.549  0.00  0.00    +0.083 A 
ATOM     46  C   LIG    1      -32.753  64.484  18.817  0.00  0.00    +0.019 A 
ATOM     47  C   LIG    1      -33.001  65.497  19.766  0.00  0.00    +0.027 A 
ENDBRANCH  38  42
ENDBRANCH  28  30
ENDBRANCH   3  28
TORSDOF 7
ENDMDL
MODEL 9
REMARK VINA RESULT:      -7.3      5.428     10.796
REMARK  Name = pdb/CHEMBL2037211.pdb
REMARK                            x       y       z     vdW  Elec       q    Type
REMARK                         _______ _______ _______ _____ _____    ______ ____
ROOT
ATOM      1  C   LIG    1      -38.169  75.837  25.070  0.00  0.00    +0.035 A 
ATOM      2  C   LIG    1      -38.760  77.061  24.710  0.00  0.00    +0.046 A 
ATOM      3  C   LIG    1      -40.012  77.108  24.065  0.00  0.00    +0.033 A 
ATOM      4  C   LIG    1      -40.653  75.901  23.773  0.00  0.00    +0.023 A 
ATOM      5  C   LIG    1      -40.066  74.683  24.109  0.00  0.00    +0.004 A 
ATOM      6  C   LIG    1      -38.842  74.658  24.765  0.00  0.00    +0.023 A 
ENDROOT
BRANCH   1   8
ATOM      7  C   LIG    1      -36.708  75.607  27.083  0.00  0.00    +0.248 C 
ATOM      8  N   LIG    1      -36.919  75.857  25.731  0.00  0.00    -0.281 N 
ATOM      9  H   LIG    1      -36.119  76.041  25.142  0.00  0.00    +0.155 HD
ATOM     10  O   LIG    1      -37.570  75.298  27.900  0.00  0.00    -0.270 OA
BRANCH   7  15
ATOM     11  C   LIG    1      -33.323  74.735  28.641  0.00  0.00    +0.031 A 
ATOM     12  C   LIG    1      -32.629  75.907  28.292  0.00  0.00    +0.035 A 
ATOM     13  C   LIG    1      -33.240  76.999  27.641  0.00  0.00    +0.057 A 
ATOM     14  C   LIG    1      -34.589  76.908  27.296  0.00  0.00    +0.025 A 
ATOM     15  C   LIG    1      -35.304  75.739  27.577  0.00  0.00    +0.039 A 
ATOM     16  C   LIG    1      -34.665  74.676  28.233  0.00  0.00    +0.036 A 
BRANCH  11  21
ATOM     17  C   LIG    1      -31.806  72.344  32.684  0.00  0.00    +0.105 C 
ATOM     18  N   LIG    1      -32.523  73.541  32.249  0.00  0.00    -0.302 NA
ATOM     19  C   LIG    1      -33.749  73.190  31.492  0.00  0.00    +0.103 C 
ATOM     20  C   LIG    1      -33.497  72.674  30.052  0.00  0.00    +0.120 C 
ATOM     21  N   LIG    1      -32.695  73.656  29.278  0.00  0.00    -0.327 N 
ATOM     22  C   LIG    1      -31.404  73.906  29.971  0.00  0.00    +0.120 C 
ATOM     23  C   LIG    1      -31.656  74.413  31.413  0.00  0.00    +0.103 C 
ENDBRANCH  11  21
BRANCH  13  24
ATOM     24  C   LIG    1      -32.423  78.224  27.315  0.00  0.00    +0.417 C 
ATOM     25  F   LIG    1      -31.423  78.449  28.208  0.00  0.00    -0.166 F 
ATOM     26  F   LIG    1      -33.184  79.362  27.317  0.00  0.00    -0.166 F 
ATOM     27  F   LIG    1      -31.831  78.183  26.088  0.00  0.00    -0.166 F 
ENDBRANCH  13  24
ENDBRANCH   7  15
ENDBRANCH   1   8
BRANCH   3  28
ATOM     28  N   LIG    1      -40.595  78.352  23.754  0.00  0.00    -0.314 N 
ATOM     29  H   LIG    1      -41.269  78.311  22.997  0.00  0.00    +0.152 HD
BRANCH  28  30
ATOM     30  C   LIG    1      -40.193  79.674  24.045  0.00  0.00    +0.033 A 
ATOM     31  C   LIG    1      -39.728  80.566  23.074  0.00  0.00    +0.047 A 
ATOM     32  C   LIG    1      -39.386  81.849  23.477  0.00  0.00    +0.043 A 
ATOM     33  N   LIG    1      -38.964  82.886  22.653  0.00  0.00    -0.281 N 
ATOM     34  H   LIG    1      -38.859  82.841  21.652  0.00  0.00    +0.155 HD
ATOM     35  C   LIG    1      -38.681  84.032  23.376  0.00  0.00    +0.249 C 
ATOM     36  O   LIG    1      -38.257  85.073  22.913  0.00  0.00    -0.270 OA
ATOM     37  C   LIG    1      -38.955  83.678  24.821  0.00  0.00    +0.048 C 
ATOM     38  C   LIG    1      -38.803  84.436  25.922  0.00  0.00    +0.039 C 
ATOM     39  C   LIG    1      -39.433  82.279  24.809  0.00  0.00    +0.008 A 
ATOM     40  C   LIG    1      -39.869  81.404  25.784  0.00  0.00    +0.012 A 
ATOM     41  C   LIG    1      -40.250  80.108  25.392  0.00  0.00    +0.024 A 
BRANCH  38  42
ATOM     42  C   LIG    1      -38.324  85.775  25.997  0.00  0.00    +0.040 A 
ATOM     43  N   LIG    1      -39.041  86.838  25.494  0.00  0.00    -0.361 N 
ATOM     44  H   LIG    1      -39.985  86.781  25.127  0.00  0.00    +0.165 HD
ATOM     45  C   LIG    1      -38.349  88.006  25.661  0.00  0.00    +0.083 A 
ATOM     46  C   LIG    1      -37.160  87.704  26.275  0.00  0.00    +0.019 A 
ATOM     47  C   LIG    1      -37.132  86.309  26.472  0.00  0.00    +0.027 A 
ENDBRANCH  38  42
ENDBRANCH  28  30
ENDBRANCH   3  28
TORSDOF 7
ENDMDL
