MODEL 1
REMARK VINA RESULT:      -6.7      0.000      0.000
REMARK  Name = pdb/CHEMBL3971434.pdb
REMARK                            x       y       z     vdW  Elec       q    Type
REMARK                         _______ _______ _______ _____ _____    ______ ____
ROOT
ATOM      1  C   LIG    1      -36.636  67.042  19.753  0.00  0.00    +0.323 A 
ATOM      2  N   LIG    1      -36.925  66.367  20.884  0.00  0.00    -0.201 NA
ATOM      3  C   LIG    1      -37.655  67.036  21.811  0.00  0.00    +0.145 A 
ATOM      4  C   LIG    1      -38.077  68.346  21.690  0.00  0.00    +0.105 A 
ATOM      5  C   LIG    1      -37.734  68.901  20.461  0.00  0.00    +0.145 A 
ATOM      6  N   LIG    1      -37.008  68.300  19.494  0.00  0.00    -0.201 NA
ENDROOT
BRANCH   4   7
ATOM      7  N   LIG    1      -38.831  68.977  22.708  0.00  0.00    -0.196 NA
ATOM      8  C   LIG    1      -38.241  69.789  23.541  0.00  0.00    +0.285 C 
BRANCH   8   9
ATOM      9  N   LIG    1      -38.873  70.533  24.495  0.00  0.00    -0.268 N 
ATOM     10  H   LIG    1      -39.210  70.013  25.300  0.00  0.00    +0.157 HD
BRANCH   9  11
ATOM     11  C   LIG    1      -39.153  71.920  24.514  0.00  0.00    +0.053 A 
ATOM     12  C   LIG    1      -40.300  72.445  23.888  0.00  0.00    +0.063 A 
ATOM     13 CL   LIG    1      -41.478  71.400  23.174  0.00  0.00    -0.082 Cl
ATOM     14  C   LIG    1      -40.504  73.830  23.788  0.00  0.00    +0.034 A 
ATOM     15  C   LIG    1      -39.546  74.731  24.278  0.00  0.00    +0.056 A 
ATOM     16  C   LIG    1      -38.400  74.219  24.892  0.00  0.00    +0.014 A 
ATOM     17  C   LIG    1      -38.228  72.841  25.033  0.00  0.00    +0.025 A 
BRANCH  15  18
ATOM     18  C   LIG    1      -39.759  76.223  24.159  0.00  0.00    +0.417 C 
ATOM     19  F   LIG    1      -38.605  76.889  23.890  0.00  0.00    -0.166 F 
ATOM     20  F   LIG    1      -40.256  76.771  25.300  0.00  0.00    -0.166 F 
ATOM     21  F   LIG    1      -40.630  76.565  23.169  0.00  0.00    -0.166 F 
ENDBRANCH  15  18
ENDBRANCH   9  11
ENDBRANCH   8   9
BRANCH   8  22
ATOM     22  O   LIG    1      -36.918  69.997  23.446  0.00  0.00    -0.481 OA
ATOM     23  H   LIG    1      -36.520  70.105  24.326  0.00  0.00    +0.295 HD
ENDBRANCH   8  22
ENDBRANCH   4   7
BRANCH   1  24
ATOM     24  O   LIG    1      -35.876  66.440  18.760  0.00  0.00    -0.424 OA
BRANCH  24  28
ATOM     25  C   LIG    1      -31.814  67.572  18.595  0.00  0.00    -0.014 A 
ATOM     26  C   LIG    1      -32.675  67.809  17.506  0.00  0.00    +0.012 A 
ATOM     27  C   LIG    1      -34.028  67.464  17.542  0.00  0.00    +0.047 A 
ATOM     28  C   LIG    1      -34.556  66.804  18.648  0.00  0.00    +0.132 A 
ATOM     29  C   LIG    1      -33.736  66.559  19.746  0.00  0.00    +0.047 A 
ATOM     30  C   LIG    1      -32.386  66.946  19.719  0.00  0.00    +0.012 A 
BRANCH  25  32
ATOM     31  C   LIG    1      -29.961  69.354  18.508  0.00  0.00    +0.124 A 
ATOM     32  C   LIG    1      -30.390  68.013  18.545  0.00  0.00    +0.023 A 
ATOM     33  C   LIG    1      -29.358  67.047  18.535  0.00  0.00    +0.033 A 
ATOM     34  C   LIG    1      -28.021  67.421  18.500  0.00  0.00    +0.060 A 
ATOM     35 CL   LIG    1      -26.773  66.240  18.529  0.00  0.00    -0.082 Cl
ATOM     36  C   LIG    1      -27.727  68.767  18.447  0.00  0.00    +0.133 A 
ATOM     37  N   LIG    1      -28.667  69.733  18.444  0.00  0.00    -0.239 NA
BRANCH  31  38
ATOM     38  N   LIG    1      -30.825  70.444  18.559  0.00  0.00    -0.343 N 
ATOM     39  H   LIG    1      -30.528  71.094  19.279  0.00  0.00    +0.144 HD
ATOM     40  H   LIG    1      -30.772  70.867  17.634  0.00  0.00    +0.144 HD
ENDBRANCH  31  38
ENDBRANCH  25  32
ENDBRANCH  24  28
ENDBRANCH   1  24
TORSDOF 9
ENDMDL
MODEL 2
REMARK VINA RESULT:      -6.6      1.263      1.801
REMARK  Name = pdb/CHEMBL3971434.pdb
REMARK                            x       y       z     vdW  Elec       q    Type
REMARK                         _______ _______ _______ _____ _____    ______ ____
ROOT
ATOM      1  C   LIG    1      -36.719  67.034  20.041  0.00  0.00    +0.323 A 
ATOM      2  N   LIG    1      -36.990  66.429  21.215  0.00  0.00    -0.201 NA
ATOM      3  C   LIG    1      -37.737  67.139  22.096  0.00  0.00    +0.145 A 
ATOM      4  C   LIG    1      -38.194  68.428  21.888  0.00  0.00    +0.105 A 
ATOM      5  C   LIG    1      -37.865  68.907  20.624  0.00  0.00    +0.145 A 
ATOM      6  N   LIG    1      -37.124  68.261  19.698  0.00  0.00    -0.201 NA
ENDROOT
BRANCH   4   7
ATOM      7  N   LIG    1      -38.963  69.106  22.863  0.00  0.00    -0.196 NA
ATOM      8  C   LIG    1      -38.387  69.958  23.664  0.00  0.00    +0.285 C 
BRANCH   8   9
ATOM      9  N   LIG    1      -39.035  70.746  24.571  0.00  0.00    -0.268 N 
ATOM     10  H   LIG    1      -39.499  70.251  25.327  0.00  0.00    +0.157 HD
BRANCH   9  11
ATOM     11  C   LIG    1      -39.178  72.154  24.598  0.00  0.00    +0.053 A 
ATOM     12  C   LIG    1      -40.263  72.792  23.965  0.00  0.00    +0.063 A 
ATOM     13 CL   LIG    1      -41.529  71.872  23.231  0.00  0.00    -0.082 Cl
ATOM     14  C   LIG    1      -40.330  74.192  23.874  0.00  0.00    +0.034 A 
ATOM     15  C   LIG    1      -39.294  74.992  24.380  0.00  0.00    +0.056 A 
ATOM     16  C   LIG    1      -38.210  74.366  25.000  0.00  0.00    +0.014 A 
ATOM     17  C   LIG    1      -38.173  72.977  25.133  0.00  0.00    +0.025 A 
BRANCH  15  18
ATOM     18  C   LIG    1      -39.359  76.498  24.270  0.00  0.00    +0.417 C 
ATOM     19  F   LIG    1      -39.975  77.066  25.340  0.00  0.00    -0.166 F 
ATOM     20  F   LIG    1      -40.047  76.911  23.172  0.00  0.00    -0.166 F 
ATOM     21  F   LIG    1      -38.133  77.085  24.187  0.00  0.00    -0.166 F 
ENDBRANCH  15  18
ENDBRANCH   9  11
ENDBRANCH   8   9
BRANCH   8  22
ATOM     22  O   LIG    1      -37.063  70.164  23.578  0.00  0.00    -0.481 OA
ATOM     23  H   LIG    1      -36.865  71.112  23.503  0.00  0.00    +0.295 HD
ENDBRANCH   8  22
ENDBRANCH   4   7
BRANCH   1  24
ATOM     24  O   LIG    1      -35.944  66.386  19.090  0.00  0.00    -0.424 OA
BRANCH  24  28
ATOM     25  C   LIG    1      -31.911  67.507  18.553  0.00  0.00    -0.014 A 
ATOM     26  C   LIG    1      -32.331  66.869  19.735  0.00  0.00    +0.012 A 
ATOM     27  C   LIG    1      -33.655  66.468  19.929  0.00  0.00    +0.047 A 
ATOM     28  C   LIG    1      -34.625  66.754  18.973  0.00  0.00    +0.132 A 
ATOM     29  C   LIG    1      -34.244  67.378  17.788  0.00  0.00    +0.047 A 
ATOM     30  C   LIG    1      -32.903  67.742  17.581  0.00  0.00    +0.012 A 
BRANCH  25  32
ATOM     31  C   LIG    1      -29.465  66.957  17.979  0.00  0.00    +0.124 A 
ATOM     32  C   LIG    1      -30.476  67.863  18.352  0.00  0.00    +0.023 A 
ATOM     33  C   LIG    1      -30.054  69.199  18.538  0.00  0.00    +0.033 A 
ATOM     34  C   LIG    1      -28.728  69.569  18.349  0.00  0.00    +0.060 A 
ATOM     35 CL   LIG    1      -28.232  71.204  18.537  0.00  0.00    -0.082 Cl
ATOM     36  C   LIG    1      -27.826  68.587  18.002  0.00  0.00    +0.133 A 
ATOM     37  N   LIG    1      -28.167  67.295  17.821  0.00  0.00    -0.239 NA
BRANCH  31  38
ATOM     38  N   LIG    1      -29.693  65.612  17.706  0.00  0.00    -0.343 N 
ATOM     39  H   LIG    1      -29.786  65.467  16.707  0.00  0.00    +0.144 HD
ATOM     40  H   LIG    1      -28.879  65.124  18.077  0.00  0.00    +0.144 HD
ENDBRANCH  31  38
ENDBRANCH  25  32
ENDBRANCH  24  28
ENDBRANCH   1  24
TORSDOF 9
ENDMDL
MODEL 3
REMARK VINA RESULT:      -6.3     10.386     15.197
REMARK  Name = pdb/CHEMBL3971434.pdb
REMARK                            x       y       z     vdW  Elec       q    Type
REMARK                         _______ _______ _______ _____ _____    ______ ____
ROOT
ATOM      1  C   LIG    1      -38.957  81.902  25.294  0.00  0.00    +0.323 A 
ATOM      2  N   LIG    1      -38.610  82.797  24.348  0.00  0.00    -0.201 NA
ATOM      3  C   LIG    1      -37.489  83.520  24.589  0.00  0.00    +0.145 A 
ATOM      4  C   LIG    1      -36.720  83.428  25.734  0.00  0.00    +0.105 A 
ATOM      5  C   LIG    1      -37.180  82.443  26.602  0.00  0.00    +0.145 A 
ATOM      6  N   LIG    1      -38.287  81.688  26.432  0.00  0.00    -0.201 NA
ENDROOT
BRANCH   4   7
ATOM      7  N   LIG    1      -35.565  84.225  25.914  0.00  0.00    -0.196 NA
ATOM      8  C   LIG    1      -35.581  85.200  26.780  0.00  0.00    +0.285 C 
BRANCH   8   9
ATOM      9  N   LIG    1      -34.505  85.969  27.117  0.00  0.00    -0.268 N 
ATOM     10  H   LIG    1      -34.092  86.501  26.355  0.00  0.00    +0.157 HD
BRANCH   9  11
ATOM     11  C   LIG    1      -33.860  86.115  28.369  0.00  0.00    +0.053 A 
ATOM     12  C   LIG    1      -33.587  87.387  28.909  0.00  0.00    +0.063 A 
ATOM     13 CL   LIG    1      -34.136  88.823  28.119  0.00  0.00    -0.082 Cl
ATOM     14  C   LIG    1      -32.827  87.531  30.080  0.00  0.00    +0.034 A 
ATOM     15  C   LIG    1      -32.285  86.407  30.724  0.00  0.00    +0.056 A 
ATOM     16  C   LIG    1      -32.543  85.143  30.189  0.00  0.00    +0.014 A 
ATOM     17  C   LIG    1      -33.343  85.003  29.053  0.00  0.00    +0.025 A 
BRANCH  15  18
ATOM     18  C   LIG    1      -31.455  86.563  31.977  0.00  0.00    +0.417 C 
ATOM     19  F   LIG    1      -32.128  87.214  32.963  0.00  0.00    -0.166 F 
ATOM     20  F   LIG    1      -30.315  87.272  31.763  0.00  0.00    -0.166 F 
ATOM     21  F   LIG    1      -31.062  85.374  32.513  0.00  0.00    -0.166 F 
ENDBRANCH  15  18
ENDBRANCH   9  11
ENDBRANCH   8   9
BRANCH   8  22
ATOM     22  O   LIG    1      -36.701  85.460  27.471  0.00  0.00    -0.481 OA
ATOM     23  H   LIG    1      -37.114  86.284  27.164  0.00  0.00    +0.295 HD
ENDBRANCH   8  22
ENDBRANCH   4   7
BRANCH   1  24
ATOM     24  O   LIG    1      -40.103  81.134  25.137  0.00  0.00    -0.424 OA
BRANCH  24  28
ATOM     25  C   LIG    1      -39.624  76.961  24.729  0.00  0.00    -0.014 A 
ATOM     26  C   LIG    1      -39.271  77.833  23.683  0.00  0.00    +0.012 A 
ATOM     27  C   LIG    1      -39.399  79.219  23.799  0.00  0.00    +0.047 A 
ATOM     28  C   LIG    1      -39.952  79.782  24.946  0.00  0.00    +0.132 A 
ATOM     29  C   LIG    1      -40.307  78.949  26.004  0.00  0.00    +0.047 A 
ATOM     30  C   LIG    1      -40.137  77.559  25.897  0.00  0.00    +0.012 A 
BRANCH  25  32
ATOM     31  C   LIG    1      -38.257  74.800  25.006  0.00  0.00    +0.124 A 
ATOM     32  C   LIG    1      -39.413  75.490  24.594  0.00  0.00    +0.023 A 
ATOM     33  C   LIG    1      -40.424  74.688  24.017  0.00  0.00    +0.033 A 
ATOM     34  C   LIG    1      -40.267  73.314  23.886  0.00  0.00    +0.060 A 
ATOM     35 CL   LIG    1      -41.518  72.342  23.220  0.00  0.00    -0.082 Cl
ATOM     36  C   LIG    1      -39.080  72.756  24.309  0.00  0.00    +0.133 A 
ATOM     37  N   LIG    1      -38.077  73.470  24.857  0.00  0.00    -0.239 NA
BRANCH  31  38
ATOM     38  N   LIG    1      -37.176  75.408  25.636  0.00  0.00    -0.343 N 
ATOM     39  H   LIG    1      -36.621  74.716  26.127  0.00  0.00    +0.144 HD
ATOM     40  H   LIG    1      -36.643  75.846  24.887  0.00  0.00    +0.144 HD
ENDBRANCH  31  38
ENDBRANCH  25  32
ENDBRANCH  24  28
ENDBRANCH   1  24
TORSDOF 9
ENDMDL
MODEL 4
REMARK VINA RESULT:      -6.3     13.471     17.259
REMARK  Name = pdb/CHEMBL3971434.pdb
REMARK                            x       y       z     vdW  Elec       q    Type
REMARK                         _______ _______ _______ _____ _____    ______ ____
ROOT
ATOM      1  C   LIG    1      -32.859  76.482  30.442  0.00  0.00    +0.323 A 
ATOM      2  N   LIG    1      -32.586  76.419  31.761  0.00  0.00    -0.201 NA
ATOM      3  C   LIG    1      -31.323  76.057  32.094  0.00  0.00    +0.145 A 
ATOM      4  C   LIG    1      -30.333  75.718  31.191  0.00  0.00    +0.105 A 
ATOM      5  C   LIG    1      -30.750  75.861  29.872  0.00  0.00    +0.145 A 
ATOM      6  N   LIG    1      -31.988  76.212  29.464  0.00  0.00    -0.201 NA
ENDROOT
BRANCH   4   7
ATOM      7  N   LIG    1      -29.038  75.343  31.620  0.00  0.00    -0.196 NA
ATOM      8  C   LIG    1      -28.106  76.247  31.734  0.00  0.00    +0.285 C 
BRANCH   8   9
ATOM      9  N   LIG    1      -26.854  76.029  32.233  0.00  0.00    -0.268 N 
ATOM     10  H   LIG    1      -26.817  75.751  33.210  0.00  0.00    +0.157 HD
BRANCH   9  11
ATOM     11  C   LIG    1      -25.597  76.159  31.597  0.00  0.00    +0.053 A 
ATOM     12  C   LIG    1      -24.862  75.029  31.188  0.00  0.00    +0.063 A 
ATOM     13 CL   LIG    1      -25.522  73.439  31.338  0.00  0.00    -0.082 Cl
ATOM     14  C   LIG    1      -23.557  75.154  30.685  0.00  0.00    +0.034 A 
ATOM     15  C   LIG    1      -22.936  76.411  30.612  0.00  0.00    +0.056 A 
ATOM     16  C   LIG    1      -23.655  77.535  31.025  0.00  0.00    +0.014 A 
ATOM     17  C   LIG    1      -24.970  77.410  31.477  0.00  0.00    +0.025 A 
BRANCH  15  18
ATOM     18  C   LIG    1      -21.527  76.544  30.083  0.00  0.00    +0.417 C 
ATOM     19  F   LIG    1      -20.694  75.597  30.590  0.00  0.00    -0.166 F 
ATOM     20  F   LIG    1      -20.967  77.745  30.388  0.00  0.00    -0.166 F 
ATOM     21  F   LIG    1      -21.448  76.428  28.728  0.00  0.00    -0.166 F 
ENDBRANCH  15  18
ENDBRANCH   9  11
ENDBRANCH   8   9
BRANCH   8  22
ATOM     22  O   LIG    1      -28.372  77.524  31.414  0.00  0.00    -0.481 OA
ATOM     23  H   LIG    1      -27.610  77.937  30.975  0.00  0.00    +0.295 HD
ENDBRANCH   8  22
ENDBRANCH   4   7
BRANCH   1  24
ATOM     24  O   LIG    1      -34.134  76.825  30.013  0.00  0.00    -0.424 OA
BRANCH  24  28
ATOM     25  C   LIG    1      -34.840  80.917  29.257  0.00  0.00    -0.014 A 
ATOM     26  C   LIG    1      -35.228  80.331  30.477  0.00  0.00    +0.012 A 
ATOM     27  C   LIG    1      -34.987  78.984  30.761  0.00  0.00    +0.047 A 
ATOM     28  C   LIG    1      -34.408  78.155  29.805  0.00  0.00    +0.132 A 
ATOM     29  C   LIG    1      -34.006  78.702  28.589  0.00  0.00    +0.047 A 
ATOM     30  C   LIG    1      -34.213  80.066  28.325  0.00  0.00    +0.012 A 
BRANCH  25  32
ATOM     31  C   LIG    1      -35.957  82.908  28.074  0.00  0.00    +0.124 A 
ATOM     32  C   LIG    1      -35.055  82.372  29.013  0.00  0.00    +0.023 A 
ATOM     33  C   LIG    1      -34.321  83.323  29.758  0.00  0.00    +0.033 A 
ATOM     34  C   LIG    1      -34.503  84.687  29.566  0.00  0.00    +0.060 A 
ATOM     35 CL   LIG    1      -33.636  85.835  30.505  0.00  0.00    -0.082 Cl
ATOM     36  C   LIG    1      -35.404  85.089  28.603  0.00  0.00    +0.133 A 
ATOM     37  N   LIG    1      -36.124  84.230  27.855  0.00  0.00    -0.239 NA
BRANCH  31  38
ATOM     38  N   LIG    1      -36.800  82.135  27.282  0.00  0.00    -0.343 N 
ATOM     39  H   LIG    1      -36.323  81.851  26.434  0.00  0.00    +0.144 HD
ATOM     40  H   LIG    1      -37.041  81.330  27.858  0.00  0.00    +0.144 HD
ENDBRANCH  31  38
ENDBRANCH  25  32
ENDBRANCH  24  28
ENDBRANCH   1  24
TORSDOF 9
ENDMDL
MODEL 5
REMARK VINA RESULT:      -6.2     13.744     17.696
REMARK  Name = pdb/CHEMBL3971434.pdb
REMARK                            x       y       z     vdW  Elec       q    Type
REMARK                         _______ _______ _______ _____ _____    ______ ____
ROOT
ATOM      1  C   LIG    1      -28.814  75.039  32.293  0.00  0.00    +0.323 A 
ATOM      2  N   LIG    1      -27.745  74.242  32.095  0.00  0.00    -0.201 NA
ATOM      3  C   LIG    1      -26.541  74.861  32.025  0.00  0.00    +0.145 A 
ATOM      4  C   LIG    1      -26.348  76.227  32.104  0.00  0.00    +0.105 A 
ATOM      5  C   LIG    1      -27.534  76.916  32.341  0.00  0.00    +0.145 A 
ATOM      6  N   LIG    1      -28.767  76.370  32.418  0.00  0.00    -0.201 NA
ENDROOT
BRANCH   4   7
ATOM      7  N   LIG    1      -25.056  76.798  32.014  0.00  0.00    -0.196 NA
ATOM      8  C   LIG    1      -24.676  77.367  30.905  0.00  0.00    +0.285 C 
BRANCH   8   9
ATOM      9  N   LIG    1      -23.501  78.039  30.729  0.00  0.00    -0.268 N 
ATOM     10  H   LIG    1      -23.589  79.043  30.597  0.00  0.00    +0.157 HD
BRANCH   9  11
ATOM     11  C   LIG    1      -22.178  77.540  30.675  0.00  0.00    +0.053 A 
ATOM     12  C   LIG    1      -21.321  77.616  31.790  0.00  0.00    +0.063 A 
ATOM     13 CL   LIG    1      -21.890  78.214  33.309  0.00  0.00    -0.082 Cl
ATOM     14  C   LIG    1      -19.969  77.248  31.694  0.00  0.00    +0.034 A 
ATOM     15  C   LIG    1      -19.428  76.829  30.469  0.00  0.00    +0.056 A 
ATOM     16  C   LIG    1      -20.269  76.760  29.356  0.00  0.00    +0.014 A 
ATOM     17  C   LIG    1      -21.624  77.079  29.470  0.00  0.00    +0.025 A 
BRANCH  15  18
ATOM     18  C   LIG    1      -17.970  76.445  30.362  0.00  0.00    +0.417 C 
ATOM     19  F   LIG    1      -17.728  75.199  30.848  0.00  0.00    -0.166 F 
ATOM     20  F   LIG    1      -17.157  77.288  31.054  0.00  0.00    -0.166 F 
ATOM     21  F   LIG    1      -17.506  76.445  29.081  0.00  0.00    -0.166 F 
ENDBRANCH  15  18
ENDBRANCH   9  11
ENDBRANCH   8   9
BRANCH   8  22
ATOM     22  O   LIG    1      -25.500  77.380  29.845  0.00  0.00    -0.481 OA
ATOM     23  H   LIG    1      -25.336  76.615  29.270  0.00  0.00    +0.295 HD
ENDBRANCH   8  22
ENDBRANCH   4   7
BRANCH   1  24
ATOM     24  O   LIG    1      -30.087  74.490  32.357  0.00  0.00    -0.424 OA
BRANCH  24  28
ATOM     25  C   LIG    1      -33.119  75.897  29.781  0.00  0.00    -0.014 A 
ATOM     26  C   LIG    1      -31.961  75.285  29.266  0.00  0.00    +0.012 A 
ATOM     27  C   LIG    1      -30.953  74.791  30.096  0.00  0.00    +0.047 A 
ATOM     28  C   LIG    1      -31.034  74.954  31.476  0.00  0.00    +0.132 A 
ATOM     29  C   LIG    1      -32.168  75.550  32.021  0.00  0.00    +0.047 A 
ATOM     30  C   LIG    1      -33.198  76.007  31.183  0.00  0.00    +0.012 A 
BRANCH  25  32
ATOM     31  C   LIG    1      -34.371  77.675  28.408  0.00  0.00    +0.124 A 
ATOM     32  C   LIG    1      -34.206  76.354  28.867  0.00  0.00    +0.023 A 
ATOM     33  C   LIG    1      -35.163  75.426  28.398  0.00  0.00    +0.033 A 
ATOM     34  C   LIG    1      -36.182  75.815  27.536  0.00  0.00    +0.060 A 
ATOM     35 CL   LIG    1      -37.317  74.670  26.940  0.00  0.00    -0.082 Cl
ATOM     36  C   LIG    1      -36.250  77.142  27.172  0.00  0.00    +0.133 A 
ATOM     37  N   LIG    1      -35.373  78.074  27.595  0.00  0.00    -0.239 NA
BRANCH  31  38
ATOM     38  N   LIG    1      -33.504  78.718  28.721  0.00  0.00    -0.343 N 
ATOM     39  H   LIG    1      -33.810  79.576  28.275  0.00  0.00    +0.144 HD
ATOM     40  H   LIG    1      -33.538  78.795  29.736  0.00  0.00    +0.144 HD
ENDBRANCH  31  38
ENDBRANCH  25  32
ENDBRANCH  24  28
ENDBRANCH   1  24
TORSDOF 9
ENDMDL
MODEL 6
REMARK VINA RESULT:      -6.2     16.053     19.486
REMARK  Name = pdb/CHEMBL3971434.pdb
REMARK                            x       y       z     vdW  Elec       q    Type
REMARK                         _______ _______ _______ _____ _____    ______ ____
ROOT
ATOM      1  C   LIG    1      -27.822  78.699  11.110  0.00  0.00    +0.323 A 
ATOM      2  N   LIG    1      -26.991  79.399  10.312  0.00  0.00    -0.201 NA
ATOM      3  C   LIG    1      -25.848  79.849  10.884  0.00  0.00    +0.145 A 
ATOM      4  C   LIG    1      -25.506  79.675  12.212  0.00  0.00    +0.105 A 
ATOM      5  C   LIG    1      -26.441  78.909  12.902  0.00  0.00    +0.145 A 
ATOM      6  N   LIG    1      -27.601  78.431  12.402  0.00  0.00    -0.201 NA
ENDROOT
BRANCH   4   7
ATOM      7  N   LIG    1      -24.294  80.183  12.737  0.00  0.00    -0.196 NA
ATOM      8  C   LIG    1      -24.276  81.360  13.297  0.00  0.00    +0.285 C 
BRANCH   8   9
ATOM      9  N   LIG    1      -23.199  81.913  13.928  0.00  0.00    -0.268 N 
ATOM     10  H   LIG    1      -22.473  81.258  14.207  0.00  0.00    +0.157 HD
BRANCH   9  11
ATOM     11  C   LIG    1      -22.956  83.263  14.276  0.00  0.00    +0.053 A 
ATOM     12  C   LIG    1      -22.598  84.217  13.303  0.00  0.00    +0.063 A 
ATOM     13 CL   LIG    1      -22.558  83.803  11.626  0.00  0.00    -0.082 Cl
ATOM     14  C   LIG    1      -22.223  85.521  13.668  0.00  0.00    +0.034 A 
ATOM     15  C   LIG    1      -22.159  85.895  15.019  0.00  0.00    +0.056 A 
ATOM     16  C   LIG    1      -22.504  84.951  15.990  0.00  0.00    +0.014 A 
ATOM     17  C   LIG    1      -22.924  83.673  15.619  0.00  0.00    +0.025 A 
BRANCH  15  18
ATOM     18  C   LIG    1      -21.744  87.294  15.412  0.00  0.00    +0.417 C 
ATOM     19  F   LIG    1      -20.630  87.706  14.751  0.00  0.00    -0.166 F 
ATOM     20  F   LIG    1      -21.459  87.400  16.738  0.00  0.00    -0.166 F 
ATOM     21  F   LIG    1      -22.699  88.231  15.158  0.00  0.00    -0.166 F 
ENDBRANCH  15  18
ENDBRANCH   9  11
ENDBRANCH   8   9
BRANCH   8  22
ATOM     22  O   LIG    1      -25.398  82.094  13.345  0.00  0.00    -0.481 OA
ATOM     23  H   LIG    1      -25.778  82.204  12.458  0.00  0.00    +0.295 HD
ENDBRANCH   8  22
ENDBRANCH   4   7
BRANCH   1  24
ATOM     24  O   LIG    1      -29.025  78.219  10.610  0.00  0.00    -0.424 OA
BRANCH  24  28
ATOM     25  C   LIG    1      -32.377  80.776  10.436  0.00  0.00    -0.014 A 
ATOM     26  C   LIG    1      -31.331  80.893   9.501  0.00  0.00    +0.012 A 
ATOM     27  C   LIG    1      -30.221  80.046   9.523  0.00  0.00    +0.047 A 
ATOM     28  C   LIG    1      -30.083  79.092  10.527  0.00  0.00    +0.132 A 
ATOM     29  C   LIG    1      -31.101  78.944  11.465  0.00  0.00    +0.047 A 
ATOM     30  C   LIG    1      -32.235  79.771  11.412  0.00  0.00    +0.012 A 
BRANCH  25  32
ATOM     31  C   LIG    1      -33.724  82.894  10.999  0.00  0.00    +0.124 A 
ATOM     32  C   LIG    1      -33.578  81.656  10.343  0.00  0.00    +0.023 A 
ATOM     33  C   LIG    1      -34.676  81.260   9.546  0.00  0.00    +0.033 A 
ATOM     34  C   LIG    1      -35.807  82.059   9.428  0.00  0.00    +0.060 A 
ATOM     35 CL   LIG    1      -37.120  81.588   8.424  0.00  0.00    -0.082 Cl
ATOM     36  C   LIG    1      -35.839  83.242  10.135  0.00  0.00    +0.133 A 
ATOM     37  N   LIG    1      -34.828  83.667  10.918  0.00  0.00    -0.239 NA
BRANCH  31  38
ATOM     38  N   LIG    1      -32.735  83.473  11.788  0.00  0.00    -0.343 N 
ATOM     39  H   LIG    1      -32.119  82.758  12.160  0.00  0.00    +0.144 HD
ATOM     40  H   LIG    1      -32.235  84.105  11.165  0.00  0.00    +0.144 HD
ENDBRANCH  31  38
ENDBRANCH  25  32
ENDBRANCH  24  28
ENDBRANCH   1  24
TORSDOF 9
ENDMDL
MODEL 7
REMARK VINA RESULT:      -6.2     19.708     22.301
REMARK  Name = pdb/CHEMBL3971434.pdb
REMARK                            x       y       z     vdW  Elec       q    Type
REMARK                         _______ _______ _______ _____ _____    ______ ____
ROOT
ATOM      1  C   LIG    1      -32.301  93.761  23.563  0.00  0.00    +0.323 A 
ATOM      2  N   LIG    1      -33.259  94.310  24.337  0.00  0.00    -0.201 NA
ATOM      3  C   LIG    1      -33.541  93.660  25.493  0.00  0.00    +0.145 A 
ATOM      4  C   LIG    1      -32.950  92.478  25.900  0.00  0.00    +0.105 A 
ATOM      5  C   LIG    1      -31.962  92.051  25.020  0.00  0.00    +0.145 A 
ATOM      6  N   LIG    1      -31.630  92.641  23.851  0.00  0.00    -0.201 NA
ENDROOT
BRANCH   4   7
ATOM      7  N   LIG    1      -33.305  91.857  27.121  0.00  0.00    -0.196 NA
ATOM      8  C   LIG    1      -34.133  90.850  27.117  0.00  0.00    +0.285 C 
BRANCH   8   9
ATOM      9  N   LIG    1      -34.471  90.105  28.210  0.00  0.00    -0.268 N 
ATOM     10  H   LIG    1      -35.215  90.490  28.787  0.00  0.00    +0.157 HD
BRANCH   9  11
ATOM     11  C   LIG    1      -33.918  88.889  28.675  0.00  0.00    +0.053 A 
ATOM     12  C   LIG    1      -34.565  87.657  28.454  0.00  0.00    +0.063 A 
ATOM     13 CL   LIG    1      -36.003  87.570  27.499  0.00  0.00    -0.082 Cl
ATOM     14  C   LIG    1      -34.088  86.471  29.033  0.00  0.00    +0.034 A 
ATOM     15  C   LIG    1      -32.971  86.489  29.883  0.00  0.00    +0.056 A 
ATOM     16  C   LIG    1      -32.329  87.708  30.116  0.00  0.00    +0.014 A 
ATOM     17  C   LIG    1      -32.778  88.876  29.496  0.00  0.00    +0.025 A 
BRANCH  15  18
ATOM     18  C   LIG    1      -32.465  85.214  30.518  0.00  0.00    +0.417 C 
ATOM     19  F   LIG    1      -32.700  85.176  31.856  0.00  0.00    -0.166 F 
ATOM     20  F   LIG    1      -31.124  85.052  30.363  0.00  0.00    -0.166 F 
ATOM     21  F   LIG    1      -33.040  84.092  30.003  0.00  0.00    -0.166 F 
ENDBRANCH  15  18
ENDBRANCH   9  11
ENDBRANCH   8   9
BRANCH   8  22
ATOM     22  O   LIG    1      -34.668  90.429  25.959  0.00  0.00    -0.481 OA
ATOM     23  H   LIG    1      -35.379  91.025  25.670  0.00  0.00    +0.295 HD
ENDBRANCH   8  22
ENDBRANCH   4   7
BRANCH   1  24
ATOM     24  O   LIG    1      -31.965  94.350  22.352  0.00  0.00    -0.424 OA
BRANCH  24  28
ATOM     25  C   LIG    1      -32.951  92.455  18.713  0.00  0.00    -0.014 A 
ATOM     26  C   LIG    1      -33.870  92.493  19.778  0.00  0.00    +0.012 A 
ATOM     27  C   LIG    1      -33.578  93.132  20.985  0.00  0.00    +0.047 A 
ATOM     28  C   LIG    1      -32.324  93.699  21.196  0.00  0.00    +0.132 A 
ATOM     29  C   LIG    1      -31.392  93.685  20.162  0.00  0.00    +0.047 A 
ATOM     30  C   LIG    1      -31.707  93.077  18.936  0.00  0.00    +0.012 A 
BRANCH  25  32
ATOM     31  C   LIG    1      -33.760  92.515  16.272  0.00  0.00    +0.124 A 
ATOM     32  C   LIG    1      -33.321  91.819  17.415  0.00  0.00    +0.023 A 
ATOM     33  C   LIG    1      -33.239  90.415  17.274  0.00  0.00    +0.033 A 
ATOM     34  C   LIG    1      -33.566  89.791  16.077  0.00  0.00    +0.060 A 
ATOM     35 CL   LIG    1      -33.424  88.087  15.903  0.00  0.00    -0.082 Cl
ATOM     36  C   LIG    1      -34.001  90.579  15.034  0.00  0.00    +0.133 A 
ATOM     37  N   LIG    1      -34.109  91.921  15.112  0.00  0.00    -0.239 NA
BRANCH  31  38
ATOM     38  N   LIG    1      -33.860  93.902  16.202  0.00  0.00    -0.343 N 
ATOM     39  H   LIG    1      -33.082  94.335  16.686  0.00  0.00    +0.144 HD
ATOM     40  H   LIG    1      -33.843  94.119  15.207  0.00  0.00    +0.144 HD
ENDBRANCH  31  38
ENDBRANCH  25  32
ENDBRANCH  24  28
ENDBRANCH   1  24
TORSDOF 9
ENDMDL
MODEL 8
REMARK VINA RESULT:      -6.2     17.800     20.223
REMARK  Name = pdb/CHEMBL3971434.pdb
REMARK                            x       y       z     vdW  Elec       q    Type
REMARK                         _______ _______ _______ _____ _____    ______ ____
ROOT
ATOM      1  C   LIG    1      -26.012  81.249  37.105  0.00  0.00    +0.323 A 
ATOM      2  N   LIG    1      -25.305  82.394  37.036  0.00  0.00    -0.201 NA
ATOM      3  C   LIG    1      -26.026  83.542  36.989  0.00  0.00    +0.145 A 
ATOM      4  C   LIG    1      -27.407  83.608  36.968  0.00  0.00    +0.105 A 
ATOM      5  C   LIG    1      -27.998  82.354  37.078  0.00  0.00    +0.145 A 
ATOM      6  N   LIG    1      -27.347  81.171  37.125  0.00  0.00    -0.201 NA
ENDROOT
BRANCH   4   7
ATOM      7  N   LIG    1      -28.087  84.848  36.910  0.00  0.00    -0.196 NA
ATOM      8  C   LIG    1      -28.458  85.328  35.757  0.00  0.00    +0.285 C 
BRANCH   8   9
ATOM      9  N   LIG    1      -29.207  86.456  35.580  0.00  0.00    -0.268 N 
ATOM     10  H   LIG    1      -29.427  86.971  36.428  0.00  0.00    +0.157 HD
BRANCH   9  11
ATOM     11  C   LIG    1      -29.746  86.999  34.389  0.00  0.00    +0.053 A 
ATOM     12  C   LIG    1      -30.998  86.585  33.896  0.00  0.00    +0.063 A 
ATOM     13 CL   LIG    1      -31.984  85.482  34.791  0.00  0.00    -0.082 Cl
ATOM     14  C   LIG    1      -31.468  87.021  32.647  0.00  0.00    +0.034 A 
ATOM     15  C   LIG    1      -30.679  87.854  31.837  0.00  0.00    +0.056 A 
ATOM     16  C   LIG    1      -29.431  88.261  32.315  0.00  0.00    +0.014 A 
ATOM     17  C   LIG    1      -28.992  87.866  33.580  0.00  0.00    +0.025 A 
BRANCH  15  18
ATOM     18  C   LIG    1      -31.179  88.312  30.487  0.00  0.00    +0.417 C 
ATOM     19  F   LIG    1      -32.264  87.607  30.071  0.00  0.00    -0.166 F 
ATOM     20  F   LIG    1      -30.241  88.176  29.511  0.00  0.00    -0.166 F 
ATOM     21  F   LIG    1      -31.552  89.622  30.467  0.00  0.00    -0.166 F 
ENDBRANCH  15  18
ENDBRANCH   9  11
ENDBRANCH   8   9
BRANCH   8  22
ATOM     22  O   LIG    1      -28.166  84.660  34.630  0.00  0.00    -0.481 OA
ATOM     23  H   LIG    1      -28.967  84.506  34.102  0.00  0.00    +0.295 HD
ENDBRANCH   8  22
ENDBRANCH   4   7
BRANCH   1  24
ATOM     24  O   LIG    1      -25.354  80.027  37.136  0.00  0.00    -0.424 OA
BRANCH  24  28
ATOM     25  C   LIG    1      -24.241  78.402  33.404  0.00  0.00    -0.014 A 
ATOM     26  C   LIG    1      -25.312  77.858  34.138  0.00  0.00    +0.012 A 
ATOM     27  C   LIG    1      -25.714  78.390  35.365  0.00  0.00    +0.047 A 
ATOM     28  C   LIG    1      -25.014  79.447  35.938  0.00  0.00    +0.132 A 
ATOM     29  C   LIG    1      -23.953  80.015  35.238  0.00  0.00    +0.047 A 
ATOM     30  C   LIG    1      -23.579  79.502  33.985  0.00  0.00    +0.012 A 
BRANCH  25  32
ATOM     31  C   LIG    1      -24.804  77.463  31.077  0.00  0.00    +0.124 A 
ATOM     32  C   LIG    1      -23.880  77.849  32.067  0.00  0.00    +0.023 A 
ATOM     33  C   LIG    1      -22.519  77.685  31.721  0.00  0.00    +0.033 A 
ATOM     34  C   LIG    1      -22.146  77.183  30.480  0.00  0.00    +0.060 A 
ATOM     35 CL   LIG    1      -20.488  77.025  30.055  0.00  0.00    -0.082 Cl
ATOM     36  C   LIG    1      -23.144  76.822  29.602  0.00  0.00    +0.133 A 
ATOM     37  N   LIG    1      -24.458  76.946  29.879  0.00  0.00    -0.239 NA
BRANCH  31  38
ATOM     38  N   LIG    1      -26.183  77.593  31.213  0.00  0.00    -0.343 N 
ATOM     39  H   LIG    1      -26.404  78.171  32.017  0.00  0.00    +0.144 HD
ATOM     40  H   LIG    1      -26.495  78.030  30.348  0.00  0.00    +0.144 HD
ENDBRANCH  31  38
ENDBRANCH  25  32
ENDBRANCH  24  28
ENDBRANCH   1  24
TORSDOF 9
ENDMDL
MODEL 9
REMARK VINA RESULT:      -6.1     15.416     19.124
REMARK  Name = pdb/CHEMBL3971434.pdb
REMARK                            x       y       z     vdW  Elec       q    Type
REMARK                         _______ _______ _______ _____ _____    ______ ____
ROOT
ATOM      1  C   LIG    1      -34.175  84.086  29.978  0.00  0.00    +0.323 A 
ATOM      2  N   LIG    1      -33.311  83.842  30.983  0.00  0.00    -0.201 NA
ATOM      3  C   LIG    1      -32.287  84.720  31.120  0.00  0.00    +0.145 A 
ATOM      4  C   LIG    1      -32.056  85.801  30.289  0.00  0.00    +0.105 A 
ATOM      5  C   LIG    1      -33.044  85.944  29.321  0.00  0.00    +0.145 A 
ATOM      6  N   LIG    1      -34.088  85.110  29.122  0.00  0.00    -0.201 NA
ENDROOT
BRANCH   4   7
ATOM      7  N   LIG    1      -30.957  86.669  30.494  0.00  0.00    -0.196 NA
ATOM      8  C   LIG    1      -31.111  87.750  31.205  0.00  0.00    +0.285 C 
BRANCH   8   9
ATOM      9  N   LIG    1      -30.109  88.608  31.558  0.00  0.00    -0.268 N 
ATOM     10  H   LIG    1      -29.801  89.243  30.826  0.00  0.00    +0.157 HD
BRANCH   9  11
ATOM     11  C   LIG    1      -29.417  88.725  32.786  0.00  0.00    +0.053 A 
ATOM     12  C   LIG    1      -29.294  89.965  33.443  0.00  0.00    +0.063 A 
ATOM     13 CL   LIG    1      -30.089  91.374  32.835  0.00  0.00    -0.082 Cl
ATOM     14  C   LIG    1      -28.492  90.106  34.587  0.00  0.00    +0.034 A 
ATOM     15  C   LIG    1      -27.758  89.018  35.084  0.00  0.00    +0.056 A 
ATOM     16  C   LIG    1      -27.866  87.787  34.432  0.00  0.00    +0.014 A 
ATOM     17  C   LIG    1      -28.705  87.641  33.326  0.00  0.00    +0.025 A 
BRANCH  15  18
ATOM     18  C   LIG    1      -26.884  89.172  36.306  0.00  0.00    +0.417 C 
ATOM     19  F   LIG    1      -27.179  90.295  37.013  0.00  0.00    -0.166 F 
ATOM     20  F   LIG    1      -25.562  89.256  35.995  0.00  0.00    -0.166 F 
ATOM     21  F   LIG    1      -26.997  88.136  37.183  0.00  0.00    -0.166 F 
ENDBRANCH  15  18
ENDBRANCH   9  11
ENDBRANCH   8   9
BRANCH   8  22
ATOM     22  O   LIG    1      -32.317  88.049  31.714  0.00  0.00    -0.481 OA
ATOM     23  H   LIG    1      -32.394  87.733  32.630  0.00  0.00    +0.295 HD
ENDBRANCH   8  22
ENDBRANCH   4   7
BRANCH   1  24
ATOM     24  O   LIG    1      -35.241  83.226  29.754  0.00  0.00    -0.424 OA
BRANCH  24  28
ATOM     25  C   LIG    1      -34.432  79.176  28.885  0.00  0.00    -0.014 A 
ATOM     26  C   LIG    1      -34.782  79.579  30.188  0.00  0.00    +0.012 A 
ATOM     27  C   LIG    1      -35.075  80.908  30.498  0.00  0.00    +0.047 A 
ATOM     28  C   LIG    1      -34.962  81.899  29.527  0.00  0.00    +0.132 A 
ATOM     29  C   LIG    1      -34.624  81.537  28.226  0.00  0.00    +0.047 A 
ATOM     30  C   LIG    1      -34.371  80.192  27.911  0.00  0.00    +0.012 A 
BRANCH  25  32
ATOM     31  C   LIG    1      -35.004  76.940  27.751  0.00  0.00    +0.124 A 
ATOM     32  C   LIG    1      -34.188  77.737  28.576  0.00  0.00    +0.023 A 
ATOM     33  C   LIG    1      -33.063  77.083  29.129  0.00  0.00    +0.033 A 
ATOM     34  C   LIG    1      -32.799  75.747  28.854  0.00  0.00    +0.060 A 
ATOM     35 CL   LIG    1      -31.407  74.972  29.499  0.00  0.00    -0.082 Cl
ATOM     36  C   LIG    1      -33.683  75.066  28.046  0.00  0.00    +0.133 A 
ATOM     37  N   LIG    1      -34.777  75.633  27.498  0.00  0.00    -0.239 NA
BRANCH  31  38
ATOM     38  N   LIG    1      -36.126  77.416  27.081  0.00  0.00    -0.343 N 
ATOM     39  H   LIG    1      -36.366  76.797  26.313  0.00  0.00    +0.144 HD
ATOM     40  H   LIG    1      -36.865  77.438  27.782  0.00  0.00    +0.144 HD
ENDBRANCH  31  38
ENDBRANCH  25  32
ENDBRANCH  24  28
ENDBRANCH   1  24
TORSDOF 9
ENDMDL
