MODEL 1
REMARK VINA RESULT:      -7.2      0.000      0.000
REMARK  Name = pdb/CHEMBL3671444.pdb
REMARK                            x       y       z     vdW  Elec       q    Type
REMARK                         _______ _______ _______ _____ _____    ______ ____
ROOT
ATOM      1  C   LIG    1      -33.142  73.582  29.124  0.00  0.00    +0.042 A 
ATOM      2  C   LIG    1      -33.952  73.430  27.991  0.00  0.00    +0.038 A 
ATOM      3  C   LIG    1      -34.713  72.276  27.820  0.00  0.00    +0.052 A 
ATOM      4  C   LIG    1      -34.586  71.285  28.791  0.00  0.00    +0.134 A 
ATOM      5  N   LIG    1      -33.764  71.379  29.873  0.00  0.00    -0.261 NA
ATOM      6  C   LIG    1      -33.053  72.523  30.013  0.00  0.00    +0.122 A 
ENDROOT
BRANCH   3   7
ATOM      7  N   LIG    1      -35.520  72.193  26.662  0.00  0.00    -0.284 N 
ATOM      8  H   LIG    1      -35.044  72.225  25.769  0.00  0.00    +0.155 HD
ATOM      9  C   LIG    1      -36.900  72.135  26.649  0.00  0.00    +0.222 C 
ATOM     10  O   LIG    1      -37.609  72.255  27.650  0.00  0.00    -0.275 OA
BRANCH   9  11
ATOM     11  C   LIG    1      -37.516  71.882  25.275  0.00  0.00    +0.131 C 
BRANCH  11  12
ATOM     12  C   LIG    1      -38.429  73.017  24.875  0.00  0.00    -0.038 A 
ATOM     13  C   LIG    1      -38.040  74.355  25.032  0.00  0.00    +0.016 A 
ATOM     14  C   LIG    1      -38.872  75.402  24.594  0.00  0.00    +0.055 A 
ATOM     15  C   LIG    1      -40.107  75.090  24.008  0.00  0.00    +0.012 A 
ATOM     16  C   LIG    1      -40.506  73.763  23.861  0.00  0.00    +0.001 A 
ATOM     17  C   LIG    1      -39.676  72.736  24.297  0.00  0.00    +0.004 A 
BRANCH  14  18
ATOM     18  C   LIG    1      -38.427  76.836  24.737  0.00  0.00    +0.417 C 
ATOM     19  F   LIG    1      -37.903  77.332  23.580  0.00  0.00    -0.166 F 
ATOM     20  F   LIG    1      -37.455  76.988  25.680  0.00  0.00    -0.166 F 
ATOM     21  F   LIG    1      -39.428  77.689  25.089  0.00  0.00    -0.166 F 
ENDBRANCH  14  18
ENDBRANCH  11  12
ENDBRANCH   9  11
ENDBRANCH   3   7
BRANCH   1  22
ATOM     22  C   LIG    1      -32.352  74.812  29.347  0.00  0.00    +0.197 C 
ATOM     23  O   LIG    1      -31.162  74.707  29.653  0.00  0.00    -0.287 OA
BRANCH  22  31
ATOM     24  N   LIG    1      -34.186  77.990  29.446  0.00  0.00    -0.321 N 
ATOM     25  C   LIG    1      -33.517  78.147  28.258  0.00  0.00    +0.145 A 
ATOM     26  N   LIG    1      -33.586  79.213  27.440  0.00  0.00    -0.218 NA
ATOM     27  C   LIG    1      -32.795  79.075  26.364  0.00  0.00    +0.223 A 
ATOM     28  N   LIG    1      -32.010  78.029  26.045  0.00  0.00    -0.243 NA
ATOM     29  C   LIG    1      -31.975  76.980  26.897  0.00  0.00    +0.124 A 
ATOM     30  C   LIG    1      -32.744  77.010  28.060  0.00  0.00    +0.048 A 
ATOM     31  C   LIG    1      -32.979  76.119  29.154  0.00  0.00    +0.051 A 
ATOM     32  C   LIG    1      -33.903  76.753  29.981  0.00  0.00    +0.100 A 
BRANCH  24  34
ATOM     33  C   LIG    1      -36.527  78.761  29.595  0.00  0.00    +0.039 C 
ATOM     34  C   LIG    1      -35.080  78.960  30.036  0.00  0.00    +0.090 C 
ATOM     35  C   LIG    1      -34.913  79.141  31.551  0.00  0.00    +0.190 C 
ATOM     36  O   LIG    1      -34.833  80.584  31.385  0.00  0.00    -0.375 OA
ATOM     37  C   LIG    1      -34.600  80.417  29.956  0.00  0.00    +0.190 C 
ENDBRANCH  24  34
ENDBRANCH  22  31
ENDBRANCH   1  22
TORSDOF 7
ENDMDL
MODEL 2
REMARK VINA RESULT:      -6.8      2.026      3.133
REMARK  Name = pdb/CHEMBL3671444.pdb
REMARK                            x       y       z     vdW  Elec       q    Type
REMARK                         _______ _______ _______ _____ _____    ______ ____
ROOT
ATOM      1  C   LIG    1      -33.970  71.331  28.433  0.00  0.00    +0.042 A 
ATOM      2  C   LIG    1      -34.880  71.586  27.399  0.00  0.00    +0.038 A 
ATOM      3  C   LIG    1      -35.060  70.658  26.376  0.00  0.00    +0.052 A 
ATOM      4  C   LIG    1      -34.267  69.514  26.413  0.00  0.00    +0.134 A 
ATOM      5  N   LIG    1      -33.333  69.264  27.373  0.00  0.00    -0.261 NA
ATOM      6  C   LIG    1      -33.199  70.182  28.360  0.00  0.00    +0.122 A 
ENDROOT
BRANCH   3   7
ATOM      7  N   LIG    1      -36.004  70.971  25.371  0.00  0.00    -0.284 N 
ATOM      8  H   LIG    1      -35.643  71.354  24.506  0.00  0.00    +0.155 HD
ATOM      9  C   LIG    1      -37.375  70.857  25.495  0.00  0.00    +0.222 C 
ATOM     10  O   LIG    1      -37.955  70.564  26.542  0.00  0.00    -0.275 OA
BRANCH   9  11
ATOM     11  C   LIG    1      -38.157  71.101  24.207  0.00  0.00    +0.131 C 
BRANCH  11  12
ATOM     12  C   LIG    1      -38.903  72.413  24.267  0.00  0.00    -0.038 A 
ATOM     13  C   LIG    1      -38.279  73.586  24.714  0.00  0.00    +0.016 A 
ATOM     14  C   LIG    1      -38.966  74.814  24.703  0.00  0.00    +0.055 A 
ATOM     15  C   LIG    1      -40.292  74.849  24.250  0.00  0.00    +0.012 A 
ATOM     16  C   LIG    1      -40.923  73.685  23.817  0.00  0.00    +0.001 A 
ATOM     17  C   LIG    1      -40.236  72.476  23.832  0.00  0.00    +0.004 A 
BRANCH  14  18
ATOM     18  C   LIG    1      -38.271  76.075  25.154  0.00  0.00    +0.417 C 
ATOM     19  F   LIG    1      -39.116  77.145  25.188  0.00  0.00    -0.166 F 
ATOM     20  F   LIG    1      -37.251  76.434  24.325  0.00  0.00    -0.166 F 
ATOM     21  F   LIG    1      -37.729  75.989  26.400  0.00  0.00    -0.166 F 
ENDBRANCH  14  18
ENDBRANCH  11  12
ENDBRANCH   9  11
ENDBRANCH   3   7
BRANCH   1  22
ATOM     22  C   LIG    1      -33.786  72.283  29.549  0.00  0.00    +0.197 C 
ATOM     23  O   LIG    1      -34.011  71.901  30.700  0.00  0.00    -0.287 OA
BRANCH  22  31
ATOM     24  N   LIG    1      -33.085  75.723  28.477  0.00  0.00    -0.321 N 
ATOM     25  C   LIG    1      -32.062  75.549  29.376  0.00  0.00    +0.145 A 
ATOM     26  N   LIG    1      -31.123  76.456  29.698  0.00  0.00    -0.218 NA
ATOM     27  C   LIG    1      -30.272  75.992  30.628  0.00  0.00    +0.223 A 
ATOM     28  N   LIG    1      -30.265  74.777  31.208  0.00  0.00    -0.243 NA
ATOM     29  C   LIG    1      -31.228  73.899  30.850  0.00  0.00    +0.124 A 
ATOM     30  C   LIG    1      -32.182  74.268  29.901  0.00  0.00    +0.048 A 
ATOM     31  C   LIG    1      -33.300  73.635  29.274  0.00  0.00    +0.051 A 
ATOM     32  C   LIG    1      -33.819  74.562  28.374  0.00  0.00    +0.100 A 
BRANCH  24  34
ATOM     33  C   LIG    1      -32.214  77.255  26.748  0.00  0.00    +0.039 C 
ATOM     34  C   LIG    1      -33.340  76.930  27.725  0.00  0.00    +0.090 C 
ATOM     35  C   LIG    1      -34.742  77.011  27.104  0.00  0.00    +0.190 C 
ATOM     36  O   LIG    1      -34.931  78.340  27.665  0.00  0.00    -0.375 OA
ATOM     37  C   LIG    1      -33.802  78.131  28.563  0.00  0.00    +0.190 C 
ENDBRANCH  24  34
ENDBRANCH  22  31
ENDBRANCH   1  22
TORSDOF 7
ENDMDL
MODEL 3
REMARK VINA RESULT:      -6.7     11.632     15.649
REMARK  Name = pdb/CHEMBL3671444.pdb
REMARK                            x       y       z     vdW  Elec       q    Type
REMARK                         _______ _______ _______ _____ _____    ______ ____
ROOT
ATOM      1  C   LIG    1      -21.193  77.138  30.409  0.00  0.00    +0.042 A 
ATOM      2  C   LIG    1      -21.005  77.926  31.552  0.00  0.00    +0.038 A 
ATOM      3  C   LIG    1      -19.723  78.144  32.053  0.00  0.00    +0.052 A 
ATOM      4  C   LIG    1      -18.672  77.507  31.397  0.00  0.00    +0.134 A 
ATOM      5  N   LIG    1      -18.828  76.690  30.319  0.00  0.00    -0.261 NA
ATOM      6  C   LIG    1      -20.087  76.516  29.852  0.00  0.00    +0.122 A 
ENDROOT
BRANCH   3   7
ATOM      7  N   LIG    1      -19.602  78.960  33.201  0.00  0.00    -0.284 N 
ATOM      8  H   LIG    1      -19.545  79.960  33.049  0.00  0.00    +0.155 HD
ATOM      9  C   LIG    1      -19.490  78.504  34.500  0.00  0.00    +0.222 C 
ATOM     10  O   LIG    1      -19.378  77.318  34.812  0.00  0.00    -0.275 OA
BRANCH   9  11
ATOM     11  C   LIG    1      -19.540  79.596  35.567  0.00  0.00    +0.131 C 
BRANCH  11  12
ATOM     12  C   LIG    1      -20.911  80.224  35.634  0.00  0.00    -0.038 A 
ATOM     13  C   LIG    1      -22.068  79.480  35.362  0.00  0.00    +0.016 A 
ATOM     14  C   LIG    1      -23.343  80.060  35.493  0.00  0.00    +0.055 A 
ATOM     15  C   LIG    1      -23.444  81.402  35.888  0.00  0.00    +0.012 A 
ATOM     16  C   LIG    1      -22.298  82.151  36.146  0.00  0.00    +0.001 A 
ATOM     17  C   LIG    1      -21.042  81.568  36.014  0.00  0.00    +0.004 A 
BRANCH  14  18
ATOM     18  C   LIG    1      -24.581  79.238  35.232  0.00  0.00    +0.417 C 
ATOM     19  F   LIG    1      -25.713  79.853  35.679  0.00  0.00    -0.166 F 
ATOM     20  F   LIG    1      -24.545  78.028  35.855  0.00  0.00    -0.166 F 
ATOM     21  F   LIG    1      -24.796  78.975  33.913  0.00  0.00    -0.166 F 
ENDBRANCH  14  18
ENDBRANCH  11  12
ENDBRANCH   9  11
ENDBRANCH   3   7
BRANCH   1  22
ATOM     22  C   LIG    1      -22.539  76.920  29.837  0.00  0.00    +0.197 C 
ATOM     23  O   LIG    1      -22.834  77.483  28.780  0.00  0.00    -0.287 OA
BRANCH  22  31
ATOM     24  N   LIG    1      -24.396  74.208  31.470  0.00  0.00    -0.321 N 
ATOM     25  C   LIG    1      -25.318  75.219  31.584  0.00  0.00    +0.145 A 
ATOM     26  N   LIG    1      -26.532  75.129  32.157  0.00  0.00    -0.218 NA
ATOM     27  C   LIG    1      -27.189  76.300  32.131  0.00  0.00    +0.223 A 
ATOM     28  N   LIG    1      -26.777  77.467  31.600  0.00  0.00    -0.243 NA
ATOM     29  C   LIG    1      -25.550  77.507  31.034  0.00  0.00    +0.124 A 
ATOM     30  C   LIG    1      -24.762  76.356  31.010  0.00  0.00    +0.048 A 
ATOM     31  C   LIG    1      -23.471  76.011  30.504  0.00  0.00    +0.051 A 
ATOM     32  C   LIG    1      -23.291  74.659  30.785  0.00  0.00    +0.100 A 
BRANCH  24  34
ATOM     33  C   LIG    1      -24.620  72.803  33.489  0.00  0.00    +0.039 C 
ATOM     34  C   LIG    1      -24.569  72.861  31.965  0.00  0.00    +0.090 C 
ATOM     35  C   LIG    1      -25.687  72.067  31.276  0.00  0.00    +0.190 C 
ATOM     36  O   LIG    1      -24.779  70.954  31.048  0.00  0.00    -0.375 OA
ATOM     37  C   LIG    1      -23.638  71.815  31.334  0.00  0.00    +0.190 C 
ENDBRANCH  24  34
ENDBRANCH  22  31
ENDBRANCH   1  22
TORSDOF 7
ENDMDL
MODEL 4
REMARK VINA RESULT:      -6.5      6.361      9.737
REMARK  Name = pdb/CHEMBL3671444.pdb
REMARK                            x       y       z     vdW  Elec       q    Type
REMARK                         _______ _______ _______ _____ _____    ______ ____
ROOT
ATOM      1  C   LIG    1      -39.582  68.656  21.219  0.00  0.00    +0.042 A 
ATOM      2  C   LIG    1      -40.324  69.740  21.706  0.00  0.00    +0.038 A 
ATOM      3  C   LIG    1      -41.713  69.666  21.780  0.00  0.00    +0.052 A 
ATOM      4  C   LIG    1      -42.310  68.501  21.305  0.00  0.00    +0.134 A 
ATOM      5  N   LIG    1      -41.621  67.453  20.773  0.00  0.00    -0.261 NA
ATOM      6  C   LIG    1      -40.271  67.556  20.734  0.00  0.00    +0.122 A 
ENDROOT
BRANCH   3   7
ATOM      7  N   LIG    1      -42.400  70.790  22.295  0.00  0.00    -0.284 N 
ATOM      8  H   LIG    1      -42.691  70.745  23.264  0.00  0.00    +0.155 HD
ATOM      9  C   LIG    1      -42.761  71.910  21.572  0.00  0.00    +0.222 C 
ATOM     10  O   LIG    1      -42.618  72.024  20.353  0.00  0.00    -0.275 OA
BRANCH   9  11
ATOM     11  C   LIG    1      -43.346  73.048  22.404  0.00  0.00    +0.131 C 
BRANCH  11  12
ATOM     12  C   LIG    1      -42.250  73.881  23.026  0.00  0.00    -0.038 A 
ATOM     13  C   LIG    1      -41.124  73.285  23.610  0.00  0.00    +0.016 A 
ATOM     14  C   LIG    1      -40.079  74.074  24.126  0.00  0.00    +0.055 A 
ATOM     15  C   LIG    1      -40.185  75.471  24.062  0.00  0.00    +0.012 A 
ATOM     16  C   LIG    1      -41.307  76.070  23.495  0.00  0.00    +0.001 A 
ATOM     17  C   LIG    1      -42.334  75.281  22.987  0.00  0.00    +0.004 A 
BRANCH  14  18
ATOM     18  C   LIG    1      -38.857  73.420  24.721  0.00  0.00    +0.417 C 
ATOM     19  F   LIG    1      -37.739  74.187  24.578  0.00  0.00    -0.166 F 
ATOM     20  F   LIG    1      -38.565  72.227  24.132  0.00  0.00    -0.166 F 
ATOM     21  F   LIG    1      -38.964  73.163  26.054  0.00  0.00    -0.166 F 
ENDBRANCH  14  18
ENDBRANCH  11  12
ENDBRANCH   9  11
ENDBRANCH   3   7
BRANCH   1  22
ATOM     22  C   LIG    1      -38.106  68.696  21.163  0.00  0.00    +0.197 C 
ATOM     23  O   LIG    1      -37.559  68.995  20.099  0.00  0.00    -0.287 OA
BRANCH  22  31
ATOM     24  N   LIG    1      -36.326  68.626  24.373  0.00  0.00    -0.321 N 
ATOM     25  C   LIG    1      -36.094  67.340  23.952  0.00  0.00    +0.145 A 
ATOM     26  N   LIG    1      -35.397  66.399  24.615  0.00  0.00    -0.218 NA
ATOM     27  C   LIG    1      -35.368  65.232  23.951  0.00  0.00    +0.223 A 
ATOM     28  N   LIG    1      -35.918  64.948  22.757  0.00  0.00    -0.243 NA
ATOM     29  C   LIG    1      -36.608  65.927  22.128  0.00  0.00    +0.124 A 
ATOM     30  C   LIG    1      -36.722  67.183  22.723  0.00  0.00    +0.048 A 
ATOM     31  C   LIG    1      -37.329  68.429  22.374  0.00  0.00    +0.051 A 
ATOM     32  C   LIG    1      -37.036  69.310  23.412  0.00  0.00    +0.100 A 
BRANCH  24  34
ATOM     33  C   LIG    1      -36.477  68.498  26.834  0.00  0.00    +0.039 C 
ATOM     34  C   LIG    1      -35.867  69.193  25.620  0.00  0.00    +0.090 C 
ATOM     35  C   LIG    1      -34.347  69.382  25.714  0.00  0.00    +0.190 C 
ATOM     36  O   LIG    1      -34.529  70.761  26.140  0.00  0.00    -0.375 OA
ATOM     37  C   LIG    1      -35.916  70.726  25.692  0.00  0.00    +0.190 C 
ENDBRANCH  24  34
ENDBRANCH  22  31
ENDBRANCH   1  22
TORSDOF 7
ENDMDL
MODEL 5
REMARK VINA RESULT:      -6.5     16.330     19.384
REMARK  Name = pdb/CHEMBL3671444.pdb
REMARK                            x       y       z     vdW  Elec       q    Type
REMARK                         _______ _______ _______ _____ _____    ______ ____
ROOT
ATOM      1  C   LIG    1      -20.692  80.350  16.060  0.00  0.00    +0.042 A 
ATOM      2  C   LIG    1      -20.572  78.956  15.974  0.00  0.00    +0.038 A 
ATOM      3  C   LIG    1      -19.318  78.367  15.826  0.00  0.00    +0.052 A 
ATOM      4  C   LIG    1      -18.225  79.223  15.721  0.00  0.00    +0.134 A 
ATOM      5  N   LIG    1      -18.316  80.582  15.744  0.00  0.00    -0.261 NA
ATOM      6  C   LIG    1      -19.550  81.118  15.905  0.00  0.00    +0.122 A 
ENDROOT
BRANCH   3   7
ATOM      7  N   LIG    1      -19.265  76.955  15.760  0.00  0.00    -0.284 N 
ATOM      8  H   LIG    1      -19.796  76.511  15.020  0.00  0.00    +0.155 HD
ATOM      9  C   LIG    1      -18.606  76.135  16.655  0.00  0.00    +0.222 C 
ATOM     10  O   LIG    1      -18.063  76.530  17.688  0.00  0.00    -0.275 OA
BRANCH   9  11
ATOM     11  C   LIG    1      -18.567  74.660  16.261  0.00  0.00    +0.131 C 
BRANCH  11  12
ATOM     12  C   LIG    1      -19.185  73.797  17.335  0.00  0.00    -0.038 A 
ATOM     13  C   LIG    1      -20.573  73.770  17.537  0.00  0.00    +0.016 A 
ATOM     14  C   LIG    1      -21.142  72.911  18.497  0.00  0.00    +0.055 A 
ATOM     15  C   LIG    1      -20.300  72.090  19.260  0.00  0.00    +0.012 A 
ATOM     16  C   LIG    1      -18.920  72.123  19.074  0.00  0.00    +0.001 A 
ATOM     17  C   LIG    1      -18.367  72.974  18.123  0.00  0.00    +0.004 A 
BRANCH  14  18
ATOM     18  C   LIG    1      -22.638  72.866  18.681  0.00  0.00    +0.417 C 
ATOM     19  F   LIG    1      -23.244  74.017  18.272  0.00  0.00    -0.166 F 
ATOM     20  F   LIG    1      -22.998  72.699  19.984  0.00  0.00    -0.166 F 
ATOM     21  F   LIG    1      -23.246  71.860  17.993  0.00  0.00    -0.166 F 
ENDBRANCH  14  18
ENDBRANCH  11  12
ENDBRANCH   9  11
ENDBRANCH   3   7
BRANCH   1  22
ATOM     22  C   LIG    1      -22.007  80.998  16.252  0.00  0.00    +0.197 C 
ATOM     23  O   LIG    1      -22.225  81.599  17.307  0.00  0.00    -0.287 OA
BRANCH  22  31
ATOM     24  N   LIG    1      -24.126  81.344  13.275  0.00  0.00    -0.321 N 
ATOM     25  C   LIG    1      -24.790  80.327  13.914  0.00  0.00    +0.145 A 
ATOM     26  N   LIG    1      -25.899  79.702  13.476  0.00  0.00    -0.218 NA
ATOM     27  C   LIG    1      -26.295  78.732  14.317  0.00  0.00    +0.223 A 
ATOM     28  N   LIG    1      -25.732  78.371  15.485  0.00  0.00    -0.243 NA
ATOM     29  C   LIG    1      -24.621  79.029  15.883  0.00  0.00    +0.124 A 
ATOM     30  C   LIG    1      -24.102  80.051  15.088  0.00  0.00    +0.048 A 
ATOM     31  C   LIG    1      -22.999  80.956  15.177  0.00  0.00    +0.051 A 
ATOM     32  C   LIG    1      -23.064  81.763  14.044  0.00  0.00    +0.100 A 
BRANCH  24  34
ATOM     33  C   LIG    1      -24.348  80.925  10.851  0.00  0.00    +0.039 C 
ATOM     34  C   LIG    1      -24.500  81.916  12.002  0.00  0.00    +0.090 C 
ATOM     35  C   LIG    1      -25.843  82.659  12.006  0.00  0.00    +0.190 C 
ATOM     36  O   LIG    1      -25.224  83.816  11.378  0.00  0.00    -0.375 OA
ATOM     37  C   LIG    1      -23.902  83.301  11.713  0.00  0.00    +0.190 C 
ENDBRANCH  24  34
ENDBRANCH  22  31
ENDBRANCH   1  22
TORSDOF 7
ENDMDL
MODEL 6
REMARK VINA RESULT:      -6.4      1.729      2.925
REMARK  Name = pdb/CHEMBL3671444.pdb
REMARK                            x       y       z     vdW  Elec       q    Type
REMARK                         _______ _______ _______ _____ _____    ______ ____
ROOT
ATOM      1  C   LIG    1      -33.350  72.277  28.728  0.00  0.00    +0.042 A 
ATOM      2  C   LIG    1      -34.236  72.368  27.646  0.00  0.00    +0.038 A 
ATOM      3  C   LIG    1      -34.807  71.218  27.105  0.00  0.00    +0.052 A 
ATOM      4  C   LIG    1      -34.417  70.000  27.656  0.00  0.00    +0.134 A 
ATOM      5  N   LIG    1      -33.515  69.875  28.669  0.00  0.00    -0.261 NA
ATOM      6  C   LIG    1      -32.994  71.016  29.179  0.00  0.00    +0.122 A 
ENDROOT
BRANCH   3   7
ATOM      7  N   LIG    1      -35.703  71.381  26.024  0.00  0.00    -0.284 N 
ATOM      8  H   LIG    1      -35.296  71.568  25.116  0.00  0.00    +0.155 HD
ATOM      9  C   LIG    1      -37.081  71.371  26.117  0.00  0.00    +0.222 C 
ATOM     10  O   LIG    1      -37.705  71.321  27.178  0.00  0.00    -0.275 OA
BRANCH   9  11
ATOM     11  C   LIG    1      -37.813  71.403  24.777  0.00  0.00    +0.131 C 
BRANCH  11  12
ATOM     12  C   LIG    1      -38.586  72.690  24.614  0.00  0.00    -0.038 A 
ATOM     13  C   LIG    1      -37.998  73.933  24.888  0.00  0.00    +0.016 A 
ATOM     14  C   LIG    1      -38.708  75.128  24.668  0.00  0.00    +0.055 A 
ATOM     15  C   LIG    1      -40.021  75.060  24.182  0.00  0.00    +0.012 A 
ATOM     16  C   LIG    1      -40.617  73.829  23.921  0.00  0.00    +0.001 A 
ATOM     17  C   LIG    1      -39.907  72.653  24.141  0.00  0.00    +0.004 A 
BRANCH  14  18
ATOM     18  C   LIG    1      -38.051  76.460  24.933  0.00  0.00    +0.417 C 
ATOM     19  F   LIG    1      -36.827  76.325  25.519  0.00  0.00    -0.166 F 
ATOM     20  F   LIG    1      -38.781  77.243  25.776  0.00  0.00    -0.166 F 
ATOM     21  F   LIG    1      -37.848  77.206  23.812  0.00  0.00    -0.166 F 
ENDBRANCH  14  18
ENDBRANCH  11  12
ENDBRANCH   9  11
ENDBRANCH   3   7
BRANCH   1  22
ATOM     22  C   LIG    1      -32.758  73.484  29.342  0.00  0.00    +0.197 C 
ATOM     23  O   LIG    1      -31.553  73.488  29.606  0.00  0.00    -0.287 OA
BRANCH  22  31
ATOM     24  N   LIG    1      -34.451  76.735  29.539  0.00  0.00    -0.321 N 
ATOM     25  C   LIG    1      -35.305  75.984  30.307  0.00  0.00    +0.145 A 
ATOM     26  N   LIG    1      -36.425  76.421  30.912  0.00  0.00    -0.218 NA
ATOM     27  C   LIG    1      -37.057  75.437  31.573  0.00  0.00    +0.223 A 
ATOM     28  N   LIG    1      -36.684  74.150  31.691  0.00  0.00    -0.243 NA
ATOM     29  C   LIG    1      -35.551  73.758  31.065  0.00  0.00    +0.124 A 
ATOM     30  C   LIG    1      -34.810  74.686  30.334  0.00  0.00    +0.048 A 
ATOM     31  C   LIG    1      -33.596  74.660  29.580  0.00  0.00    +0.051 A 
ATOM     32  C   LIG    1      -33.391  75.960  29.125  0.00  0.00    +0.100 A 
BRANCH  24  34
ATOM     33  C   LIG    1      -34.723  78.998  30.490  0.00  0.00    +0.039 C 
ATOM     34  C   LIG    1      -34.616  78.138  29.234  0.00  0.00    +0.090 C 
ATOM     35  C   LIG    1      -33.631  78.685  28.191  0.00  0.00    +0.190 C 
ATOM     36  O   LIG    1      -34.729  79.268  27.437  0.00  0.00    -0.375 OA
ATOM     37  C   LIG    1      -35.684  78.450  28.175  0.00  0.00    +0.190 C 
ENDBRANCH  24  34
ENDBRANCH  22  31
ENDBRANCH   1  22
TORSDOF 7
ENDMDL
MODEL 7
REMARK VINA RESULT:      -6.3      2.522      5.381
REMARK  Name = pdb/CHEMBL3671444.pdb
REMARK                            x       y       z     vdW  Elec       q    Type
REMARK                         _______ _______ _______ _____ _____    ______ ____
ROOT
ATOM      1  C   LIG    1      -37.131  79.594  29.360  0.00  0.00    +0.042 A 
ATOM      2  C   LIG    1      -37.402  79.083  28.084  0.00  0.00    +0.038 A 
ATOM      3  C   LIG    1      -38.646  79.289  27.493  0.00  0.00    +0.052 A 
ATOM      4  C   LIG    1      -39.598  79.972  28.246  0.00  0.00    +0.134 A 
ATOM      5  N   LIG    1      -39.384  80.432  29.510  0.00  0.00    -0.261 NA
ATOM      6  C   LIG    1      -38.157  80.226  30.044  0.00  0.00    +0.122 A 
ENDROOT
BRANCH   3   7
ATOM      7  N   LIG    1      -38.849  78.758  26.198  0.00  0.00    -0.284 N 
ATOM      8  H   LIG    1      -38.529  79.319  25.418  0.00  0.00    +0.155 HD
ATOM      9  C   LIG    1      -39.501  77.575  25.910  0.00  0.00    +0.222 C 
ATOM     10  O   LIG    1      -40.082  76.881  26.746  0.00  0.00    -0.275 OA
BRANCH   9  11
ATOM     11  C   LIG    1      -39.437  77.151  24.444  0.00  0.00    +0.131 C 
BRANCH  11  12
ATOM     12  C   LIG    1      -39.636  75.660  24.304  0.00  0.00    -0.038 A 
ATOM     13  C   LIG    1      -38.672  74.750  24.761  0.00  0.00    +0.016 A 
ATOM     14  C   LIG    1      -38.900  73.364  24.685  0.00  0.00    +0.055 A 
ATOM     15  C   LIG    1      -40.102  72.900  24.132  0.00  0.00    +0.012 A 
ATOM     16  C   LIG    1      -41.059  73.798  23.664  0.00  0.00    +0.001 A 
ATOM     17  C   LIG    1      -40.824  75.167  23.744  0.00  0.00    +0.004 A 
BRANCH  14  18
ATOM     18  C   LIG    1      -37.869  72.396  25.211  0.00  0.00    +0.417 C 
ATOM     19  F   LIG    1      -38.436  71.265  25.721  0.00  0.00    -0.166 F 
ATOM     20  F   LIG    1      -37.124  72.925  26.221  0.00  0.00    -0.166 F 
ATOM     21  F   LIG    1      -36.980  71.975  24.270  0.00  0.00    -0.166 F 
ENDBRANCH  14  18
ENDBRANCH  11  12
ENDBRANCH   9  11
ENDBRANCH   3   7
BRANCH   1  22
ATOM     22  C   LIG    1      -35.807  79.420  29.995  0.00  0.00    +0.197 C 
ATOM     23  O   LIG    1      -35.526  80.104  30.981  0.00  0.00    -0.287 OA
BRANCH  22  31
ATOM     24  N   LIG    1      -33.754  76.503  29.130  0.00  0.00    -0.321 N 
ATOM     25  C   LIG    1      -33.314  77.386  28.175  0.00  0.00    +0.145 A 
ATOM     26  N   LIG    1      -32.385  77.142  27.232  0.00  0.00    -0.218 NA
ATOM     27  C   LIG    1      -32.190  78.202  26.431  0.00  0.00    +0.223 A 
ATOM     28  N   LIG    1      -32.784  79.408  26.498  0.00  0.00    -0.243 NA
ATOM     29  C   LIG    1      -33.709  79.606  27.464  0.00  0.00    +0.124 A 
ATOM     30  C   LIG    1      -34.011  78.574  28.352  0.00  0.00    +0.048 A 
ATOM     31  C   LIG    1      -34.882  78.413  29.474  0.00  0.00    +0.051 A 
ATOM     32  C   LIG    1      -34.672  77.121  29.948  0.00  0.00    +0.100 A 
BRANCH  24  34
ATOM     33  C   LIG    1      -33.743  74.249  28.121  0.00  0.00    +0.039 C 
ATOM     34  C   LIG    1      -33.300  75.139  29.279  0.00  0.00    +0.090 C 
ATOM     35  C   LIG    1      -31.814  74.997  29.637  0.00  0.00    +0.190 C 
ATOM     36  O   LIG    1      -32.149  74.104  30.736  0.00  0.00    -0.375 OA
ATOM     37  C   LIG    1      -33.543  74.523  30.665  0.00  0.00    +0.190 C 
ENDBRANCH  24  34
ENDBRANCH  22  31
ENDBRANCH   1  22
TORSDOF 7
ENDMDL
MODEL 8
REMARK VINA RESULT:      -6.2      2.054      2.524
REMARK  Name = pdb/CHEMBL3671444.pdb
REMARK                            x       y       z     vdW  Elec       q    Type
REMARK                         _______ _______ _______ _____ _____    ______ ____
ROOT
ATOM      1  C   LIG    1      -34.306  72.059  28.244  0.00  0.00    +0.042 A 
ATOM      2  C   LIG    1      -35.489  72.024  27.494  0.00  0.00    +0.038 A 
ATOM      3  C   LIG    1      -36.029  70.805  27.090  0.00  0.00    +0.052 A 
ATOM      4  C   LIG    1      -35.316  69.656  27.422  0.00  0.00    +0.134 A 
ATOM      5  N   LIG    1      -34.134  69.661  28.100  0.00  0.00    -0.261 NA
ATOM      6  C   LIG    1      -33.650  70.864  28.490  0.00  0.00    +0.122 A 
ENDROOT
BRANCH   3   7
ATOM      7  N   LIG    1      -37.233  70.839  26.348  0.00  0.00    -0.284 N 
ATOM      8  H   LIG    1      -38.087  70.625  26.850  0.00  0.00    +0.155 HD
ATOM      9  C   LIG    1      -37.332  71.075  24.991  0.00  0.00    +0.222 C 
ATOM     10  O   LIG    1      -36.366  71.185  24.233  0.00  0.00    -0.275 OA
BRANCH   9  11
ATOM     11  C   LIG    1      -38.759  71.222  24.470  0.00  0.00    +0.131 C 
BRANCH  11  12
ATOM     12  C   LIG    1      -39.171  72.675  24.422  0.00  0.00    -0.038 A 
ATOM     13  C   LIG    1      -38.309  73.690  24.858  0.00  0.00    +0.016 A 
ATOM     14  C   LIG    1      -38.678  75.044  24.746  0.00  0.00    +0.055 A 
ATOM     15  C   LIG    1      -39.930  75.365  24.203  0.00  0.00    +0.012 A 
ATOM     16  C   LIG    1      -40.797  74.361  23.780  0.00  0.00    +0.001 A 
ATOM     17  C   LIG    1      -40.422  73.026  23.895  0.00  0.00    +0.004 A 
BRANCH  14  18
ATOM     18  C   LIG    1      -37.727  76.129  25.188  0.00  0.00    +0.417 C 
ATOM     19  F   LIG    1      -36.707  75.642  25.949  0.00  0.00    -0.166 F 
ATOM     20  F   LIG    1      -38.338  77.079  25.949  0.00  0.00    -0.166 F 
ATOM     21  F   LIG    1      -37.138  76.795  24.157  0.00  0.00    -0.166 F 
ENDBRANCH  14  18
ENDBRANCH  11  12
ENDBRANCH   9  11
ENDBRANCH   3   7
BRANCH   1  22
ATOM     22  C   LIG    1      -33.731  73.337  28.715  0.00  0.00    +0.197 C 
ATOM     23  O   LIG    1      -32.511  73.416  28.877  0.00  0.00    -0.287 OA
BRANCH  22  31
ATOM     24  N   LIG    1      -36.226  75.844  29.696  0.00  0.00    -0.321 N 
ATOM     25  C   LIG    1      -35.479  76.593  28.822  0.00  0.00    +0.145 A 
ATOM     26  N   LIG    1      -35.691  77.880  28.493  0.00  0.00    -0.218 NA
ATOM     27  C   LIG    1      -34.771  78.337  27.627  0.00  0.00    +0.223 A 
ATOM     28  N   LIG    1      -33.743  77.662  27.082  0.00  0.00    -0.243 NA
ATOM     29  C   LIG    1      -33.572  76.370  27.442  0.00  0.00    +0.124 A 
ATOM     30  C   LIG    1      -34.455  75.782  28.348  0.00  0.00    +0.048 A 
ATOM     31  C   LIG    1      -34.608  74.488  28.934  0.00  0.00    +0.051 A 
ATOM     32  C   LIG    1      -35.738  74.558  29.745  0.00  0.00    +0.100 A 
BRANCH  24  34
ATOM     33  C   LIG    1      -38.496  76.800  29.516  0.00  0.00    +0.039 C 
ATOM     34  C   LIG    1      -37.375  76.320  30.433  0.00  0.00    +0.090 C 
ATOM     35  C   LIG    1      -37.848  75.381  31.552  0.00  0.00    +0.190 C 
ATOM     36  O   LIG    1      -37.855  76.487  32.498  0.00  0.00    -0.375 OA
ATOM     37  C   LIG    1      -37.053  77.288  31.581  0.00  0.00    +0.190 C 
ENDBRANCH  24  34
ENDBRANCH  22  31
ENDBRANCH   1  22
TORSDOF 7
ENDMDL
MODEL 9
REMARK VINA RESULT:      -6.2      2.929      6.385
REMARK  Name = pdb/CHEMBL3671444.pdb
REMARK                            x       y       z     vdW  Elec       q    Type
REMARK                         _______ _______ _______ _____ _____    ______ ____
ROOT
ATOM      1  C   LIG    1      -34.430  75.128  29.206  0.00  0.00    +0.042 A 
ATOM      2  C   LIG    1      -35.281  75.271  28.101  0.00  0.00    +0.038 A 
ATOM      3  C   LIG    1      -35.147  76.363  27.247  0.00  0.00    +0.052 A 
ATOM      4  C   LIG    1      -34.176  77.306  27.575  0.00  0.00    +0.134 A 
ATOM      5  N   LIG    1      -33.372  77.225  28.672  0.00  0.00    -0.261 NA
ATOM      6  C   LIG    1      -33.522  76.140  29.469  0.00  0.00    +0.122 A 
ENDROOT
BRANCH   3   7
ATOM      7  N   LIG    1      -36.027  76.440  26.144  0.00  0.00    -0.284 N 
ATOM      8  H   LIG    1      -35.610  76.592  25.233  0.00  0.00    +0.155 HD
ATOM      9  C   LIG    1      -37.406  76.389  26.214  0.00  0.00    +0.222 C 
ATOM     10  O   LIG    1      -38.048  76.374  27.265  0.00  0.00    -0.275 OA
BRANCH   9  11
ATOM     11  C   LIG    1      -38.113  76.327  24.862  0.00  0.00    +0.131 C 
BRANCH  11  12
ATOM     12  C   LIG    1      -38.680  74.950  24.611  0.00  0.00    -0.038 A 
ATOM     13  C   LIG    1      -37.936  73.794  24.887  0.00  0.00    +0.016 A 
ATOM     14  C   LIG    1      -38.500  72.517  24.711  0.00  0.00    +0.055 A 
ATOM     15  C   LIG    1      -39.818  72.413  24.243  0.00  0.00    +0.012 A 
ATOM     16  C   LIG    1      -40.559  73.557  23.954  0.00  0.00    +0.001 A 
ATOM     17  C   LIG    1      -39.992  74.815  24.131  0.00  0.00    +0.004 A 
BRANCH  14  18
ATOM     18  C   LIG    1      -37.701  71.282  25.044  0.00  0.00    +0.417 C 
ATOM     19  F   LIG    1      -38.251  70.572  26.070  0.00  0.00    -0.166 F 
ATOM     20  F   LIG    1      -36.429  71.574  25.436  0.00  0.00    -0.166 F 
ATOM     21  F   LIG    1      -37.582  70.408  24.007  0.00  0.00    -0.166 F 
ENDBRANCH  14  18
ENDBRANCH  11  12
ENDBRANCH   9  11
ENDBRANCH   3   7
BRANCH   1  22
ATOM     22  C   LIG    1      -34.529  73.960  30.107  0.00  0.00    +0.197 C 
ATOM     23  O   LIG    1      -35.106  74.091  31.189  0.00  0.00    -0.287 OA
BRANCH  22  31
ATOM     24  N   LIG    1      -33.772  70.596  28.850  0.00  0.00    -0.321 N 
ATOM     25  C   LIG    1      -32.510  70.996  29.212  0.00  0.00    +0.145 A 
ATOM     26  N   LIG    1      -31.380  70.274  29.091  0.00  0.00    -0.218 NA
ATOM     27  C   LIG    1      -30.301  70.953  29.514  0.00  0.00    +0.223 A 
ATOM     28  N   LIG    1      -30.257  72.195  30.030  0.00  0.00    -0.243 NA
ATOM     29  C   LIG    1      -31.418  72.880  30.133  0.00  0.00    +0.124 A 
ATOM     30  C   LIG    1      -32.609  72.287  29.714  0.00  0.00    +0.048 A 
ATOM     31  C   LIG    1      -33.986  72.670  29.682  0.00  0.00    +0.051 A 
ATOM     32  C   LIG    1      -34.681  71.580  29.164  0.00  0.00    +0.100 A 
BRANCH  24  34
ATOM     33  C   LIG    1      -33.691  68.144  29.135  0.00  0.00    +0.039 C 
ATOM     34  C   LIG    1      -34.107  69.321  28.257  0.00  0.00    +0.090 C 
ATOM     35  C   LIG    1      -35.544  69.221  27.728  0.00  0.00    +0.190 C 
ATOM     36  O   LIG    1      -35.056  68.721  26.452  0.00  0.00    -0.375 OA
ATOM     37  C   LIG    1      -33.708  69.167  26.782  0.00  0.00    +0.190 C 
ENDBRANCH  24  34
ENDBRANCH  22  31
ENDBRANCH   1  22
TORSDOF 7
ENDMDL
