MODEL 1
REMARK VINA RESULT:      -6.0      0.000      0.000
REMARK  Name = pdb/CHEMBL3675911.pdb
REMARK                            x       y       z     vdW  Elec       q    Type
REMARK                         _______ _______ _______ _____ _____    ______ ____
ROOT
ATOM      1  C   LIG    1      -20.031  76.963  30.628  0.00  0.00    +0.100 A 
ATOM      2  C   LIG    1      -19.805  77.582  31.839  0.00  0.00    +0.170 A 
ATOM      3  N   LIG    1      -20.665  78.118  32.764  0.00  0.00    -0.212 NA
ATOM      4  C   LIG    1      -20.149  78.749  33.798  0.00  0.00    +0.126 A 
ATOM      5  C   LIG    1      -18.656  78.846  34.006  0.00  0.00    +0.063 A 
ATOM      6  C   LIG    1      -17.866  78.294  33.079  0.00  0.00    +0.118 A 
ATOM      7  N   LIG    1      -18.420  77.664  31.980  0.00  0.00    -0.221 N 
ATOM      8  N   LIG    1      -17.766  77.116  30.931  0.00  0.00    -0.173 NA
ATOM      9  C   LIG    1      -18.742  76.726  30.109  0.00  0.00    +0.150 A 
ENDROOT
BRANCH   4  10
ATOM     10  N   LIG    1      -21.011  79.361  34.694  0.00  0.00    -0.308 N 
ATOM     11  C   LIG    1      -22.466  79.475  34.518  0.00  0.00    +0.108 C 
ATOM     12  C   LIG    1      -22.721  80.917  34.975  0.00  0.00    +0.029 C 
ATOM     13  C   LIG    1      -21.777  81.076  36.153  0.00  0.00    +0.021 C 
ATOM     14  C   LIG    1      -20.534  80.319  35.698  0.00  0.00    +0.107 C 
BRANCH  11  15
ATOM     15  C   LIG    1      -23.223  78.425  35.318  0.00  0.00    +0.011 A 
ATOM     16  C   LIG    1      -24.587  78.597  35.601  0.00  0.00    +0.129 A 
ATOM     17  F   LIG    1      -25.230  79.683  35.153  0.00  0.00    -0.205 F 
ATOM     18  C   LIG    1      -25.311  77.658  36.343  0.00  0.00    +0.041 A 
ATOM     19  C   LIG    1      -24.681  76.506  36.806  0.00  0.00    +0.041 A 
ATOM     20  C   LIG    1      -23.338  76.308  36.515  0.00  0.00    +0.124 A 
ATOM     21  F   LIG    1      -22.725  75.199  36.945  0.00  0.00    -0.205 F 
ATOM     22  C   LIG    1      -22.614  77.245  35.782  0.00  0.00    +0.046 A 
ENDBRANCH  11  15
ENDBRANCH   4  10
BRANCH   1  25
ATOM     23  N   LIG    1      -22.373  76.547  30.827  0.00  0.00    -0.308 N 
ATOM     24  H   LIG    1      -22.186  76.687  31.815  0.00  0.00    +0.149 HD
ATOM     25  C   LIG    1      -21.291  76.660  29.975  0.00  0.00    +0.249 C 
ATOM     26  O   LIG    1      -21.361  76.534  28.768  0.00  0.00    -0.270 OA
BRANCH  23  30
ATOM     27  C   LIG    1      -25.538  77.046  32.623  0.00  0.00    +0.098 C 
ATOM     28  C   LIG    1      -24.942  78.063  31.647  0.00  0.00    +0.016 C 
ATOM     29  C   LIG    1      -24.610  77.468  30.278  0.00  0.00    +0.023 C 
ATOM     30  C   LIG    1      -23.720  76.221  30.374  0.00  0.00    +0.073 C 
ATOM     31  C   LIG    1      -24.379  75.184  31.296  0.00  0.00    +0.023 C 
ATOM     32  C   LIG    1      -24.718  75.753  32.678  0.00  0.00    +0.016 C 
BRANCH  27  33
ATOM     33  C   LIG    1      -27.004  76.756  32.324  0.00  0.00    +0.308 C 
ATOM     34  O   LIG    1      -27.716  77.429  31.594  0.00  0.00    -0.251 OA
BRANCH  33  35
ATOM     35  O   LIG    1      -27.463  75.645  32.940  0.00  0.00    -0.480 OA
ATOM     36  H   LIG    1      -27.507  75.713  33.912  0.00  0.00    +0.295 HD
ENDBRANCH  33  35
ENDBRANCH  27  33
ENDBRANCH  23  30
ENDBRANCH   1  25
TORSDOF 6
ENDMDL
MODEL 2
REMARK VINA RESULT:      -5.5     18.233     21.147
REMARK  Name = pdb/CHEMBL3675911.pdb
REMARK                            x       y       z     vdW  Elec       q    Type
REMARK                         _______ _______ _______ _____ _____    ______ ____
ROOT
ATOM      1  C   LIG    1      -25.464  83.855  11.355  0.00  0.00    +0.100 A 
ATOM      2  C   LIG    1      -25.107  82.726  12.059  0.00  0.00    +0.170 A 
ATOM      3  N   LIG    1      -24.186  82.524  13.056  0.00  0.00    -0.212 NA
ATOM      4  C   LIG    1      -23.984  81.292  13.475  0.00  0.00    +0.126 A 
ATOM      5  C   LIG    1      -24.772  80.127  12.924  0.00  0.00    +0.063 A 
ATOM      6  C   LIG    1      -25.665  80.384  11.962  0.00  0.00    +0.118 A 
ATOM      7  N   LIG    1      -25.843  81.677  11.507  0.00  0.00    -0.221 N 
ATOM      8  N   LIG    1      -26.652  82.091  10.507  0.00  0.00    -0.173 NA
ATOM      9  C   LIG    1      -26.395  83.396  10.401  0.00  0.00    +0.150 A 
ENDROOT
BRANCH   4  10
ATOM     10  N   LIG    1      -23.000  81.072  14.425  0.00  0.00    -0.308 N 
ATOM     11  C   LIG    1      -23.152  80.215  15.611  0.00  0.00    +0.108 C 
ATOM     12  C   LIG    1      -22.471  81.063  16.694  0.00  0.00    +0.029 C 
ATOM     13  C   LIG    1      -21.286  81.667  15.962  0.00  0.00    +0.021 C 
ATOM     14  C   LIG    1      -21.859  81.980  14.584  0.00  0.00    +0.107 C 
BRANCH  11  15
ATOM     15  C   LIG    1      -22.526  78.844  15.409  0.00  0.00    +0.011 A 
ATOM     16  C   LIG    1      -23.338  77.706  15.278  0.00  0.00    +0.129 A 
ATOM     17  F   LIG    1      -24.672  77.830  15.318  0.00  0.00    -0.205 F 
ATOM     18  C   LIG    1      -22.798  76.429  15.102  0.00  0.00    +0.041 A 
ATOM     19  C   LIG    1      -21.417  76.265  15.034  0.00  0.00    +0.041 A 
ATOM     20  C   LIG    1      -20.598  77.382  15.137  0.00  0.00    +0.124 A 
ATOM     21  F   LIG    1      -19.270  77.238  15.061  0.00  0.00    -0.205 F 
ATOM     22  C   LIG    1      -21.135  78.654  15.319  0.00  0.00    +0.046 A 
ENDBRANCH  11  15
ENDBRANCH   4  10
BRANCH   1  25
ATOM     23  N   LIG    1      -23.868  85.351  12.312  0.00  0.00    -0.308 N 
ATOM     24  H   LIG    1      -23.509  84.499  12.730  0.00  0.00    +0.149 HD
ATOM     25  C   LIG    1      -24.973  85.215  11.494  0.00  0.00    +0.249 C 
ATOM     26  O   LIG    1      -25.506  86.140  10.912  0.00  0.00    -0.270 OA
BRANCH  23  30
ATOM     27  C   LIG    1      -20.521  85.958  13.698  0.00  0.00    +0.098 C 
ATOM     28  C   LIG    1      -20.827  85.908  12.200  0.00  0.00    +0.016 C 
ATOM     29  C   LIG    1      -21.960  86.845  11.780  0.00  0.00    +0.023 C 
ATOM     30  C   LIG    1      -23.239  86.634  12.602  0.00  0.00    +0.073 C 
ATOM     31  C   LIG    1      -22.920  86.768  14.100  0.00  0.00    +0.023 C 
ATOM     32  C   LIG    1      -21.789  85.835  14.548  0.00  0.00    +0.016 C 
BRANCH  27  33
ATOM     33  C   LIG    1      -19.721  87.198  14.078  0.00  0.00    +0.308 C 
ATOM     34  O   LIG    1      -18.997  87.824  13.320  0.00  0.00    -0.251 OA
BRANCH  33  35
ATOM     35  O   LIG    1      -19.898  87.572  15.365  0.00  0.00    -0.480 OA
ATOM     36  H   LIG    1      -20.832  87.668  15.630  0.00  0.00    +0.295 HD
ENDBRANCH  33  35
ENDBRANCH  27  33
ENDBRANCH  23  30
ENDBRANCH   1  25
TORSDOF 6
ENDMDL
MODEL 3
REMARK VINA RESULT:      -5.5      1.672      2.315
REMARK  Name = pdb/CHEMBL3675911.pdb
REMARK                            x       y       z     vdW  Elec       q    Type
REMARK                         _______ _______ _______ _____ _____    ______ ____
ROOT
ATOM      1  C   LIG    1      -22.814  76.832  30.456  0.00  0.00    +0.100 A 
ATOM      2  C   LIG    1      -21.957  77.405  31.369  0.00  0.00    +0.170 A 
ATOM      3  N   LIG    1      -22.183  78.011  32.580  0.00  0.00    -0.212 NA
ATOM      4  C   LIG    1      -21.162  78.569  33.196  0.00  0.00    +0.126 A 
ATOM      5  C   LIG    1      -19.763  78.509  32.628  0.00  0.00    +0.063 A 
ATOM      6  C   LIG    1      -19.599  77.895  31.452  0.00  0.00    +0.118 A 
ATOM      7  N   LIG    1      -20.685  77.343  30.799  0.00  0.00    -0.221 N 
ATOM      8  N   LIG    1      -20.698  76.749  29.585  0.00  0.00    -0.173 NA
ATOM      9  C   LIG    1      -21.986  76.474  29.373  0.00  0.00    +0.150 A 
ENDROOT
BRANCH   4  10
ATOM     10  N   LIG    1      -21.398  79.250  34.379  0.00  0.00    -0.308 N 
ATOM     11  C   LIG    1      -22.697  79.805  34.785  0.00  0.00    +0.108 C 
ATOM     12  C   LIG    1      -22.285  81.167  35.361  0.00  0.00    +0.029 C 
ATOM     13  C   LIG    1      -20.988  80.855  36.086  0.00  0.00    +0.021 C 
ATOM     14  C   LIG    1      -20.310  79.856  35.155  0.00  0.00    +0.107 C 
BRANCH  11  15
ATOM     15  C   LIG    1      -23.419  78.904  35.775  0.00  0.00    +0.011 A 
ATOM     16  C   LIG    1      -24.631  79.314  36.354  0.00  0.00    +0.129 A 
ATOM     17  F   LIG    1      -25.161  80.499  36.024  0.00  0.00    -0.205 F 
ATOM     18  C   LIG    1      -25.317  78.516  37.275  0.00  0.00    +0.041 A 
ATOM     19  C   LIG    1      -24.807  77.269  37.625  0.00  0.00    +0.041 A 
ATOM     20  C   LIG    1      -23.622  76.836  37.044  0.00  0.00    +0.124 A 
ATOM     21  F   LIG    1      -23.129  75.634  37.365  0.00  0.00    -0.205 F 
ATOM     22  C   LIG    1      -22.935  77.632  36.132  0.00  0.00    +0.046 A 
ENDBRANCH  11  15
ENDBRANCH   4  10
BRANCH   1  25
ATOM     23  N   LIG    1      -24.703  75.953  31.622  0.00  0.00    -0.308 N 
ATOM     24  H   LIG    1      -23.991  75.615  32.262  0.00  0.00    +0.149 HD
ATOM     25  C   LIG    1      -24.255  76.669  30.529  0.00  0.00    +0.249 C 
ATOM     26  O   LIG    1      -24.987  77.149  29.685  0.00  0.00    -0.270 OA
BRANCH  23  30
ATOM     27  C   LIG    1      -26.466  75.875  34.844  0.00  0.00    +0.098 C 
ATOM     28  C   LIG    1      -26.391  77.109  33.943  0.00  0.00    +0.016 C 
ATOM     29  C   LIG    1      -26.844  76.842  32.507  0.00  0.00    +0.023 C 
ATOM     30  C   LIG    1      -26.109  75.656  31.865  0.00  0.00    +0.073 C 
ATOM     31  C   LIG    1      -26.267  74.409  32.750  0.00  0.00    +0.023 C 
ATOM     32  C   LIG    1      -25.816  74.649  34.195  0.00  0.00    +0.016 C 
BRANCH  27  33
ATOM     33  C   LIG    1      -27.893  75.573  35.283  0.00  0.00    +0.308 C 
ATOM     34  O   LIG    1      -28.378  74.455  35.372  0.00  0.00    -0.251 OA
BRANCH  33  35
ATOM     35  O   LIG    1      -28.600  76.682  35.595  0.00  0.00    -0.480 OA
ATOM     36  H   LIG    1      -28.745  76.810  36.551  0.00  0.00    +0.295 HD
ENDBRANCH  33  35
ENDBRANCH  27  33
ENDBRANCH  23  30
ENDBRANCH   1  25
TORSDOF 6
ENDMDL
MODEL 4
REMARK VINA RESULT:      -5.4     13.551     16.864
REMARK  Name = pdb/CHEMBL3675911.pdb
REMARK                            x       y       z     vdW  Elec       q    Type
REMARK                         _______ _______ _______ _____ _____    ______ ____
ROOT
ATOM      1  C   LIG    1      -39.289  82.076  24.598  0.00  0.00    +0.100 A 
ATOM      2  C   LIG    1      -38.206  82.552  25.304  0.00  0.00    +0.170 A 
ATOM      3  N   LIG    1      -37.541  82.059  26.399  0.00  0.00    -0.212 NA
ATOM      4  C   LIG    1      -36.589  82.796  26.932  0.00  0.00    +0.126 A 
ATOM      5  C   LIG    1      -36.188  84.125  26.337  0.00  0.00    +0.063 A 
ATOM      6  C   LIG    1      -36.861  84.551  25.263  0.00  0.00    +0.118 A 
ATOM      7  N   LIG    1      -37.882  83.783  24.734  0.00  0.00    -0.221 N 
ATOM      8  N   LIG    1      -38.693  84.097  23.700  0.00  0.00    -0.173 NA
ATOM      9  C   LIG    1      -39.556  83.081  23.645  0.00  0.00    +0.150 A 
ENDROOT
BRANCH   4  10
ATOM     10  N   LIG    1      -35.969  82.339  28.084  0.00  0.00    -0.308 N 
ATOM     11  C   LIG    1      -36.278  81.071  28.760  0.00  0.00    +0.108 C 
ATOM     12  C   LIG    1      -36.266  81.496  30.235  0.00  0.00    +0.029 C 
ATOM     13  C   LIG    1      -35.114  82.482  30.298  0.00  0.00    +0.021 C 
ATOM     14  C   LIG    1      -35.243  83.243  28.983  0.00  0.00    +0.107 C 
BRANCH  11  15
ATOM     15  C   LIG    1      -35.273  79.981  28.418  0.00  0.00    +0.011 A 
ATOM     16  C   LIG    1      -35.489  78.661  28.841  0.00  0.00    +0.129 A 
ATOM     17  F   LIG    1      -36.592  78.354  29.538  0.00  0.00    -0.205 F 
ATOM     18  C   LIG    1      -34.582  77.635  28.555  0.00  0.00    +0.041 A 
ATOM     19  C   LIG    1      -33.436  77.912  27.814  0.00  0.00    +0.041 A 
ATOM     20  C   LIG    1      -33.218  79.208  27.366  0.00  0.00    +0.124 A 
ATOM     21  F   LIG    1      -32.126  79.484  26.644  0.00  0.00    -0.205 F 
ATOM     22  C   LIG    1      -34.117  80.231  27.656  0.00  0.00    +0.046 A 
ENDBRANCH  11  15
ENDBRANCH   4  10
BRANCH   1  25
ATOM     23  N   LIG    1      -39.319  79.797  25.308  0.00  0.00    -0.308 N 
ATOM     24  H   LIG    1      -38.337  79.975  25.496  0.00  0.00    +0.149 HD
ATOM     25  C   LIG    1      -40.047  80.854  24.795  0.00  0.00    +0.249 C 
ATOM     26  O   LIG    1      -41.233  80.798  24.535  0.00  0.00    -0.270 OA
BRANCH  23  30
ATOM     27  C   LIG    1      -37.677  76.531  24.940  0.00  0.00    +0.098 C 
ATOM     28  C   LIG    1      -37.722  77.321  26.250  0.00  0.00    +0.016 C 
ATOM     29  C   LIG    1      -39.136  77.729  26.665  0.00  0.00    +0.023 C 
ATOM     30  C   LIG    1      -39.886  78.477  25.555  0.00  0.00    +0.073 C 
ATOM     31  C   LIG    1      -39.896  77.629  24.273  0.00  0.00    +0.023 C 
ATOM     32  C   LIG    1      -38.490  77.210  23.832  0.00  0.00    +0.016 C 
BRANCH  27  33
ATOM     33  C   LIG    1      -38.107  75.082  25.129  0.00  0.00    +0.308 C 
ATOM     34  O   LIG    1      -39.042  74.548  24.553  0.00  0.00    -0.251 OA
BRANCH  33  35
ATOM     35  O   LIG    1      -37.331  74.407  26.005  0.00  0.00    -0.480 OA
ATOM     36  H   LIG    1      -36.382  74.404  25.781  0.00  0.00    +0.295 HD
ENDBRANCH  33  35
ENDBRANCH  27  33
ENDBRANCH  23  30
ENDBRANCH   1  25
TORSDOF 6
ENDMDL
MODEL 5
REMARK VINA RESULT:      -5.4     18.546     22.173
REMARK  Name = pdb/CHEMBL3675911.pdb
REMARK                            x       y       z     vdW  Elec       q    Type
REMARK                         _______ _______ _______ _____ _____    ______ ____
ROOT
ATOM      1  C   LIG    1      -42.707  70.239  20.771  0.00  0.00    +0.100 A 
ATOM      2  C   LIG    1      -42.682  71.426  21.469  0.00  0.00    +0.170 A 
ATOM      3  N   LIG    1      -42.039  71.793  22.625  0.00  0.00    -0.212 NA
ATOM      4  C   LIG    1      -42.288  72.986  23.122  0.00  0.00    +0.126 A 
ATOM      5  C   LIG    1      -43.211  73.960  22.427  0.00  0.00    +0.063 A 
ATOM      6  C   LIG    1      -43.800  73.554  21.298  0.00  0.00    +0.118 A 
ATOM      7  N   LIG    1      -43.557  72.286  20.804  0.00  0.00    -0.221 N 
ATOM      8  N   LIG    1      -44.116  71.706  19.719  0.00  0.00    -0.173 NA
ATOM      9  C   LIG    1      -43.625  70.465  19.725  0.00  0.00    +0.150 A 
ENDROOT
BRANCH   4  10
ATOM     10  N   LIG    1      -41.704  73.332  24.330  0.00  0.00    -0.308 N 
ATOM     11  C   LIG    1      -40.266  73.244  24.625  0.00  0.00    +0.108 C 
ATOM     12  C   LIG    1      -40.277  72.667  26.047  0.00  0.00    +0.029 C 
ATOM     13  C   LIG    1      -41.455  73.373  26.695  0.00  0.00    +0.021 C 
ATOM     14  C   LIG    1      -42.482  73.423  25.570  0.00  0.00    +0.107 C 
BRANCH  11  15
ATOM     15  C   LIG    1      -39.574  74.593  24.506  0.00  0.00    +0.011 A 
ATOM     16  C   LIG    1      -38.231  74.737  24.889  0.00  0.00    +0.129 A 
ATOM     17  F   LIG    1      -37.551  73.679  25.348  0.00  0.00    -0.205 F 
ATOM     18  C   LIG    1      -37.566  75.964  24.803  0.00  0.00    +0.041 A 
ATOM     19  C   LIG    1      -38.235  77.081  24.309  0.00  0.00    +0.041 A 
ATOM     20  C   LIG    1      -39.557  76.952  23.903  0.00  0.00    +0.124 A 
ATOM     21  F   LIG    1      -40.206  78.015  23.416  0.00  0.00    -0.205 F 
ATOM     22  C   LIG    1      -40.222  75.732  23.994  0.00  0.00    +0.046 A 
ENDBRANCH  11  15
ENDBRANCH   4  10
BRANCH   1  25
ATOM     23  N   LIG    1      -40.803  69.144  21.706  0.00  0.00    -0.308 N 
ATOM     24  H   LIG    1      -40.525  70.095  21.929  0.00  0.00    +0.149 HD
ATOM     25  C   LIG    1      -42.009  68.996  21.049  0.00  0.00    +0.249 C 
ATOM     26  O   LIG    1      -42.481  67.923  20.730  0.00  0.00    -0.270 OA
BRANCH  23  30
ATOM     27  C   LIG    1      -37.131  69.075  21.789  0.00  0.00    +0.098 C 
ATOM     28  C   LIG    1      -38.006  69.395  23.004  0.00  0.00    +0.016 C 
ATOM     29  C   LIG    1      -39.069  68.332  23.283  0.00  0.00    +0.023 C 
ATOM     30  C   LIG    1      -39.937  68.025  22.055  0.00  0.00    +0.073 C 
ATOM     31  C   LIG    1      -39.039  67.629  20.872  0.00  0.00    +0.023 C 
ATOM     32  C   LIG    1      -37.966  68.681  20.567  0.00  0.00    +0.016 C 
BRANCH  27  33
ATOM     33  C   LIG    1      -36.080  68.017  22.103  0.00  0.00    +0.308 C 
ATOM     34  O   LIG    1      -35.940  66.967  21.495  0.00  0.00    -0.251 OA
BRANCH  33  35
ATOM     35  O   LIG    1      -35.276  68.356  23.134  0.00  0.00    -0.480 OA
ATOM     36  H   LIG    1      -35.590  68.052  24.006  0.00  0.00    +0.295 HD
ENDBRANCH  33  35
ENDBRANCH  27  33
ENDBRANCH  23  30
ENDBRANCH   1  25
TORSDOF 6
ENDMDL
MODEL 6
REMARK VINA RESULT:      -5.4     15.908     19.229
REMARK  Name = pdb/CHEMBL3675911.pdb
REMARK                            x       y       z     vdW  Elec       q    Type
REMARK                         _______ _______ _______ _____ _____    ______ ____
ROOT
ATOM      1  C   LIG    1      -37.146  68.617  22.851  0.00  0.00    +0.100 A 
ATOM      2  C   LIG    1      -38.072  69.590  23.158  0.00  0.00    +0.170 A 
ATOM      3  N   LIG    1      -38.038  70.635  24.047  0.00  0.00    -0.212 NA
ATOM      4  C   LIG    1      -39.131  71.353  24.203  0.00  0.00    +0.126 A 
ATOM      5  C   LIG    1      -40.381  71.083  23.398  0.00  0.00    +0.063 A 
ATOM      6  C   LIG    1      -40.352  70.060  22.538  0.00  0.00    +0.118 A 
ATOM      7  N   LIG    1      -39.210  69.293  22.408  0.00  0.00    -0.221 N 
ATOM      8  N   LIG    1      -39.041  68.196  21.636  0.00  0.00    -0.173 NA
ATOM      9  C   LIG    1      -37.809  67.778  21.932  0.00  0.00    +0.150 A 
ENDROOT
BRANCH   4  10
ATOM     10  N   LIG    1      -39.128  72.359  25.156  0.00  0.00    -0.308 N 
ATOM     11  C   LIG    1      -38.247  73.536  25.135  0.00  0.00    +0.108 C 
ATOM     12  C   LIG    1      -37.836  73.641  26.610  0.00  0.00    +0.029 C 
ATOM     13  C   LIG    1      -39.113  73.281  27.348  0.00  0.00    +0.021 C 
ATOM     14  C   LIG    1      -39.696  72.161  26.494  0.00  0.00    +0.107 C 
BRANCH  11  15
ATOM     15  C   LIG    1      -38.954  74.770  24.596  0.00  0.00    +0.011 A 
ATOM     16  C   LIG    1      -38.305  76.014  24.594  0.00  0.00    +0.129 A 
ATOM     17  F   LIG    1      -37.051  76.114  25.055  0.00  0.00    -0.205 F 
ATOM     18  C   LIG    1      -38.927  77.172  24.117  0.00  0.00    +0.041 A 
ATOM     19  C   LIG    1      -40.222  77.102  23.609  0.00  0.00    +0.041 A 
ATOM     20  C   LIG    1      -40.872  75.875  23.582  0.00  0.00    +0.124 A 
ATOM     21  F   LIG    1      -42.112  75.794  23.086  0.00  0.00    -0.205 F 
ATOM     22  C   LIG    1      -40.255  74.723  24.062  0.00  0.00    +0.046 A 
ENDBRANCH  11  15
ENDBRANCH   4  10
BRANCH   1  25
ATOM     23  N   LIG    1      -35.612  68.910  24.656  0.00  0.00    -0.308 N 
ATOM     24  H   LIG    1      -36.416  69.341  25.102  0.00  0.00    +0.149 HD
ATOM     25  C   LIG    1      -35.805  68.430  23.375  0.00  0.00    +0.249 C 
ATOM     26  O   LIG    1      -34.943  67.878  22.720  0.00  0.00    -0.270 OA
BRANCH  23  30
ATOM     27  C   LIG    1      -35.022  68.797  28.280  0.00  0.00    +0.098 C 
ATOM     28  C   LIG    1      -35.146  67.553  27.397  0.00  0.00    +0.016 C 
ATOM     29  C   LIG    1      -34.203  67.566  26.193  0.00  0.00    +0.023 C 
ATOM     30  C   LIG    1      -34.333  68.844  25.353  0.00  0.00    +0.073 C 
ATOM     31  C   LIG    1      -34.125  70.076  26.248  0.00  0.00    +0.023 C 
ATOM     32  C   LIG    1      -35.062  70.090  27.460  0.00  0.00    +0.016 C 
BRANCH  27  33
ATOM     33  C   LIG    1      -33.786  68.747  29.169  0.00  0.00    +0.308 C 
ATOM     34  O   LIG    1      -33.025  67.794  29.259  0.00  0.00    -0.251 OA
BRANCH  33  35
ATOM     35  O   LIG    1      -33.581  69.889  29.861  0.00  0.00    -0.480 OA
ATOM     36  H   LIG    1      -32.644  70.081  30.051  0.00  0.00    +0.295 HD
ENDBRANCH  33  35
ENDBRANCH  27  33
ENDBRANCH  23  30
ENDBRANCH   1  25
TORSDOF 6
ENDMDL
MODEL 7
REMARK VINA RESULT:      -5.4     18.133     20.531
REMARK  Name = pdb/CHEMBL3675911.pdb
REMARK                            x       y       z     vdW  Elec       q    Type
REMARK                         _______ _______ _______ _____ _____    ______ ____
ROOT
ATOM      1  C   LIG    1      -20.305  81.297  15.139  0.00  0.00    +0.100 A 
ATOM      2  C   LIG    1      -19.404  82.167  14.565  0.00  0.00    +0.170 A 
ATOM      3  N   LIG    1      -19.545  83.448  14.092  0.00  0.00    -0.212 NA
ATOM      4  C   LIG    1      -18.514  84.004  13.491  0.00  0.00    +0.126 A 
ATOM      5  C   LIG    1      -17.189  83.290  13.361  0.00  0.00    +0.063 A 
ATOM      6  C   LIG    1      -17.106  82.049  13.851  0.00  0.00    +0.118 A 
ATOM      7  N   LIG    1      -18.205  81.463  14.451  0.00  0.00    -0.221 N 
ATOM      8  N   LIG    1      -18.303  80.205  14.936  0.00  0.00    -0.173 NA
ATOM      9  C   LIG    1      -19.577  80.104  15.318  0.00  0.00    +0.150 A 
ENDROOT
BRANCH   4  10
ATOM     10  N   LIG    1      -18.674  85.266  12.941  0.00  0.00    -0.308 N 
ATOM     11  C   LIG    1      -19.850  85.708  12.176  0.00  0.00    +0.108 C 
ATOM     12  C   LIG    1      -19.196  86.489  11.028  0.00  0.00    +0.029 C 
ATOM     13  C   LIG    1      -18.042  87.201  11.711  0.00  0.00    +0.021 C 
ATOM     14  C   LIG    1      -17.534  86.157  12.699  0.00  0.00    +0.107 C 
BRANCH  11  15
ATOM     15  C   LIG    1      -20.807  86.532  13.024  0.00  0.00    +0.011 A 
ATOM     16  C   LIG    1      -21.881  87.209  12.425  0.00  0.00    +0.129 A 
ATOM     17  F   LIG    1      -22.073  87.119  11.103  0.00  0.00    -0.205 F 
ATOM     18  C   LIG    1      -22.774  87.984  13.172  0.00  0.00    +0.041 A 
ATOM     19  C   LIG    1      -22.619  88.082  14.552  0.00  0.00    +0.041 A 
ATOM     20  C   LIG    1      -21.576  87.400  15.165  0.00  0.00    +0.124 A 
ATOM     21  F   LIG    1      -21.424  87.478  16.492  0.00  0.00    -0.205 F 
ATOM     22  C   LIG    1      -20.682  86.633  14.422  0.00  0.00    +0.046 A 
ENDBRANCH  11  15
ENDBRANCH   4  10
BRANCH   1  25
ATOM     23  N   LIG    1      -22.562  80.545  14.943  0.00  0.00    -0.308 N 
ATOM     24  H   LIG    1      -22.133  79.796  14.409  0.00  0.00    +0.149 HD
ATOM     25  C   LIG    1      -21.708  81.505  15.451  0.00  0.00    +0.249 C 
ATOM     26  O   LIG    1      -22.072  82.451  16.121  0.00  0.00    -0.270 OA
BRANCH  23  30
ATOM     27  C   LIG    1      -25.055  78.169  13.663  0.00  0.00    +0.098 C 
ATOM     28  C   LIG    1      -24.410  78.066  15.047  0.00  0.00    +0.016 C 
ATOM     29  C   LIG    1      -24.528  79.349  15.870  0.00  0.00    +0.023 C 
ATOM     30  C   LIG    1      -24.009  80.583  15.120  0.00  0.00    +0.073 C 
ATOM     31  C   LIG    1      -24.730  80.710  13.769  0.00  0.00    +0.023 C 
ATOM     32  C   LIG    1      -24.623  79.438  12.921  0.00  0.00    +0.016 C 
BRANCH  27  33
ATOM     33  C   LIG    1      -26.574  78.061  13.730  0.00  0.00    +0.308 C 
ATOM     34  O   LIG    1      -27.345  78.490  12.885  0.00  0.00    -0.251 OA
BRANCH  33  35
ATOM     35  O   LIG    1      -27.013  77.413  14.831  0.00  0.00    -0.480 OA
ATOM     36  H   LIG    1      -27.806  76.865  14.685  0.00  0.00    +0.295 HD
ENDBRANCH  33  35
ENDBRANCH  27  33
ENDBRANCH  23  30
ENDBRANCH   1  25
TORSDOF 6
ENDMDL
MODEL 8
REMARK VINA RESULT:      -5.3     18.687     21.744
REMARK  Name = pdb/CHEMBL3675911.pdb
REMARK                            x       y       z     vdW  Elec       q    Type
REMARK                         _______ _______ _______ _____ _____    ______ ____
ROOT
ATOM      1  C   LIG    1      -25.458  83.860  11.307  0.00  0.00    +0.100 A 
ATOM      2  C   LIG    1      -25.146  82.723  12.019  0.00  0.00    +0.170 A 
ATOM      3  N   LIG    1      -24.268  82.504  13.052  0.00  0.00    -0.212 NA
ATOM      4  C   LIG    1      -24.102  81.268  13.473  0.00  0.00    +0.126 A 
ATOM      5  C   LIG    1      -24.884  80.116  12.887  0.00  0.00    +0.063 A 
ATOM      6  C   LIG    1      -25.734  80.390  11.892  0.00  0.00    +0.118 A 
ATOM      7  N   LIG    1      -25.875  81.687  11.435  0.00  0.00    -0.221 N 
ATOM      8  N   LIG    1      -26.638  82.117  10.406  0.00  0.00    -0.173 NA
ATOM      9  C   LIG    1      -26.357  83.418  10.315  0.00  0.00    +0.150 A 
ENDROOT
BRANCH   4  10
ATOM     10  N   LIG    1      -23.159  81.029  14.461  0.00  0.00    -0.308 N 
ATOM     11  C   LIG    1      -22.241  79.881  14.488  0.00  0.00    +0.108 C 
ATOM     12  C   LIG    1      -22.290  79.482  15.969  0.00  0.00    +0.029 C 
ATOM     13  C   LIG    1      -22.340  80.821  16.684  0.00  0.00    +0.021 C 
ATOM     14  C   LIG    1      -23.250  81.652  15.786  0.00  0.00    +0.107 C 
BRANCH  11  15
ATOM     15  C   LIG    1      -20.853  80.247  13.987  0.00  0.00    +0.011 A 
ATOM     16  C   LIG    1      -19.852  79.266  13.893  0.00  0.00    +0.129 A 
ATOM     17  F   LIG    1      -20.124  77.999  14.234  0.00  0.00    -0.205 F 
ATOM     18  C   LIG    1      -18.562  79.568  13.447  0.00  0.00    +0.041 A 
ATOM     19  C   LIG    1      -18.249  80.869  13.063  0.00  0.00    +0.041 A 
ATOM     20  C   LIG    1      -19.233  81.847  13.126  0.00  0.00    +0.124 A 
ATOM     21  F   LIG    1      -18.946  83.099  12.749  0.00  0.00    -0.205 F 
ATOM     22  C   LIG    1      -20.516  81.549  13.577  0.00  0.00    +0.046 A 
ENDBRANCH  11  15
ENDBRANCH   4  10
BRANCH   1  25
ATOM     23  N   LIG    1      -23.841  85.320  12.283  0.00  0.00    -0.308 N 
ATOM     24  H   LIG    1      -23.487  84.456  12.681  0.00  0.00    +0.149 HD
ATOM     25  C   LIG    1      -24.953  85.212  11.470  0.00  0.00    +0.249 C 
ATOM     26  O   LIG    1      -25.480  86.153  10.911  0.00  0.00    -0.270 OA
BRANCH  23  30
ATOM     27  C   LIG    1      -20.486  85.865  13.676  0.00  0.00    +0.098 C 
ATOM     28  C   LIG    1      -20.794  85.845  12.177  0.00  0.00    +0.016 C 
ATOM     29  C   LIG    1      -21.917  86.802  11.776  0.00  0.00    +0.023 C 
ATOM     30  C   LIG    1      -23.197  86.590  12.596  0.00  0.00    +0.073 C 
ATOM     31  C   LIG    1      -22.875  86.694  14.095  0.00  0.00    +0.023 C 
ATOM     32  C   LIG    1      -21.755  85.741  14.525  0.00  0.00    +0.016 C 
BRANCH  27  33
ATOM     33  C   LIG    1      -19.672  87.088  14.077  0.00  0.00    +0.308 C 
ATOM     34  O   LIG    1      -18.909  87.695  13.341  0.00  0.00    -0.251 OA
BRANCH  33  35
ATOM     35  O   LIG    1      -19.883  87.472  15.356  0.00  0.00    -0.480 OA
ATOM     36  H   LIG    1      -20.265  86.779  15.926  0.00  0.00    +0.295 HD
ENDBRANCH  33  35
ENDBRANCH  27  33
ENDBRANCH  23  30
ENDBRANCH   1  25
TORSDOF 6
ENDMDL
MODEL 9
REMARK VINA RESULT:      -5.3     13.566     17.615
REMARK  Name = pdb/CHEMBL3675911.pdb
REMARK                            x       y       z     vdW  Elec       q    Type
REMARK                         _______ _______ _______ _____ _____    ______ ____
ROOT
ATOM      1  C   LIG    1      -35.426  71.147  26.818  0.00  0.00    +0.100 A 
ATOM      2  C   LIG    1      -36.435  71.249  25.886  0.00  0.00    +0.170 A 
ATOM      3  N   LIG    1      -37.473  72.138  25.758  0.00  0.00    -0.212 NA
ATOM      4  C   LIG    1      -38.360  71.923  24.809  0.00  0.00    +0.126 A 
ATOM      5  C   LIG    1      -38.228  70.767  23.845  0.00  0.00    +0.063 A 
ATOM      6  C   LIG    1      -37.191  69.940  24.010  0.00  0.00    +0.118 A 
ATOM      7  N   LIG    1      -36.285  70.157  25.031  0.00  0.00    -0.221 N 
ATOM      8  N   LIG    1      -35.227  69.386  25.368  0.00  0.00    -0.173 NA
ATOM      9  C   LIG    1      -34.736  69.970  26.462  0.00  0.00    +0.150 A 
ENDROOT
BRANCH   4  10
ATOM     10  N   LIG    1      -39.453  72.771  24.724  0.00  0.00    -0.308 N 
ATOM     11  C   LIG    1      -39.944  73.623  25.817  0.00  0.00    +0.108 C 
ATOM     12  C   LIG    1      -41.462  73.437  25.696  0.00  0.00    +0.029 C 
ATOM     13  C   LIG    1      -41.684  73.400  24.194  0.00  0.00    +0.021 C 
ATOM     14  C   LIG    1      -40.483  72.608  23.692  0.00  0.00    +0.107 C 
BRANCH  11  15
ATOM     15  C   LIG    1      -39.479  75.064  25.671  0.00  0.00    +0.011 A 
ATOM     16  C   LIG    1      -39.832  76.023  26.633  0.00  0.00    +0.129 A 
ATOM     17  F   LIG    1      -40.571  75.667  27.692  0.00  0.00    -0.205 F 
ATOM     18  C   LIG    1      -39.433  77.359  26.526  0.00  0.00    +0.041 A 
ATOM     19  C   LIG    1      -38.645  77.762  25.450  0.00  0.00    +0.041 A 
ATOM     20  C   LIG    1      -38.266  76.822  24.502  0.00  0.00    +0.124 A 
ATOM     21  F   LIG    1      -37.500  77.195  23.470  0.00  0.00    -0.205 F 
ATOM     22  C   LIG    1      -38.669  75.493  24.604  0.00  0.00    +0.046 A 
ENDBRANCH  11  15
ENDBRANCH   4  10
BRANCH   1  25
ATOM     23  N   LIG    1      -35.396  73.344  27.753  0.00  0.00    -0.308 N 
ATOM     24  H   LIG    1      -35.758  73.600  26.839  0.00  0.00    +0.149 HD
ATOM     25  C   LIG    1      -35.139  72.002  27.957  0.00  0.00    +0.249 C 
ATOM     26  O   LIG    1      -34.719  71.542  29.001  0.00  0.00    -0.270 OA
BRANCH  23  30
ATOM     27  C   LIG    1      -34.326  76.817  27.220  0.00  0.00    +0.098 C 
ATOM     28  C   LIG    1      -35.789  76.383  27.329  0.00  0.00    +0.016 C 
ATOM     29  C   LIG    1      -36.090  75.573  28.591  0.00  0.00    +0.023 C 
ATOM     30  C   LIG    1      -35.152  74.369  28.759  0.00  0.00    +0.073 C 
ATOM     31  C   LIG    1      -33.690  74.842  28.726  0.00  0.00    +0.023 C 
ATOM     32  C   LIG    1      -33.361  75.653  27.468  0.00  0.00    +0.016 C 
BRANCH  27  33
ATOM     33  C   LIG    1      -34.009  77.998  28.129  0.00  0.00    +0.308 C 
ATOM     34  O   LIG    1      -34.826  78.814  28.528  0.00  0.00    -0.251 OA
BRANCH  33  35
ATOM     35  O   LIG    1      -32.707  78.062  28.485  0.00  0.00    -0.480 OA
ATOM     36  H   LIG    1      -32.108  78.346  27.770  0.00  0.00    +0.295 HD
ENDBRANCH  33  35
ENDBRANCH  27  33
ENDBRANCH  23  30
ENDBRANCH   1  25
TORSDOF 6
ENDMDL
