MODEL 1
REMARK VINA RESULT:      -5.6      0.000      0.000
REMARK  Name = pdb/CHEMBL3676017.pdb
REMARK                            x       y       z     vdW  Elec       q    Type
REMARK                         _______ _______ _______ _____ _____    ______ ____
ROOT
ATOM      1  C   LIG    1      -20.217  82.853  14.133  0.00  0.00    +0.126 A 
ATOM      2  N   LIG    1      -20.124  84.154  13.925  0.00  0.00    -0.212 NA
ATOM      3  C   LIG    1      -18.980  84.631  13.332  0.00  0.00    +0.170 A 
ATOM      4  C   LIG    1      -18.575  85.917  13.001  0.00  0.00    +0.100 A 
ATOM      5  C   LIG    1      -17.261  85.749  12.523  0.00  0.00    +0.150 A 
ATOM      6  N   LIG    1      -16.875  84.472  12.472  0.00  0.00    -0.173 NA
ATOM      7  N   LIG    1      -17.943  83.784  12.943  0.00  0.00    -0.221 N 
ATOM      8  C   LIG    1      -18.088  82.410  13.050  0.00  0.00    +0.118 A 
ATOM      9  C   LIG    1      -19.190  81.888  13.601  0.00  0.00    +0.063 A 
ENDROOT
BRANCH   1  11
ATOM     10  C   LIG    1      -22.735  82.711  14.658  0.00  0.00    +0.110 C 
ATOM     11  N   LIG    1      -21.300  82.396  14.864  0.00  0.00    -0.308 N 
ATOM     12  C   LIG    1      -21.094  81.594  16.068  0.00  0.00    +0.107 C 
ATOM     13  C   LIG    1      -22.448  81.534  16.749  0.00  0.00    +0.021 C 
ATOM     14  C   LIG    1      -23.434  81.712  15.604  0.00  0.00    +0.029 C 
BRANCH  10  16
ATOM     15  C   LIG    1      -23.395  83.623  12.327  0.00  0.00    +0.220 A 
ATOM     16  C   LIG    1      -23.223  82.553  13.225  0.00  0.00    +0.037 A 
ATOM     17  C   LIG    1      -23.552  81.275  12.733  0.00  0.00    +0.050 A 
ATOM     18  C   LIG    1      -23.967  81.108  11.421  0.00  0.00    +0.142 A 
ATOM     19  F   LIG    1      -24.261  79.891  10.951  0.00  0.00    -0.204 F 
ATOM     20  C   LIG    1      -24.061  82.213  10.609  0.00  0.00    +0.153 A 
ATOM     21  N   LIG    1      -23.785  83.461  11.036  0.00  0.00    -0.218 NA
BRANCH  15  23
ATOM     22  C   LIG    1      -24.073  85.870  12.113  0.00  0.00    +0.279 C 
ATOM     23  O   LIG    1      -23.196  84.921  12.752  0.00  0.00    -0.479 OA
ENDBRANCH  15  23
ENDBRANCH  10  16
ENDBRANCH   1  11
BRANCH   4  24
ATOM     24  C   LIG    1      -19.324  87.147  13.127  0.00  0.00    +0.249 C 
ATOM     25  N   LIG    1      -20.616  86.988  13.543  0.00  0.00    -0.309 N 
ATOM     26  H   LIG    1      -20.894  86.033  13.763  0.00  0.00    +0.149 HD
ATOM     27  O   LIG    1      -18.829  88.250  12.853  0.00  0.00    -0.270 OA
BRANCH  25  28
ATOM     28  C   LIG    1      -21.563  88.080  13.649  0.00  0.00    +0.138 C 
BRANCH  28  29
ATOM     29  C   LIG    1      -22.533  87.923  14.833  0.00  0.00    +0.157 C 
BRANCH  29  30
ATOM     30  O   LIG    1      -22.698  89.167  15.524  0.00  0.00    -0.388 OA
ATOM     31  H   LIG    1      -22.130  89.138  16.313  0.00  0.00    +0.210 HD
ENDBRANCH  29  30
BRANCH  29  32
ATOM     32  C   LIG    1      -22.085  86.849  15.832  0.00  0.00    +0.188 C 
BRANCH  32  33
ATOM     33  O   LIG    1      -21.165  87.345  16.789  0.00  0.00    -0.392 OA
ATOM     34  H   LIG    1      -20.866  88.220  16.489  0.00  0.00    +0.210 HD
ENDBRANCH  32  33
ENDBRANCH  29  32
ENDBRANCH  28  29
ENDBRANCH  25  28
ENDBRANCH   4  24
TORSDOF 9
ENDMDL
MODEL 2
REMARK VINA RESULT:      -5.6      2.369      3.863
REMARK  Name = pdb/CHEMBL3676017.pdb
REMARK                            x       y       z     vdW  Elec       q    Type
REMARK                         _______ _______ _______ _____ _____    ______ ____
ROOT
ATOM      1  C   LIG    1      -21.473  82.585  12.000  0.00  0.00    +0.126 A 
ATOM      2  N   LIG    1      -20.865  83.668  12.453  0.00  0.00    -0.212 NA
ATOM      3  C   LIG    1      -19.492  83.677  12.467  0.00  0.00    +0.170 A 
ATOM      4  C   LIG    1      -18.576  84.630  12.889  0.00  0.00    +0.100 A 
ATOM      5  C   LIG    1      -17.328  83.993  12.744  0.00  0.00    +0.150 A 
ATOM      6  N   LIG    1      -17.414  82.775  12.208  0.00  0.00    -0.173 NA
ATOM      7  N   LIG    1      -18.742  82.592  12.012  0.00  0.00    -0.221 N 
ATOM      8  C   LIG    1      -19.374  81.506  11.427  0.00  0.00    +0.118 A 
ATOM      9  C   LIG    1      -20.709  81.452  11.367  0.00  0.00    +0.063 A 
ENDROOT
BRANCH   1  11
ATOM     10  C   LIG    1      -23.650  81.497  12.844  0.00  0.00    +0.110 C 
ATOM     11  N   LIG    1      -22.849  82.521  12.129  0.00  0.00    -0.308 N 
ATOM     12  C   LIG    1      -23.703  83.467  11.416  0.00  0.00    +0.107 C 
ATOM     13  C   LIG    1      -25.112  82.921  11.552  0.00  0.00    +0.021 C 
ATOM     14  C   LIG    1      -25.062  82.118  12.843  0.00  0.00    +0.029 C 
BRANCH  10  16
ATOM     15  C   LIG    1      -22.789  79.917  14.707  0.00  0.00    +0.220 A 
ATOM     16  C   LIG    1      -23.178  81.194  14.260  0.00  0.00    +0.037 A 
ATOM     17  C   LIG    1      -23.131  82.224  15.219  0.00  0.00    +0.050 A 
ATOM     18  C   LIG    1      -22.674  81.974  16.504  0.00  0.00    +0.142 A 
ATOM     19  F   LIG    1      -22.614  82.958  17.407  0.00  0.00    -0.204 F 
ATOM     20  C   LIG    1      -22.275  80.699  16.829  0.00  0.00    +0.153 A 
ATOM     21  N   LIG    1      -22.324  79.672  15.959  0.00  0.00    -0.218 NA
BRANCH  15  23
ATOM     22  C   LIG    1      -23.937  77.909  14.260  0.00  0.00    +0.279 C 
ATOM     23  O   LIG    1      -22.900  78.827  13.866  0.00  0.00    -0.479 OA
ENDBRANCH  15  23
ENDBRANCH  10  16
ENDBRANCH   1  11
BRANCH   4  24
ATOM     24  C   LIG    1      -18.840  85.966  13.374  0.00  0.00    +0.249 C 
ATOM     25  N   LIG    1      -20.012  86.101  14.064  0.00  0.00    -0.309 N 
ATOM     26  H   LIG    1      -20.544  85.243  14.201  0.00  0.00    +0.149 HD
ATOM     27  O   LIG    1      -18.068  86.911  13.154  0.00  0.00    -0.270 OA
BRANCH  25  28
ATOM     28  C   LIG    1      -20.509  87.369  14.558  0.00  0.00    +0.138 C 
BRANCH  28  29
ATOM     29  C   LIG    1      -21.772  87.226  15.424  0.00  0.00    +0.157 C 
BRANCH  29  30
ATOM     30  O   LIG    1      -21.476  87.482  16.802  0.00  0.00    -0.388 OA
ATOM     31  H   LIG    1      -22.245  87.195  17.323  0.00  0.00    +0.210 HD
ENDBRANCH  29  30
BRANCH  29  32
ATOM     32  C   LIG    1      -22.426  85.844  15.299  0.00  0.00    +0.188 C 
BRANCH  32  33
ATOM     33  O   LIG    1      -22.956  85.607  14.006  0.00  0.00    -0.392 OA
ATOM     34  H   LIG    1      -23.644  84.925  14.087  0.00  0.00    +0.210 HD
ENDBRANCH  32  33
ENDBRANCH  29  32
ENDBRANCH  28  29
ENDBRANCH  25  28
ENDBRANCH   4  24
TORSDOF 9
ENDMDL
MODEL 3
REMARK VINA RESULT:      -5.1      2.656      6.283
REMARK  Name = pdb/CHEMBL3676017.pdb
REMARK                            x       y       z     vdW  Elec       q    Type
REMARK                         _______ _______ _______ _____ _____    ______ ____
ROOT
ATOM      1  C   LIG    1      -21.468  84.165  11.581  0.00  0.00    +0.126 A 
ATOM      2  N   LIG    1      -22.221  83.434  12.384  0.00  0.00    -0.212 NA
ATOM      3  C   LIG    1      -23.509  83.164  11.989  0.00  0.00    +0.170 A 
ATOM      4  C   LIG    1      -24.536  82.458  12.600  0.00  0.00    +0.100 A 
ATOM      5  C   LIG    1      -25.635  82.640  11.738  0.00  0.00    +0.150 A 
ATOM      6  N   LIG    1      -25.336  83.330  10.636  0.00  0.00    -0.173 NA
ATOM      7  N   LIG    1      -24.022  83.627  10.778  0.00  0.00    -0.221 N 
ATOM      8  C   LIG    1      -23.199  84.291   9.882  0.00  0.00    +0.118 A 
ATOM      9  C   LIG    1      -21.929  84.564  10.205  0.00  0.00    +0.063 A 
ENDROOT
BRANCH   1  11
ATOM     10  C   LIG    1      -19.758  85.939  12.332  0.00  0.00    +0.110 C 
ATOM     11  N   LIG    1      -20.227  84.560  12.049  0.00  0.00    -0.308 N 
ATOM     12  C   LIG    1      -19.151  83.585  12.207  0.00  0.00    +0.107 C 
ATOM     13  C   LIG    1      -17.896  84.405  12.444  0.00  0.00    +0.021 C 
ATOM     14  C   LIG    1      -18.419  85.694  13.058  0.00  0.00    +0.029 C 
BRANCH  10  16
ATOM     15  C   LIG    1      -21.339  87.949  12.738  0.00  0.00    +0.220 A 
ATOM     16  C   LIG    1      -20.706  86.774  13.183  0.00  0.00    +0.037 A 
ATOM     17  C   LIG    1      -20.979  86.390  14.509  0.00  0.00    +0.050 A 
ATOM     18  C   LIG    1      -21.865  87.119  15.288  0.00  0.00    +0.142 A 
ATOM     19  F   LIG    1      -22.136  86.741  16.542  0.00  0.00    -0.204 F 
ATOM     20  C   LIG    1      -22.466  88.230  14.746  0.00  0.00    +0.153 A 
ATOM     21  N   LIG    1      -22.220  88.656  13.492  0.00  0.00    -0.218 NA
BRANCH  15  23
ATOM     22  C   LIG    1      -22.103  88.234  10.527  0.00  0.00    +0.279 C 
ATOM     23  O   LIG    1      -21.052  88.458  11.487  0.00  0.00    -0.479 OA
ENDBRANCH  15  23
ENDBRANCH  10  16
ENDBRANCH   1  11
BRANCH   4  24
ATOM     24  C   LIG    1      -24.492  81.714  13.839  0.00  0.00    +0.249 C 
ATOM     25  N   LIG    1      -23.434  82.017  14.649  0.00  0.00    -0.309 N 
ATOM     26  H   LIG    1      -22.823  82.761  14.316  0.00  0.00    +0.149 HD
ATOM     27  O   LIG    1      -25.340  80.854  14.121  0.00  0.00    -0.270 OA
BRANCH  25  28
ATOM     28  C   LIG    1      -23.154  81.327  15.892  0.00  0.00    +0.138 C 
BRANCH  28  29
ATOM     29  C   LIG    1      -21.919  81.881  16.624  0.00  0.00    +0.157 C 
BRANCH  29  30
ATOM     30  O   LIG    1      -22.123  83.247  17.003  0.00  0.00    -0.388 OA
ATOM     31  H   LIG    1      -21.396  83.495  17.599  0.00  0.00    +0.210 HD
ENDBRANCH  29  30
BRANCH  29  32
ATOM     32  C   LIG    1      -20.636  81.777  15.789  0.00  0.00    +0.188 C 
BRANCH  32  33
ATOM     33  O   LIG    1      -20.379  82.951  15.038  0.00  0.00    -0.392 OA
ATOM     34  H   LIG    1      -19.771  83.508  15.554  0.00  0.00    +0.210 HD
ENDBRANCH  32  33
ENDBRANCH  29  32
ENDBRANCH  28  29
ENDBRANCH  25  28
ENDBRANCH   4  24
TORSDOF 9
ENDMDL
MODEL 4
REMARK VINA RESULT:      -5.0     18.413     21.592
REMARK  Name = pdb/CHEMBL3676017.pdb
REMARK                            x       y       z     vdW  Elec       q    Type
REMARK                         _______ _______ _______ _____ _____    ______ ____
ROOT
ATOM      1  C   LIG    1      -32.353  66.166  17.394  0.00  0.00    +0.126 A 
ATOM      2  N   LIG    1      -33.479  66.611  17.923  0.00  0.00    -0.212 NA
ATOM      3  C   LIG    1      -34.644  66.406  17.224  0.00  0.00    +0.170 A 
ATOM      4  C   LIG    1      -35.959  66.760  17.491  0.00  0.00    +0.100 A 
ATOM      5  C   LIG    1      -36.661  66.361  16.336  0.00  0.00    +0.150 A 
ATOM      6  N   LIG    1      -35.895  65.737  15.440  0.00  0.00    -0.173 NA
ATOM      7  N   LIG    1      -34.661  65.740  15.998  0.00  0.00    -0.221 N 
ATOM      8  C   LIG    1      -33.501  65.169  15.500  0.00  0.00    +0.118 A 
ATOM      9  C   LIG    1      -32.341  65.319  16.149  0.00  0.00    +0.063 A 
ENDROOT
BRANCH   1  11
ATOM     10  C   LIG    1      -30.110  67.424  17.538  0.00  0.00    +0.110 C 
ATOM     11  N   LIG    1      -31.169  66.507  18.025  0.00  0.00    -0.308 N 
ATOM     12  C   LIG    1      -30.779  65.850  19.270  0.00  0.00    +0.107 C 
ATOM     13  C   LIG    1      -29.333  66.247  19.499  0.00  0.00    +0.021 C 
ATOM     14  C   LIG    1      -29.208  67.581  18.780  0.00  0.00    +0.029 C 
BRANCH  10  16
ATOM     15  C   LIG    1      -30.734  69.120  15.684  0.00  0.00    +0.220 A 
ATOM     16  C   LIG    1      -30.613  68.773  17.042  0.00  0.00    +0.037 A 
ATOM     17  C   LIG    1      -30.971  69.770  17.968  0.00  0.00    +0.050 A 
ATOM     18  C   LIG    1      -31.462  70.993  17.536  0.00  0.00    +0.142 A 
ATOM     19  F   LIG    1      -31.818  71.932  18.419  0.00  0.00    -0.204 F 
ATOM     20  C   LIG    1      -31.584  71.219  16.186  0.00  0.00    +0.153 A 
ATOM     21  N   LIG    1      -31.231  70.310  15.257  0.00  0.00    -0.218 NA
BRANCH  15  23
ATOM     22  C   LIG    1      -29.705  68.901  13.575  0.00  0.00    +0.279 C 
ATOM     23  O   LIG    1      -30.310  68.243  14.705  0.00  0.00    -0.479 OA
ENDBRANCH  15  23
ENDBRANCH  10  16
ENDBRANCH   1  11
BRANCH   4  24
ATOM     24  C   LIG    1      -36.487  67.400  18.675  0.00  0.00    +0.249 C 
ATOM     25  N   LIG    1      -35.890  67.016  19.843  0.00  0.00    -0.309 N 
ATOM     26  H   LIG    1      -35.114  66.363  19.749  0.00  0.00    +0.149 HD
ATOM     27  O   LIG    1      -37.422  68.211  18.623  0.00  0.00    -0.270 OA
BRANCH  25  28
ATOM     28  C   LIG    1      -36.326  67.468  21.150  0.00  0.00    +0.138 C 
BRANCH  28  29
ATOM     29  C   LIG    1      -35.392  67.014  22.286  0.00  0.00    +0.157 C 
BRANCH  29  30
ATOM     30  O   LIG    1      -34.884  68.142  23.008  0.00  0.00    -0.388 OA
ATOM     31  H   LIG    1      -35.642  68.582  23.430  0.00  0.00    +0.210 HD
ENDBRANCH  29  30
BRANCH  29  32
ATOM     32  C   LIG    1      -34.216  66.166  21.787  0.00  0.00    +0.188 C 
BRANCH  32  33
ATOM     33  O   LIG    1      -33.267  66.926  21.059  0.00  0.00    -0.392 OA
ATOM     34  H   LIG    1      -33.114  66.477  20.210  0.00  0.00    +0.210 HD
ENDBRANCH  32  33
ENDBRANCH  29  32
ENDBRANCH  28  29
ENDBRANCH  25  28
ENDBRANCH   4  24
TORSDOF 9
ENDMDL
MODEL 5
REMARK VINA RESULT:      -4.9     18.608     21.870
REMARK  Name = pdb/CHEMBL3676017.pdb
REMARK                            x       y       z     vdW  Elec       q    Type
REMARK                         _______ _______ _______ _____ _____    ______ ____
ROOT
ATOM      1  C   LIG    1      -32.142  68.112  16.836  0.00  0.00    +0.126 A 
ATOM      2  N   LIG    1      -33.348  67.969  17.358  0.00  0.00    -0.212 NA
ATOM      3  C   LIG    1      -34.244  67.165  16.697  0.00  0.00    +0.170 A 
ATOM      4  C   LIG    1      -35.564  66.832  16.966  0.00  0.00    +0.100 A 
ATOM      5  C   LIG    1      -35.956  66.060  15.855  0.00  0.00    +0.150 A 
ATOM      6  N   LIG    1      -34.967  65.844  14.985  0.00  0.00    -0.173 NA
ATOM      7  N   LIG    1      -33.908  66.500  15.517  0.00  0.00    -0.221 N 
ATOM      8  C   LIG    1      -32.610  66.553  15.034  0.00  0.00    +0.118 A 
ATOM      9  C   LIG    1      -31.690  67.305  15.649  0.00  0.00    +0.063 A 
ENDROOT
BRANCH   1  11
ATOM     10  C   LIG    1      -30.495  68.885  18.659  0.00  0.00    +0.110 C 
ATOM     11  N   LIG    1      -31.297  69.039  17.420  0.00  0.00    -0.308 N 
ATOM     12  C   LIG    1      -31.205  70.396  16.887  0.00  0.00    +0.107 C 
ATOM     13  C   LIG    1      -30.437  71.187  17.929  0.00  0.00    +0.021 C 
ATOM     14  C   LIG    1      -29.590  70.134  18.627  0.00  0.00    +0.029 C 
BRANCH  10  16
ATOM     15  C   LIG    1      -30.163  66.377  19.211  0.00  0.00    +0.220 A 
ATOM     16  C   LIG    1      -29.672  67.606  18.731  0.00  0.00    +0.037 A 
ATOM     17  C   LIG    1      -28.326  67.614  18.320  0.00  0.00    +0.050 A 
ATOM     18  C   LIG    1      -27.571  66.451  18.348  0.00  0.00    +0.142 A 
ATOM     19  F   LIG    1      -26.297  66.459  17.940  0.00  0.00    -0.204 F 
ATOM     20  C   LIG    1      -28.157  65.290  18.794  0.00  0.00    +0.153 A 
ATOM     21  N   LIG    1      -29.433  65.233  19.224  0.00  0.00    -0.218 NA
BRANCH  15  23
ATOM     22  C   LIG    1      -32.197  65.187  19.213  0.00  0.00    +0.279 C 
ATOM     23  O   LIG    1      -31.440  66.299  19.731  0.00  0.00    -0.479 OA
ENDBRANCH  15  23
ENDBRANCH  10  16
ENDBRANCH   1  11
BRANCH   4  24
ATOM     24  C   LIG    1      -36.359  67.198  18.117  0.00  0.00    +0.249 C 
ATOM     25  N   LIG    1      -35.748  66.986  19.322  0.00  0.00    -0.309 N 
ATOM     26  H   LIG    1      -34.792  66.640  19.277  0.00  0.00    +0.149 HD
ATOM     27  O   LIG    1      -37.509  67.646  18.008  0.00  0.00    -0.270 OA
BRANCH  25  28
ATOM     28  C   LIG    1      -36.400  67.202  20.598  0.00  0.00    +0.138 C 
BRANCH  28  29
ATOM     29  C   LIG    1      -36.001  66.165  21.662  0.00  0.00    +0.157 C 
BRANCH  29  30
ATOM     30  O   LIG    1      -37.075  65.940  22.582  0.00  0.00    -0.388 OA
ATOM     31  H   LIG    1      -36.702  65.976  23.479  0.00  0.00    +0.210 HD
ENDBRANCH  29  30
BRANCH  29  32
ATOM     32  C   LIG    1      -34.745  66.568  22.445  0.00  0.00    +0.188 C 
BRANCH  32  33
ATOM     33  O   LIG    1      -33.696  67.013  21.601  0.00  0.00    -0.392 OA
ATOM     34  H   LIG    1      -32.892  66.524  21.844  0.00  0.00    +0.210 HD
ENDBRANCH  32  33
ENDBRANCH  29  32
ENDBRANCH  28  29
ENDBRANCH  25  28
ENDBRANCH   4  24
TORSDOF 9
ENDMDL
MODEL 6
REMARK VINA RESULT:      -4.9     19.317     22.664
REMARK  Name = pdb/CHEMBL3676017.pdb
REMARK                            x       y       z     vdW  Elec       q    Type
REMARK                         _______ _______ _______ _____ _____    ______ ____
ROOT
ATOM      1  C   LIG    1      -37.297  77.121  27.664  0.00  0.00    +0.126 A 
ATOM      2  N   LIG    1      -37.380  75.882  27.215  0.00  0.00    -0.212 NA
ATOM      3  C   LIG    1      -38.143  75.653  26.095  0.00  0.00    +0.170 A 
ATOM      4  C   LIG    1      -38.442  74.489  25.399  0.00  0.00    +0.100 A 
ATOM      5  C   LIG    1      -39.358  74.906  24.414  0.00  0.00    +0.150 A 
ATOM      6  N   LIG    1      -39.576  76.222  24.416  0.00  0.00    -0.173 NA
ATOM      7  N   LIG    1      -38.807  76.684  25.431  0.00  0.00    -0.221 N 
ATOM      8  C   LIG    1      -38.625  77.999  25.830  0.00  0.00    +0.118 A 
ATOM      9  C   LIG    1      -37.876  78.283  26.902  0.00  0.00    +0.063 A 
ENDROOT
BRANCH   1  11
ATOM     10  C   LIG    1      -35.210  77.172  29.173  0.00  0.00    +0.110 C 
ATOM     11  N   LIG    1      -36.656  77.323  28.874  0.00  0.00    -0.308 N 
ATOM     12  C   LIG    1      -37.426  77.612  30.081  0.00  0.00    +0.107 C 
ATOM     13  C   LIG    1      -36.443  77.477  31.229  0.00  0.00    +0.021 C 
ATOM     14  C   LIG    1      -35.098  77.780  30.587  0.00  0.00    +0.029 C 
BRANCH  10  16
ATOM     15  C   LIG    1      -34.337  79.245  27.892  0.00  0.00    +0.220 A 
ATOM     16  C   LIG    1      -34.279  77.872  28.193  0.00  0.00    +0.037 A 
ATOM     17  C   LIG    1      -33.297  77.131  27.508  0.00  0.00    +0.050 A 
ATOM     18  C   LIG    1      -32.420  77.757  26.636  0.00  0.00    +0.142 A 
ATOM     19  F   LIG    1      -31.476  77.053  26.001  0.00  0.00    -0.204 F 
ATOM     20  C   LIG    1      -32.530  79.113  26.443  0.00  0.00    +0.153 A 
ATOM     21  N   LIG    1      -33.469  79.865  27.052  0.00  0.00    -0.218 NA
BRANCH  15  23
ATOM     22  C   LIG    1      -35.564  81.248  27.702  0.00  0.00    +0.279 C 
ATOM     23  O   LIG    1      -35.333  80.031  28.437  0.00  0.00    -0.479 OA
ENDBRANCH  15  23
ENDBRANCH  10  16
ENDBRANCH   1  11
BRANCH   4  24
ATOM     24  C   LIG    1      -37.937  73.156  25.635  0.00  0.00    +0.249 C 
ATOM     25  N   LIG    1      -37.557  72.910  26.925  0.00  0.00    -0.309 N 
ATOM     26  H   LIG    1      -37.714  73.670  27.584  0.00  0.00    +0.149 HD
ATOM     27  O   LIG    1      -37.838  72.318  24.726  0.00  0.00    -0.270 OA
BRANCH  25  28
ATOM     28  C   LIG    1      -36.943  71.670  27.356  0.00  0.00    +0.138 C 
BRANCH  28  29
ATOM     29  C   LIG    1      -35.417  71.779  27.522  0.00  0.00    +0.157 C 
BRANCH  29  30
ATOM     30  O   LIG    1      -35.000  73.149  27.503  0.00  0.00    -0.388 OA
ATOM     31  H   LIG    1      -35.599  73.643  28.088  0.00  0.00    +0.210 HD
ENDBRANCH  29  30
BRANCH  29  32
ATOM     32  C   LIG    1      -34.645  71.003  26.448  0.00  0.00    +0.188 C 
BRANCH  32  33
ATOM     33  O   LIG    1      -35.223  71.134  25.160  0.00  0.00    -0.392 OA
ATOM     34  H   LIG    1      -34.947  71.993  24.796  0.00  0.00    +0.210 HD
ENDBRANCH  32  33
ENDBRANCH  29  32
ENDBRANCH  28  29
ENDBRANCH  25  28
ENDBRANCH   4  24
TORSDOF 9
ENDMDL
MODEL 7
REMARK VINA RESULT:      -4.8     18.707     21.949
REMARK  Name = pdb/CHEMBL3676017.pdb
REMARK                            x       y       z     vdW  Elec       q    Type
REMARK                         _______ _______ _______ _____ _____    ______ ____
ROOT
ATOM      1  C   LIG    1      -21.351  76.391  33.875  0.00  0.00    +0.126 A 
ATOM      2  N   LIG    1      -22.410  76.431  33.086  0.00  0.00    -0.212 NA
ATOM      3  C   LIG    1      -22.206  76.667  31.748  0.00  0.00    +0.170 A 
ATOM      4  C   LIG    1      -23.089  76.787  30.683  0.00  0.00    +0.100 A 
ATOM      5  C   LIG    1      -22.266  77.136  29.595  0.00  0.00    +0.150 A 
ATOM      6  N   LIG    1      -20.967  77.165  29.900  0.00  0.00    -0.173 NA
ATOM      7  N   LIG    1      -20.929  76.849  31.217  0.00  0.00    -0.221 N 
ATOM      8  C   LIG    1      -19.812  76.688  32.021  0.00  0.00    +0.118 A 
ATOM      9  C   LIG    1      -19.950  76.437  33.328  0.00  0.00    +0.063 A 
ENDROOT
BRANCH   1  11
ATOM     10  C   LIG    1      -21.249  77.314  36.278  0.00  0.00    +0.110 C 
ATOM     11  N   LIG    1      -21.571  76.305  35.239  0.00  0.00    -0.308 N 
ATOM     12  C   LIG    1      -22.073  75.068  35.831  0.00  0.00    +0.107 C 
ATOM     13  C   LIG    1      -21.909  75.241  37.329  0.00  0.00    +0.021 C 
ATOM     14  C   LIG    1      -21.962  76.749  37.524  0.00  0.00    +0.029 C 
BRANCH  10  16
ATOM     15  C   LIG    1      -20.857  79.806  35.695  0.00  0.00    +0.220 A 
ATOM     16  C   LIG    1      -21.720  78.727  35.963  0.00  0.00    +0.037 A 
ATOM     17  C   LIG    1      -23.097  79.020  35.946  0.00  0.00    +0.050 A 
ATOM     18  C   LIG    1      -23.545  80.293  35.629  0.00  0.00    +0.142 A 
ATOM     19  F   LIG    1      -24.855  80.563  35.597  0.00  0.00    -0.204 F 
ATOM     20  C   LIG    1      -22.622  81.269  35.339  0.00  0.00    +0.153 A 
ATOM     21  N   LIG    1      -21.293  81.050  35.367  0.00  0.00    -0.218 NA
BRANCH  15  23
ATOM     22  C   LIG    1      -18.953  80.045  37.063  0.00  0.00    +0.279 C 
ATOM     23  O   LIG    1      -19.490  79.637  35.789  0.00  0.00    -0.479 OA
ENDBRANCH  15  23
ENDBRANCH  10  16
ENDBRANCH   1  11
BRANCH   4  24
ATOM     24  C   LIG    1      -24.523  76.604  30.690  0.00  0.00    +0.249 C 
ATOM     25  N   LIG    1      -24.991  75.808  31.697  0.00  0.00    -0.309 N 
ATOM     26  H   LIG    1      -24.291  75.472  32.355  0.00  0.00    +0.149 HD
ATOM     27  O   LIG    1      -25.256  77.115  29.830  0.00  0.00    -0.270 OA
BRANCH  25  28
ATOM     28  C   LIG    1      -26.382  75.425  31.834  0.00  0.00    +0.138 C 
BRANCH  28  29
ATOM     29  C   LIG    1      -27.232  76.487  32.554  0.00  0.00    +0.157 C 
BRANCH  29  30
ATOM     30  O   LIG    1      -27.535  77.577  31.675  0.00  0.00    -0.388 OA
ATOM     31  H   LIG    1      -27.109  78.371  32.040  0.00  0.00    +0.210 HD
ENDBRANCH  29  30
BRANCH  29  32
ATOM     32  C   LIG    1      -26.556  77.033  33.817  0.00  0.00    +0.188 C 
BRANCH  32  33
ATOM     33  O   LIG    1      -25.689  78.121  33.545  0.00  0.00    -0.392 OA
ATOM     34  H   LIG    1      -24.788  77.768  33.452  0.00  0.00    +0.210 HD
ENDBRANCH  32  33
ENDBRANCH  29  32
ENDBRANCH  28  29
ENDBRANCH  25  28
ENDBRANCH   4  24
TORSDOF 9
ENDMDL
MODEL 8
REMARK VINA RESULT:      -4.8     19.225     21.811
REMARK  Name = pdb/CHEMBL3676017.pdb
REMARK                            x       y       z     vdW  Elec       q    Type
REMARK                         _______ _______ _______ _____ _____    ______ ____
ROOT
ATOM      1  C   LIG    1      -32.541  75.156  31.437  0.00  0.00    +0.126 A 
ATOM      2  N   LIG    1      -31.319  75.656  31.433  0.00  0.00    -0.212 NA
ATOM      3  C   LIG    1      -30.931  76.418  32.509  0.00  0.00    +0.170 A 
ATOM      4  C   LIG    1      -29.748  77.086  32.794  0.00  0.00    +0.100 A 
ATOM      5  C   LIG    1      -30.022  77.769  33.995  0.00  0.00    +0.150 A 
ATOM      6  N   LIG    1      -31.235  77.510  34.487  0.00  0.00    -0.173 NA
ATOM      7  N   LIG    1      -31.782  76.657  33.588  0.00  0.00    -0.221 N 
ATOM      8  C   LIG    1      -33.020  76.036  33.650  0.00  0.00    +0.118 A 
ATOM      9  C   LIG    1      -33.441  75.266  32.640  0.00  0.00    +0.063 A 
ENDROOT
BRANCH   1  11
ATOM     10  C   LIG    1      -33.954  75.017  29.288  0.00  0.00    +0.110 C 
ATOM     11  N   LIG    1      -32.977  74.520  30.288  0.00  0.00    -0.308 N 
ATOM     12  C   LIG    1      -32.568  73.147  30.002  0.00  0.00    +0.107 C 
ATOM     13  C   LIG    1      -33.452  72.693  28.855  0.00  0.00    +0.021 C 
ATOM     14  C   LIG    1      -33.812  73.990  28.145  0.00  0.00    +0.029 C 
BRANCH  10  16
ATOM     15  C   LIG    1      -34.214  77.590  29.408  0.00  0.00    +0.220 A 
ATOM     16  C   LIG    1      -33.696  76.434  28.795  0.00  0.00    +0.037 A 
ATOM     17  C   LIG    1      -32.910  76.644  27.646  0.00  0.00    +0.050 A 
ATOM     18  C   LIG    1      -32.637  77.929  27.202  0.00  0.00    +0.142 A 
ATOM     19  F   LIG    1      -31.876  78.127  26.120  0.00  0.00    -0.204 F 
ATOM     20  C   LIG    1      -33.156  78.996  27.897  0.00  0.00    +0.153 A 
ATOM     21  N   LIG    1      -33.935  78.850  28.986  0.00  0.00    -0.218 NA
BRANCH  15  23
ATOM     22  C   LIG    1      -34.856  78.471  31.497  0.00  0.00    +0.279 C 
ATOM     23  O   LIG    1      -35.079  77.476  30.479  0.00  0.00    -0.479 OA
ENDBRANCH  15  23
ENDBRANCH  10  16
ENDBRANCH   1  11
BRANCH   4  24
ATOM     24  C   LIG    1      -28.521  77.090  32.030  0.00  0.00    +0.249 C 
ATOM     25  N   LIG    1      -27.658  76.074  32.334  0.00  0.00    -0.309 N 
ATOM     26  H   LIG    1      -27.991  75.405  33.026  0.00  0.00    +0.149 HD
ATOM     27  O   LIG    1      -28.273  77.963  31.186  0.00  0.00    -0.270 OA
BRANCH  25  28
ATOM     28  C   LIG    1      -26.338  75.944  31.750  0.00  0.00    +0.138 C 
BRANCH  28  29
ATOM     29  C   LIG    1      -25.367  77.048  32.205  0.00  0.00    +0.157 C 
BRANCH  29  30
ATOM     30  O   LIG    1      -25.955  77.850  33.235  0.00  0.00    -0.388 OA
ATOM     31  H   LIG    1      -26.920  77.802  33.125  0.00  0.00    +0.210 HD
ENDBRANCH  29  30
BRANCH  29  32
ATOM     32  C   LIG    1      -24.920  77.957  31.054  0.00  0.00    +0.188 C 
BRANCH  32  33
ATOM     33  O   LIG    1      -25.321  77.469  29.786  0.00  0.00    -0.392 OA
ATOM     34  H   LIG    1      -24.679  76.793  29.510  0.00  0.00    +0.210 HD
ENDBRANCH  32  33
ENDBRANCH  29  32
ENDBRANCH  28  29
ENDBRANCH  25  28
ENDBRANCH   4  24
TORSDOF 9
ENDMDL
MODEL 9
REMARK VINA RESULT:      -4.8     18.951     21.895
REMARK  Name = pdb/CHEMBL3676017.pdb
REMARK                            x       y       z     vdW  Elec       q    Type
REMARK                         _______ _______ _______ _____ _____    ______ ____
ROOT
ATOM      1  C   LIG    1      -22.215  77.969  34.589  0.00  0.00    +0.126 A 
ATOM      2  N   LIG    1      -23.067  78.808  35.152  0.00  0.00    -0.212 NA
ATOM      3  C   LIG    1      -22.623  80.074  35.447  0.00  0.00    +0.170 A 
ATOM      4  C   LIG    1      -23.249  81.160  36.044  0.00  0.00    +0.100 A 
ATOM      5  C   LIG    1      -22.227  82.123  36.159  0.00  0.00    +0.150 A 
ATOM      6  N   LIG    1      -21.070  81.734  35.620  0.00  0.00    -0.173 NA
ATOM      7  N   LIG    1      -21.322  80.486  35.158  0.00  0.00    -0.221 N 
ATOM      8  C   LIG    1      -20.466  79.649  34.460  0.00  0.00    +0.118 A 
ATOM      9  C   LIG    1      -20.852  78.411  34.129  0.00  0.00    +0.063 A 
ENDROOT
BRANCH   1  11
ATOM     10  C   LIG    1      -23.688  76.129  33.550  0.00  0.00    +0.110 C 
ATOM     11  N   LIG    1      -22.619  76.654  34.434  0.00  0.00    -0.308 N 
ATOM     12  C   LIG    1      -22.059  75.604  35.281  0.00  0.00    +0.107 C 
ATOM     13  C   LIG    1      -22.928  74.384  35.038  0.00  0.00    +0.021 C 
ATOM     14  C   LIG    1      -23.471  74.603  33.634  0.00  0.00    +0.029 C 
BRANCH  10  16
ATOM     15  C   LIG    1      -24.634  77.375  31.487  0.00  0.00    +0.220 A 
ATOM     16  C   LIG    1      -23.623  76.619  32.110  0.00  0.00    +0.037 A 
ATOM     17  C   LIG    1      -22.508  76.303  31.311  0.00  0.00    +0.050 A 
ATOM     18  C   LIG    1      -22.417  76.769  30.008  0.00  0.00    +0.142 A 
ATOM     19  F   LIG    1      -21.348  76.482  29.258  0.00  0.00    -0.204 F 
ATOM     20  C   LIG    1      -23.439  77.538  29.505  0.00  0.00    +0.153 A 
ATOM     21  N   LIG    1      -24.540  77.847  30.217  0.00  0.00    -0.218 NA
BRANCH  15  23
ATOM     22  C   LIG    1      -26.882  76.748  31.813  0.00  0.00    +0.279 C 
ATOM     23  O   LIG    1      -25.809  77.645  32.159  0.00  0.00    -0.479 OA
ENDBRANCH  15  23
ENDBRANCH  10  16
ENDBRANCH   1  11
BRANCH   4  24
ATOM     24  C   LIG    1      -24.628  81.275  36.459  0.00  0.00    +0.249 C 
ATOM     25  N   LIG    1      -25.199  80.103  36.870  0.00  0.00    -0.309 N 
ATOM     26  H   LIG    1      -24.583  79.293  36.883  0.00  0.00    +0.149 HD
ATOM     27  O   LIG    1      -25.240  82.352  36.420  0.00  0.00    -0.270 OA
BRANCH  25  28
ATOM     28  C   LIG    1      -26.595  79.980  37.243  0.00  0.00    +0.138 C 
BRANCH  28  29
ATOM     29  C   LIG    1      -27.203  78.619  36.861  0.00  0.00    +0.157 C 
BRANCH  29  30
ATOM     30  O   LIG    1      -27.455  77.830  38.030  0.00  0.00    -0.388 OA
ATOM     31  H   LIG    1      -26.938  77.011  37.945  0.00  0.00    +0.210 HD
ENDBRANCH  29  30
BRANCH  29  32
ATOM     32  C   LIG    1      -26.317  77.821  35.898  0.00  0.00    +0.188 C 
BRANCH  32  33
ATOM     33  O   LIG    1      -26.032  78.530  34.704  0.00  0.00    -0.392 OA
ATOM     34  H   LIG    1      -26.120  79.480  34.894  0.00  0.00    +0.210 HD
ENDBRANCH  32  33
ENDBRANCH  29  32
ENDBRANCH  28  29
ENDBRANCH  25  28
ENDBRANCH   4  24
TORSDOF 9
ENDMDL
