MODEL 1
REMARK VINA RESULT:      -6.8      0.000      0.000
REMARK  Name = pdb/CHEMBL3977304.pdb
REMARK                            x       y       z     vdW  Elec       q    Type
REMARK                         _______ _______ _______ _____ _____    ______ ____
ROOT
ATOM      1  C   LIG    1      -25.925  77.230  33.452  0.00  0.00    +0.105 A 
ATOM      2  C   LIG    1      -26.108  77.065  32.100  0.00  0.00    +0.145 A 
ATOM      3  N   LIG    1      -26.441  75.891  31.500  0.00  0.00    -0.201 NA
ATOM      4  C   LIG    1      -26.546  74.828  32.319  0.00  0.00    +0.323 A 
ATOM      5  N   LIG    1      -26.385  74.855  33.649  0.00  0.00    -0.201 NA
ATOM      6  C   LIG    1      -26.068  76.057  34.178  0.00  0.00    +0.145 A 
ENDROOT
BRANCH   1   8
ATOM      7  C   LIG    1      -24.322  78.691  34.413  0.00  0.00    +0.285 C 
ATOM      8  N   LIG    1      -25.518  78.397  34.106  0.00  0.00    -0.196 NA
BRANCH   7   9
ATOM      9  N   LIG    1      -23.127  78.015  34.250  0.00  0.00    -0.267 N 
ATOM     10  H   LIG    1      -22.833  77.463  35.052  0.00  0.00    +0.157 HD
BRANCH   9  12
ATOM     11  C   LIG    1      -20.879  78.582  33.336  0.00  0.00    +0.088 A 
ATOM     12  C   LIG    1      -22.184  78.036  33.199  0.00  0.00    +0.061 A 
ATOM     13  C   LIG    1      -22.503  77.466  31.944  0.00  0.00    +0.037 A 
ATOM     14  C   LIG    1      -21.585  77.358  30.889  0.00  0.00    +0.057 A 
ATOM     15  C   LIG    1      -20.314  77.897  31.056  0.00  0.00    +0.014 A 
ATOM     16  C   LIG    1      -19.971  78.526  32.255  0.00  0.00    +0.030 A 
BRANCH  11  21
ATOM     17  C   LIG    1      -18.377  79.847  37.489  0.00  0.00    +0.069 C 
ATOM     18  C   LIG    1      -19.340  79.711  36.374  0.00  0.00    +0.080 A 
ATOM     19  N   LIG    1      -20.366  80.597  36.199  0.00  0.00    -0.134 NA
ATOM     20  N   LIG    1      -20.983  80.303  35.059  0.00  0.00    -0.060 NA
ATOM     21  N   LIG    1      -20.417  79.190  34.538  0.00  0.00    -0.218 N 
ATOM     22  C   LIG    1      -19.365  78.799  35.344  0.00  0.00    +0.139 A 
ENDBRANCH  11  21
BRANCH  14  23
ATOM     23  C   LIG    1      -22.007  76.679  29.608  0.00  0.00    +0.417 C 
ATOM     24  F   LIG    1      -23.030  77.332  28.997  0.00  0.00    -0.166 F 
ATOM     25  F   LIG    1      -22.443  75.406  29.817  0.00  0.00    -0.166 F 
ATOM     26  F   LIG    1      -21.009  76.588  28.688  0.00  0.00    -0.166 F 
ENDBRANCH  14  23
ENDBRANCH   9  12
ENDBRANCH   7   9
BRANCH   7  27
ATOM     27  O   LIG    1      -24.201  79.935  34.930  0.00  0.00    -0.481 OA
ATOM     28  H   LIG    1      -24.490  79.970  35.843  0.00  0.00    +0.295 HD
ENDBRANCH   7  27
ENDBRANCH   1   8
BRANCH   4  29
ATOM     29  O   LIG    1      -26.937  73.592  31.822  0.00  0.00    -0.424 OA
BRANCH  29  30
ATOM     30  C   LIG    1      -26.017  72.747  31.258  0.00  0.00    +0.132 A 
ATOM     31  C   LIG    1      -24.677  73.043  31.034  0.00  0.00    +0.047 A 
ATOM     32  C   LIG    1      -23.815  72.061  30.515  0.00  0.00    +0.012 A 
ATOM     33  C   LIG    1      -24.246  70.742  30.245  0.00  0.00    -0.014 A 
ATOM     34  C   LIG    1      -25.593  70.465  30.534  0.00  0.00    +0.012 A 
ATOM     35  C   LIG    1      -26.466  71.449  31.020  0.00  0.00    +0.047 A 
BRANCH  33  36
ATOM     36  C   LIG    1      -23.306  69.702  29.722  0.00  0.00    +0.023 A 
ATOM     37  C   LIG    1      -23.006  69.494  28.356  0.00  0.00    +0.124 A 
ATOM     38  N   LIG    1      -22.160  68.543  27.897  0.00  0.00    -0.239 NA
ATOM     39  C   LIG    1      -21.548  67.755  28.806  0.00  0.00    +0.133 A 
ATOM     40  C   LIG    1      -21.755  67.865  30.165  0.00  0.00    +0.060 A 
ATOM     41 CL   LIG    1      -20.934  66.839  31.267  0.00  0.00    -0.082 Cl
ATOM     42  C   LIG    1      -22.645  68.833  30.619  0.00  0.00    +0.033 A 
BRANCH  37  43
ATOM     43  N   LIG    1      -23.546  70.259  27.325  0.00  0.00    -0.343 N 
ATOM     44  H   LIG    1      -23.918  71.133  27.682  0.00  0.00    +0.144 HD
ATOM     45  H   LIG    1      -22.790  70.418  26.662  0.00  0.00    +0.144 HD
ENDBRANCH  37  43
ENDBRANCH  33  36
ENDBRANCH  29  30
ENDBRANCH   4  29
TORSDOF 10
ENDMDL
MODEL 2
REMARK VINA RESULT:      -6.7     15.851     18.160
REMARK  Name = pdb/CHEMBL3977304.pdb
REMARK                            x       y       z     vdW  Elec       q    Type
REMARK                         _______ _______ _______ _____ _____    ______ ____
ROOT
ATOM      1  C   LIG    1      -22.416  80.915  16.440  0.00  0.00    +0.105 A 
ATOM      2  C   LIG    1      -23.522  80.338  15.864  0.00  0.00    +0.145 A 
ATOM      3  N   LIG    1      -23.510  79.181  15.150  0.00  0.00    -0.201 NA
ATOM      4  C   LIG    1      -22.302  78.613  14.981  0.00  0.00    +0.323 A 
ATOM      5  N   LIG    1      -21.150  79.078  15.484  0.00  0.00    -0.201 NA
ATOM      6  C   LIG    1      -21.239  80.225  16.192  0.00  0.00    +0.145 A 
ENDROOT
BRANCH   1   8
ATOM      7  C   LIG    1      -22.602  83.273  16.616  0.00  0.00    +0.285 C 
ATOM      8  N   LIG    1      -22.367  82.134  17.123  0.00  0.00    -0.196 NA
BRANCH   7   9
ATOM      9  N   LIG    1      -22.929  83.670  15.332  0.00  0.00    -0.267 N 
ATOM     10  H   LIG    1      -23.702  83.162  14.908  0.00  0.00    +0.157 HD
BRANCH   9  12
ATOM     11  C   LIG    1      -21.541  84.203  13.331  0.00  0.00    +0.088 A 
ATOM     12  C   LIG    1      -22.312  84.594  14.459  0.00  0.00    +0.061 A 
ATOM     13  C   LIG    1      -22.474  85.985  14.665  0.00  0.00    +0.037 A 
ATOM     14  C   LIG    1      -21.978  86.958  13.784  0.00  0.00    +0.057 A 
ATOM     15  C   LIG    1      -21.232  86.542  12.686  0.00  0.00    +0.014 A 
ATOM     16  C   LIG    1      -20.993  85.183  12.475  0.00  0.00    +0.030 A 
BRANCH  11  21
ATOM     17  C   LIG    1      -19.486  79.742  12.340  0.00  0.00    +0.069 C 
ATOM     18  C   LIG    1      -20.383  80.903  12.529  0.00  0.00    +0.080 A 
ATOM     19  N   LIG    1      -21.742  80.780  12.457  0.00  0.00    -0.134 NA
ATOM     20  N   LIG    1      -22.286  81.946  12.791  0.00  0.00    -0.060 NA
ATOM     21  N   LIG    1      -21.293  82.840  13.000  0.00  0.00    -0.218 N 
ATOM     22  C   LIG    1      -20.075  82.204  12.854  0.00  0.00    +0.139 A 
ENDBRANCH  11  21
BRANCH  14  23
ATOM     23  C   LIG    1      -22.254  88.416  14.061  0.00  0.00    +0.417 C 
ATOM     24  F   LIG    1      -22.697  88.620  15.330  0.00  0.00    -0.166 F 
ATOM     25  F   LIG    1      -23.215  88.925  13.241  0.00  0.00    -0.166 F 
ATOM     26  F   LIG    1      -21.164  89.214  13.905  0.00  0.00    -0.166 F 
ENDBRANCH  14  23
ENDBRANCH   9  12
ENDBRANCH   7   9
BRANCH   7  27
ATOM     27  O   LIG    1      -22.601  84.269  17.531  0.00  0.00    -0.481 OA
ATOM     28  H   LIG    1      -23.136  84.049  18.295  0.00  0.00    +0.295 HD
ENDBRANCH   7  27
ENDBRANCH   1   8
BRANCH   4  29
ATOM     29  O   LIG    1      -22.180  77.400  14.318  0.00  0.00    -0.424 OA
BRANCH  29  30
ATOM     30  C   LIG    1      -21.705  76.294  14.974  0.00  0.00    +0.132 A 
ATOM     31  C   LIG    1      -20.369  75.918  15.063  0.00  0.00    +0.047 A 
ATOM     32  C   LIG    1      -20.001  74.799  15.830  0.00  0.00    +0.012 A 
ATOM     33  C   LIG    1      -20.940  74.047  16.571  0.00  0.00    -0.014 A 
ATOM     34  C   LIG    1      -22.273  74.489  16.501  0.00  0.00    +0.012 A 
ATOM     35  C   LIG    1      -22.652  75.583  15.710  0.00  0.00    +0.047 A 
BRANCH  33  36
ATOM     36  C   LIG    1      -20.524  72.878  17.407  0.00  0.00    +0.023 A 
ATOM     37  C   LIG    1      -20.968  71.549  17.220  0.00  0.00    +0.124 A 
ATOM     38  N   LIG    1      -20.589  70.503  17.990  0.00  0.00    -0.239 NA
ATOM     39  C   LIG    1      -19.715  70.743  18.990  0.00  0.00    +0.133 A 
ATOM     40  C   LIG    1      -19.208  71.994  19.268  0.00  0.00    +0.060 A 
ATOM     41 CL   LIG    1      -18.090  72.228  20.548  0.00  0.00    -0.082 Cl
ATOM     42  C   LIG    1      -19.625  73.063  18.481  0.00  0.00    +0.033 A 
BRANCH  37  43
ATOM     43  N   LIG    1      -21.843  71.166  16.206  0.00  0.00    -0.343 N 
ATOM     44  H   LIG    1      -21.336  70.968  15.349  0.00  0.00    +0.144 HD
ATOM     45  H   LIG    1      -22.333  70.342  16.548  0.00  0.00    +0.144 HD
ENDBRANCH  37  43
ENDBRANCH  33  36
ENDBRANCH  29  30
ENDBRANCH   4  29
TORSDOF 10
ENDMDL
MODEL 3
REMARK VINA RESULT:      -6.6     16.014     20.009
REMARK  Name = pdb/CHEMBL3977304.pdb
REMARK                            x       y       z     vdW  Elec       q    Type
REMARK                         _______ _______ _______ _____ _____    ______ ____
ROOT
ATOM      1  C   LIG    1      -37.405  77.315  27.915  0.00  0.00    +0.105 A 
ATOM      2  C   LIG    1      -36.764  78.500  27.645  0.00  0.00    +0.145 A 
ATOM      3  N   LIG    1      -37.390  79.677  27.378  0.00  0.00    -0.201 NA
ATOM      4  C   LIG    1      -38.734  79.627  27.340  0.00  0.00    +0.323 A 
ATOM      5  N   LIG    1      -39.475  78.535  27.577  0.00  0.00    -0.201 NA
ATOM      6  C   LIG    1      -38.787  77.405  27.847  0.00  0.00    +0.145 A 
ENDROOT
BRANCH   1   8
ATOM      7  C   LIG    1      -36.582  75.197  27.233  0.00  0.00    +0.285 C 
ATOM      8  N   LIG    1      -36.807  76.069  28.127  0.00  0.00    -0.196 NA
BRANCH   7   9
ATOM      9  N   LIG    1      -36.849  75.165  25.876  0.00  0.00    -0.267 N 
ATOM     10  H   LIG    1      -36.103  75.523  25.284  0.00  0.00    +0.157 HD
BRANCH   9  12
ATOM     11  C   LIG    1      -38.440  73.471  24.978  0.00  0.00    +0.088 A 
ATOM     12  C   LIG    1      -38.019  74.815  25.167  0.00  0.00    +0.061 A 
ATOM     13  C   LIG    1      -38.855  75.823  24.632  0.00  0.00    +0.037 A 
ATOM     14  C   LIG    1      -40.082  75.556  24.006  0.00  0.00    +0.057 A 
ATOM     15  C   LIG    1      -40.469  74.230  23.841  0.00  0.00    +0.014 A 
ATOM     16  C   LIG    1      -39.647  73.197  24.297  0.00  0.00    +0.030 A 
BRANCH  11  21
ATOM     17  C   LIG    1      -35.523  69.427  25.477  0.00  0.00    +0.069 C 
ATOM     18  C   LIG    1      -36.455  70.562  25.663  0.00  0.00    +0.080 A 
ATOM     19  N   LIG    1      -36.895  70.935  26.902  0.00  0.00    -0.134 NA
ATOM     20  N   LIG    1      -37.608  72.049  26.775  0.00  0.00    -0.060 NA
ATOM     21  N   LIG    1      -37.700  72.354  25.459  0.00  0.00    -0.218 N 
ATOM     22  C   LIG    1      -36.968  71.436  24.732  0.00  0.00    +0.139 A 
ENDBRANCH  11  21
BRANCH  14  23
ATOM     23  C   LIG    1      -40.931  76.706  23.520  0.00  0.00    +0.417 C 
ATOM     24  F   LIG    1      -40.203  77.618  22.821  0.00  0.00    -0.166 F 
ATOM     25  F   LIG    1      -41.509  77.391  24.545  0.00  0.00    -0.166 F 
ATOM     26  F   LIG    1      -41.948  76.322  22.703  0.00  0.00    -0.166 F 
ENDBRANCH  14  23
ENDBRANCH   9  12
ENDBRANCH   7   9
BRANCH   7  27
ATOM     27  O   LIG    1      -35.884  74.135  27.696  0.00  0.00    -0.481 OA
ATOM     28  H   LIG    1      -36.417  73.581  28.268  0.00  0.00    +0.295 HD
ENDBRANCH   7  27
ENDBRANCH   1   8
BRANCH   4  29
ATOM     29  O   LIG    1      -39.477  80.781  27.134  0.00  0.00    -0.424 OA
BRANCH  29  30
ATOM     30  C   LIG    1      -39.666  81.268  25.867  0.00  0.00    +0.132 A 
ATOM     31  C   LIG    1      -39.576  80.528  24.694  0.00  0.00    +0.047 A 
ATOM     32  C   LIG    1      -39.867  81.129  23.456  0.00  0.00    +0.012 A 
ATOM     33  C   LIG    1      -40.301  82.469  23.350  0.00  0.00    -0.014 A 
ATOM     34  C   LIG    1      -40.433  83.171  24.561  0.00  0.00    +0.012 A 
ATOM     35  C   LIG    1      -40.112  82.587  25.795  0.00  0.00    +0.047 A 
BRANCH  33  36
ATOM     36  C   LIG    1      -40.637  83.082  22.026  0.00  0.00    +0.023 A 
ATOM     37  C   LIG    1      -39.801  83.969  21.309  0.00  0.00    +0.124 A 
ATOM     38  N   LIG    1      -40.122  84.522  20.117  0.00  0.00    -0.239 NA
ATOM     39  C   LIG    1      -41.309  84.188  19.568  0.00  0.00    +0.133 A 
ATOM     40  C   LIG    1      -42.206  83.331  20.168  0.00  0.00    +0.060 A 
ATOM     41 CL   LIG    1      -43.694  82.939  19.410  0.00  0.00    -0.082 Cl
ATOM     42  C   LIG    1      -41.871  82.788  21.405  0.00  0.00    +0.033 A 
BRANCH  37  43
ATOM     43  N   LIG    1      -38.541  84.365  21.751  0.00  0.00    -0.343 N 
ATOM     44  H   LIG    1      -38.489  85.376  21.829  0.00  0.00    +0.144 HD
ATOM     45  H   LIG    1      -38.399  83.913  22.652  0.00  0.00    +0.144 HD
ENDBRANCH  37  43
ENDBRANCH  33  36
ENDBRANCH  29  30
ENDBRANCH   4  29
TORSDOF 10
ENDMDL
MODEL 4
REMARK VINA RESULT:      -6.3     15.093     19.452
REMARK  Name = pdb/CHEMBL3977304.pdb
REMARK                            x       y       z     vdW  Elec       q    Type
REMARK                         _______ _______ _______ _____ _____    ______ ____
ROOT
ATOM      1  C   LIG    1      -39.246  68.549  21.889  0.00  0.00    +0.105 A 
ATOM      2  C   LIG    1      -37.985  69.095  21.907  0.00  0.00    +0.145 A 
ATOM      3  N   LIG    1      -37.016  68.779  22.807  0.00  0.00    -0.201 NA
ATOM      4  C   LIG    1      -37.371  67.898  23.760  0.00  0.00    +0.323 A 
ATOM      5  N   LIG    1      -38.567  67.301  23.857  0.00  0.00    -0.201 NA
ATOM      6  C   LIG    1      -39.476  67.653  22.922  0.00  0.00    +0.145 A 
ENDROOT
BRANCH   1   8
ATOM      7  C   LIG    1      -41.262  69.659  21.314  0.00  0.00    +0.285 C 
ATOM      8  N   LIG    1      -40.293  68.890  21.029  0.00  0.00    -0.196 NA
BRANCH   7   9
ATOM      9  N   LIG    1      -41.600  70.340  22.470  0.00  0.00    -0.267 N 
ATOM     10  H   LIG    1      -42.335  69.906  23.025  0.00  0.00    +0.157 HD
BRANCH   9  12
ATOM     11  C   LIG    1      -41.938  72.781  22.837  0.00  0.00    +0.088 A 
ATOM     12  C   LIG    1      -41.174  71.590  22.971  0.00  0.00    +0.061 A 
ATOM     13  C   LIG    1      -39.950  71.697  23.673  0.00  0.00    +0.037 A 
ATOM     14  C   LIG    1      -39.513  72.881  24.285  0.00  0.00    +0.057 A 
ATOM     15  C   LIG    1      -40.286  74.028  24.141  0.00  0.00    +0.014 A 
ATOM     16  C   LIG    1      -41.471  73.988  23.404  0.00  0.00    +0.030 A 
BRANCH  11  21
ATOM     17  C   LIG    1      -46.737  73.380  21.525  0.00  0.00    +0.069 C 
ATOM     18  C   LIG    1      -45.295  73.054  21.602  0.00  0.00    +0.080 A 
ATOM     19  N   LIG    1      -44.599  72.614  20.511  0.00  0.00    -0.134 NA
ATOM     20  N   LIG    1      -43.315  72.526  20.842  0.00  0.00    -0.060 NA
ATOM     21  N   LIG    1      -43.187  72.826  22.155  0.00  0.00    -0.218 N 
ATOM     22  C   LIG    1      -44.424  73.177  22.660  0.00  0.00    +0.139 A 
ENDBRANCH  11  21
BRANCH  14  23
ATOM     23  C   LIG    1      -38.219  72.877  25.063  0.00  0.00    +0.417 C 
ATOM     24  F   LIG    1      -37.320  71.992  24.554  0.00  0.00    -0.166 F 
ATOM     25  F   LIG    1      -38.399  72.524  26.366  0.00  0.00    -0.166 F 
ATOM     26  F   LIG    1      -37.595  74.085  25.083  0.00  0.00    -0.166 F 
ENDBRANCH  14  23
ENDBRANCH   9  12
ENDBRANCH   7   9
BRANCH   7  27
ATOM     27  O   LIG    1      -42.066  69.911  20.256  0.00  0.00    -0.481 OA
ATOM     28  H   LIG    1      -41.575  70.265  19.513  0.00  0.00    +0.295 HD
ENDBRANCH   7  27
ENDBRANCH   1   8
BRANCH   4  29
ATOM     29  O   LIG    1      -36.443  67.461  24.695  0.00  0.00    -0.424 OA
BRANCH  29  30
ATOM     30  C   LIG    1      -35.810  68.356  25.518  0.00  0.00    +0.132 A 
ATOM     31  C   LIG    1      -34.447  68.628  25.519  0.00  0.00    +0.047 A 
ATOM     32  C   LIG    1      -33.927  69.626  26.362  0.00  0.00    +0.012 A 
ATOM     33  C   LIG    1      -34.751  70.416  27.196  0.00  0.00    -0.014 A 
ATOM     34  C   LIG    1      -36.129  70.149  27.128  0.00  0.00    +0.012 A 
ATOM     35  C   LIG    1      -36.649  69.133  26.314  0.00  0.00    +0.047 A 
BRANCH  33  36
ATOM     36  C   LIG    1      -34.183  71.495  28.064  0.00  0.00    +0.023 A 
ATOM     37  C   LIG    1      -33.607  71.290  29.339  0.00  0.00    +0.124 A 
ATOM     38  N   LIG    1      -33.106  72.278  30.116  0.00  0.00    -0.239 NA
ATOM     39  C   LIG    1      -33.140  73.537  29.632  0.00  0.00    +0.133 A 
ATOM     40  C   LIG    1      -33.671  73.861  28.402  0.00  0.00    +0.060 A 
ATOM     41 CL   LIG    1      -33.672  75.483  27.841  0.00  0.00    -0.082 Cl
ATOM     42  C   LIG    1      -34.203  72.837  27.624  0.00  0.00    +0.033 A 
BRANCH  37  43
ATOM     43  N   LIG    1      -33.483  70.037  29.935  0.00  0.00    -0.343 N 
ATOM     44  H   LIG    1      -33.321  69.321  29.234  0.00  0.00    +0.144 HD
ATOM     45  H   LIG    1      -32.703  70.107  30.585  0.00  0.00    +0.144 HD
ENDBRANCH  37  43
ENDBRANCH  33  36
ENDBRANCH  29  30
ENDBRANCH   4  29
TORSDOF 10
ENDMDL
MODEL 5
REMARK VINA RESULT:      -6.3     12.882     17.247
REMARK  Name = pdb/CHEMBL3977304.pdb
REMARK                            x       y       z     vdW  Elec       q    Type
REMARK                         _______ _______ _______ _____ _____    ______ ____
ROOT
ATOM      1  C   LIG    1      -34.406  89.437  29.066  0.00  0.00    +0.105 A 
ATOM      2  C   LIG    1      -33.143  89.806  28.666  0.00  0.00    +0.145 A 
ATOM      3  N   LIG    1      -32.133  90.149  29.509  0.00  0.00    -0.201 NA
ATOM      4  C   LIG    1      -32.444  90.159  30.818  0.00  0.00    +0.323 A 
ATOM      5  N   LIG    1      -33.636  89.829  31.334  0.00  0.00    -0.201 NA
ATOM      6  C   LIG    1      -34.589  89.487  30.439  0.00  0.00    +0.145 A 
ENDROOT
BRANCH   1   8
ATOM      7  C   LIG    1      -35.658  88.062  27.593  0.00  0.00    +0.285 C 
ATOM      8  N   LIG    1      -35.493  89.143  28.238  0.00  0.00    -0.196 NA
BRANCH   7   9
ATOM      9  N   LIG    1      -34.883  86.922  27.474  0.00  0.00    -0.267 N 
ATOM     10  H   LIG    1      -34.575  86.709  26.528  0.00  0.00    +0.157 HD
BRANCH   9  12
ATOM     11  C   LIG    1      -35.215  84.705  28.562  0.00  0.00    +0.088 A 
ATOM     12  C   LIG    1      -34.524  85.939  28.423  0.00  0.00    +0.061 A 
ATOM     13  C   LIG    1      -33.410  86.141  29.271  0.00  0.00    +0.037 A 
ATOM     14  C   LIG    1      -32.934  85.169  30.164  0.00  0.00    +0.057 A 
ATOM     15  C   LIG    1      -33.628  83.969  30.273  0.00  0.00    +0.014 A 
ATOM     16  C   LIG    1      -34.771  83.748  29.501  0.00  0.00    +0.030 A 
BRANCH  11  21
ATOM     17  C   LIG    1      -38.536  82.513  25.516  0.00  0.00    +0.069 C 
ATOM     18  C   LIG    1      -37.785  83.418  26.414  0.00  0.00    +0.080 A 
ATOM     19  N   LIG    1      -38.350  84.551  26.929  0.00  0.00    -0.134 NA
ATOM     20  N   LIG    1      -37.495  85.091  27.791  0.00  0.00    -0.060 NA
ATOM     21  N   LIG    1      -36.354  84.364  27.778  0.00  0.00    -0.218 N 
ATOM     22  C   LIG    1      -36.513  83.290  26.924  0.00  0.00    +0.139 A 
ENDBRANCH  11  21
BRANCH  14  23
ATOM     23  C   LIG    1      -31.700  85.460  30.985  0.00  0.00    +0.417 C 
ATOM     24  F   LIG    1      -31.972  86.260  32.049  0.00  0.00    -0.166 F 
ATOM     25  F   LIG    1      -30.740  86.104  30.265  0.00  0.00    -0.166 F 
ATOM     26  F   LIG    1      -31.108  84.343  31.488  0.00  0.00    -0.166 F 
ENDBRANCH  14  23
ENDBRANCH   9  12
ENDBRANCH   7   9
BRANCH   7  27
ATOM     27  O   LIG    1      -36.856  87.997  26.969  0.00  0.00    -0.481 OA
ATOM     28  H   LIG    1      -37.346  88.816  27.055  0.00  0.00    +0.295 HD
ENDBRANCH   7  27
ENDBRANCH   1   8
BRANCH   4  29
ATOM     29  O   LIG    1      -31.473  90.438  31.770  0.00  0.00    -0.424 OA
BRANCH  29  30
ATOM     30  C   LIG    1      -30.814  89.421  32.410  0.00  0.00    +0.132 A 
ATOM     31  C   LIG    1      -29.732  88.713  31.900  0.00  0.00    +0.047 A 
ATOM     32  C   LIG    1      -29.093  87.738  32.687  0.00  0.00    +0.012 A 
ATOM     33  C   LIG    1      -29.479  87.470  34.020  0.00  0.00    -0.014 A 
ATOM     34  C   LIG    1      -30.542  88.242  34.519  0.00  0.00    +0.012 A 
ATOM     35  C   LIG    1      -31.205  89.191  33.728  0.00  0.00    +0.047 A 
BRANCH  33  36
ATOM     36  C   LIG    1      -28.767  86.450  34.852  0.00  0.00    +0.023 A 
ATOM     37  C   LIG    1      -27.469  86.607  35.390  0.00  0.00    +0.124 A 
ATOM     38  N   LIG    1      -26.834  85.672  36.134  0.00  0.00    -0.239 NA
ATOM     39  C   LIG    1      -27.493  84.524  36.397  0.00  0.00    +0.133 A 
ATOM     40  C   LIG    1      -28.763  84.258  35.933  0.00  0.00    +0.060 A 
ATOM     41 CL   LIG    1      -29.550  82.781  36.314  0.00  0.00    -0.082 Cl
ATOM     42  C   LIG    1      -29.394  85.220  35.150  0.00  0.00    +0.033 A 
BRANCH  37  43
ATOM     43  N   LIG    1      -26.698  87.755  35.219  0.00  0.00    -0.343 N 
ATOM     44  H   LIG    1      -25.772  87.628  35.613  0.00  0.00    +0.144 HD
ATOM     45  H   LIG    1      -26.657  87.924  34.216  0.00  0.00    +0.144 HD
ENDBRANCH  37  43
ENDBRANCH  33  36
ENDBRANCH  29  30
ENDBRANCH   4  29
TORSDOF 10
ENDMDL
MODEL 6
REMARK VINA RESULT:      -6.3     16.925     19.126
REMARK  Name = pdb/CHEMBL3977304.pdb
REMARK                            x       y       z     vdW  Elec       q    Type
REMARK                         _______ _______ _______ _____ _____    ______ ____
ROOT
ATOM      1  C   LIG    1      -24.896  80.849  10.963  0.00  0.00    +0.105 A 
ATOM      2  C   LIG    1      -24.173  79.758  10.544  0.00  0.00    +0.145 A 
ATOM      3  N   LIG    1      -24.321  78.496  11.030  0.00  0.00    -0.201 NA
ATOM      4  C   LIG    1      -25.218  78.355  12.022  0.00  0.00    +0.323 A 
ATOM      5  N   LIG    1      -25.979  79.338  12.524  0.00  0.00    -0.201 NA
ATOM      6  C   LIG    1      -25.788  80.562  11.986  0.00  0.00    +0.145 A 
ENDROOT
BRANCH   1   8
ATOM      7  C   LIG    1      -23.792  82.947  10.895  0.00  0.00    +0.285 C 
ATOM      8  N   LIG    1      -24.734  82.172  10.544  0.00  0.00    -0.196 NA
BRANCH   7   9
ATOM      9  N   LIG    1      -22.719  82.778  11.752  0.00  0.00    -0.267 N 
ATOM     10  H   LIG    1      -21.865  82.444  11.311  0.00  0.00    +0.157 HD
BRANCH   9  12
ATOM     11  C   LIG    1      -22.508  84.139  13.829  0.00  0.00    +0.088 A 
ATOM     12  C   LIG    1      -22.625  82.892  13.157  0.00  0.00    +0.061 A 
ATOM     13  C   LIG    1      -22.678  81.736  13.970  0.00  0.00    +0.037 A 
ATOM     14  C   LIG    1      -22.693  81.779  15.372  0.00  0.00    +0.057 A 
ATOM     15  C   LIG    1      -22.584  83.015  16.001  0.00  0.00    +0.014 A 
ATOM     16  C   LIG    1      -22.466  84.180  15.240  0.00  0.00    +0.030 A 
BRANCH  11  21
ATOM     17  C   LIG    1      -23.054  88.882  12.307  0.00  0.00    +0.069 C 
ATOM     18  C   LIG    1      -22.717  87.449  12.461  0.00  0.00    +0.080 A 
ATOM     19  N   LIG    1      -21.822  86.829  11.635  0.00  0.00    -0.134 NA
ATOM     20  N   LIG    1      -21.624  85.594  12.085  0.00  0.00    -0.060 NA
ATOM     21  N   LIG    1      -22.442  85.385  13.142  0.00  0.00    -0.218 N 
ATOM     22  C   LIG    1      -23.138  86.547  13.411  0.00  0.00    +0.139 A 
ENDBRANCH  11  21
BRANCH  14  23
ATOM     23  C   LIG    1      -22.812  80.490  16.151  0.00  0.00    +0.417 C 
ATOM     24  F   LIG    1      -22.552  80.668  17.474  0.00  0.00    -0.166 F 
ATOM     25  F   LIG    1      -21.935  79.543  15.718  0.00  0.00    -0.166 F 
ATOM     26  F   LIG    1      -24.046  79.924  16.078  0.00  0.00    -0.166 F 
ENDBRANCH  14  23
ENDBRANCH   9  12
ENDBRANCH   7   9
BRANCH   7  27
ATOM     27  O   LIG    1      -23.813  84.132  10.244  0.00  0.00    -0.481 OA
ATOM     28  H   LIG    1      -24.199  84.051   9.371  0.00  0.00    +0.295 HD
ENDBRANCH   7  27
ENDBRANCH   1   8
BRANCH   4  29
ATOM     29  O   LIG    1      -25.492  77.102  12.552  0.00  0.00    -0.424 OA
BRANCH  29  30
ATOM     30  C   LIG    1      -24.629  76.522  13.446  0.00  0.00    +0.132 A 
ATOM     31  C   LIG    1      -23.786  77.204  14.315  0.00  0.00    +0.047 A 
ATOM     32  C   LIG    1      -23.000  76.493  15.239  0.00  0.00    +0.012 A 
ATOM     33  C   LIG    1      -23.061  75.086  15.359  0.00  0.00    -0.014 A 
ATOM     34  C   LIG    1      -23.964  74.435  14.501  0.00  0.00    +0.012 A 
ATOM     35  C   LIG    1      -24.725  75.136  13.555  0.00  0.00    +0.047 A 
BRANCH  33  36
ATOM     36  C   LIG    1      -22.240  74.349  16.369  0.00  0.00    +0.023 A 
ATOM     37  C   LIG    1      -20.840  74.163  16.296  0.00  0.00    +0.124 A 
ATOM     38  N   LIG    1      -20.112  73.486  17.214  0.00  0.00    -0.239 NA
ATOM     39  C   LIG    1      -20.763  72.973  18.279  0.00  0.00    +0.133 A 
ATOM     40  C   LIG    1      -22.124  73.093  18.464  0.00  0.00    +0.060 A 
ATOM     41 CL   LIG    1      -22.888  72.426  19.847  0.00  0.00    -0.082 Cl
ATOM     42  C   LIG    1      -22.862  73.772  17.499  0.00  0.00    +0.033 A 
BRANCH  37  43
ATOM     43  N   LIG    1      -20.049  74.669  15.267  0.00  0.00    -0.343 N 
ATOM     44  H   LIG    1      -20.626  75.069  14.534  0.00  0.00    +0.144 HD
ATOM     45  H   LIG    1      -19.445  75.370  15.691  0.00  0.00    +0.144 HD
ENDBRANCH  37  43
ENDBRANCH  33  36
ENDBRANCH  29  30
ENDBRANCH   4  29
TORSDOF 10
ENDMDL
MODEL 7
REMARK VINA RESULT:      -6.2     11.039     13.091
REMARK  Name = pdb/CHEMBL3977304.pdb
REMARK                            x       y       z     vdW  Elec       q    Type
REMARK                         _______ _______ _______ _____ _____    ______ ____
ROOT
ATOM      1  C   LIG    1      -37.686  74.527  26.248  0.00  0.00    +0.105 A 
ATOM      2  C   LIG    1      -37.880  74.019  24.986  0.00  0.00    +0.145 A 
ATOM      3  N   LIG    1      -37.848  72.698  24.669  0.00  0.00    -0.201 NA
ATOM      4  C   LIG    1      -37.558  71.862  25.683  0.00  0.00    +0.323 A 
ATOM      5  N   LIG    1      -37.341  72.231  26.953  0.00  0.00    -0.201 NA
ATOM      6  C   LIG    1      -37.402  73.558  27.198  0.00  0.00    +0.145 A 
ENDROOT
BRANCH   1   8
ATOM      7  C   LIG    1      -36.589  76.567  26.760  0.00  0.00    +0.285 C 
ATOM      8  N   LIG    1      -37.644  75.877  26.610  0.00  0.00    -0.196 NA
BRANCH   7   9
ATOM      9  N   LIG    1      -35.247  76.250  26.656  0.00  0.00    -0.267 N 
ATOM     10  H   LIG    1      -34.909  76.116  25.706  0.00  0.00    +0.157 HD
BRANCH   9  12
ATOM     11  C   LIG    1      -33.656  76.992  28.425  0.00  0.00    +0.088 A 
ATOM     12  C   LIG    1      -34.277  75.978  27.646  0.00  0.00    +0.061 A 
ATOM     13  C   LIG    1      -33.902  74.643  27.928  0.00  0.00    +0.037 A 
ATOM     14  C   LIG    1      -33.024  74.290  28.964  0.00  0.00    +0.057 A 
ATOM     15  C   LIG    1      -32.437  75.305  29.713  0.00  0.00    +0.014 A 
ATOM     16  C   LIG    1      -32.728  76.642  29.431  0.00  0.00    +0.030 A 
BRANCH  11  21
ATOM     17  C   LIG    1      -34.877  81.813  29.033  0.00  0.00    +0.069 C 
ATOM     18  C   LIG    1      -34.506  80.476  28.519  0.00  0.00    +0.080 A 
ATOM     19  N   LIG    1      -34.125  80.285  27.220  0.00  0.00    -0.134 NA
ATOM     20  N   LIG    1      -33.733  79.023  27.080  0.00  0.00    -0.060 NA
ATOM     21  N   LIG    1      -33.933  78.378  28.253  0.00  0.00    -0.218 N 
ATOM     22  C   LIG    1      -34.411  79.277  29.187  0.00  0.00    +0.139 A 
ENDBRANCH  11  21
BRANCH  14  23
ATOM     23  C   LIG    1      -32.732  72.831  29.223  0.00  0.00    +0.417 C 
ATOM     24  F   LIG    1      -31.409  72.545  29.095  0.00  0.00    -0.166 F 
ATOM     25  F   LIG    1      -33.382  72.012  28.350  0.00  0.00    -0.166 F 
ATOM     26  F   LIG    1      -33.093  72.419  30.467  0.00  0.00    -0.166 F 
ENDBRANCH  14  23
ENDBRANCH   9  12
ENDBRANCH   7   9
BRANCH   7  27
ATOM     27  O   LIG    1      -36.843  77.875  26.993  0.00  0.00    -0.481 OA
ATOM     28  H   LIG    1      -36.097  78.429  26.757  0.00  0.00    +0.295 HD
ENDBRANCH   7  27
ENDBRANCH   1   8
BRANCH   4  29
ATOM     29  O   LIG    1      -37.555  70.488  25.485  0.00  0.00    -0.424 OA
BRANCH  29  30
ATOM     30  C   LIG    1      -36.589  69.705  26.061  0.00  0.00    +0.132 A 
ATOM     31  C   LIG    1      -35.235  69.727  25.744  0.00  0.00    +0.047 A 
ATOM     32  C   LIG    1      -34.330  68.925  26.461  0.00  0.00    +0.012 A 
ATOM     33  C   LIG    1      -34.733  68.111  27.544  0.00  0.00    -0.014 A 
ATOM     34  C   LIG    1      -36.100  68.155  27.869  0.00  0.00    +0.012 A 
ATOM     35  C   LIG    1      -37.013  68.927  27.137  0.00  0.00    +0.047 A 
BRANCH  33  36
ATOM     36  C   LIG    1      -33.750  67.288  28.315  0.00  0.00    +0.023 A 
ATOM     37  C   LIG    1      -33.343  65.978  27.971  0.00  0.00    +0.124 A 
ATOM     38  N   LIG    1      -32.459  65.242  28.683  0.00  0.00    -0.239 NA
ATOM     39  C   LIG    1      -31.916  65.805  29.783  0.00  0.00    +0.133 A 
ATOM     40  C   LIG    1      -32.229  67.075  30.217  0.00  0.00    +0.060 A 
ATOM     41 CL   LIG    1      -31.491  67.736  31.618  0.00  0.00    -0.082 Cl
ATOM     42  C   LIG    1      -33.157  67.811  29.486  0.00  0.00    +0.033 A 
BRANCH  37  43
ATOM     43  N   LIG    1      -33.805  65.300  26.845  0.00  0.00    -0.343 N 
ATOM     44  H   LIG    1      -34.232  64.417  27.107  0.00  0.00    +0.144 HD
ATOM     45  H   LIG    1      -34.475  65.919  26.394  0.00  0.00    +0.144 HD
ENDBRANCH  37  43
ENDBRANCH  33  36
ENDBRANCH  29  30
ENDBRANCH   4  29
TORSDOF 10
ENDMDL
MODEL 8
REMARK VINA RESULT:      -6.2      5.415     10.447
REMARK  Name = pdb/CHEMBL3977304.pdb
REMARK                            x       y       z     vdW  Elec       q    Type
REMARK                         _______ _______ _______ _____ _____    ______ ____
ROOT
ATOM      1  C   LIG    1      -28.635  75.275  32.180  0.00  0.00    +0.105 A 
ATOM      2  C   LIG    1      -28.912  76.619  32.108  0.00  0.00    +0.145 A 
ATOM      3  N   LIG    1      -28.042  77.568  31.672  0.00  0.00    -0.201 NA
ATOM      4  C   LIG    1      -26.816  77.125  31.337  0.00  0.00    +0.323 A 
ATOM      5  N   LIG    1      -26.420  75.845  31.370  0.00  0.00    -0.201 NA
ATOM      6  C   LIG    1      -27.340  74.955  31.802  0.00  0.00    +0.145 A 
ENDROOT
BRANCH   1   8
ATOM      7  C   LIG    1      -30.176  73.482  31.986  0.00  0.00    +0.285 C 
ATOM      8  N   LIG    1      -29.471  74.274  32.683  0.00  0.00    -0.196 NA
BRANCH   7   9
ATOM      9  N   LIG    1      -30.367  73.362  30.621  0.00  0.00    -0.267 N 
ATOM     10  H   LIG    1      -29.570  72.995  30.106  0.00  0.00    +0.157 HD
BRANCH   9  12
ATOM     11  C   LIG    1      -32.413  72.845  29.295  0.00  0.00    +0.088 A 
ATOM     12  C   LIG    1      -31.443  73.756  29.795  0.00  0.00    +0.061 A 
ATOM     13  C   LIG    1      -31.617  75.117  29.453  0.00  0.00    +0.037 A 
ATOM     14  C   LIG    1      -32.716  75.596  28.724  0.00  0.00    +0.057 A 
ATOM     15  C   LIG    1      -33.651  74.680  28.253  0.00  0.00    +0.014 A 
ATOM     16  C   LIG    1      -33.489  73.317  28.512  0.00  0.00    +0.030 A 
BRANCH  11  21
ATOM     17  C   LIG    1      -33.479  68.049  30.282  0.00  0.00    +0.069 C 
ATOM     18  C   LIG    1      -32.837  69.358  30.027  0.00  0.00    +0.080 A 
ATOM     19  N   LIG    1      -31.488  69.473  29.843  0.00  0.00    -0.134 NA
ATOM     20  N   LIG    1      -31.217  70.731  29.510  0.00  0.00    -0.060 NA
ATOM     21  N   LIG    1      -32.366  71.446  29.556  0.00  0.00    -0.218 N 
ATOM     22  C   LIG    1      -33.411  70.599  29.869  0.00  0.00    +0.139 A 
ENDBRANCH  11  21
BRANCH  14  23
ATOM     23  C   LIG    1      -32.841  77.077  28.460  0.00  0.00    +0.417 C 
ATOM     24  F   LIG    1      -33.712  77.676  29.316  0.00  0.00    -0.166 F 
ATOM     25  F   LIG    1      -33.304  77.342  27.207  0.00  0.00    -0.166 F 
ATOM     26  F   LIG    1      -31.666  77.750  28.578  0.00  0.00    -0.166 F 
ENDBRANCH  14  23
ENDBRANCH   9  12
ENDBRANCH   7   9
BRANCH   7  27
ATOM     27  O   LIG    1      -30.795  72.534  32.727  0.00  0.00    -0.481 OA
ATOM     28  H   LIG    1      -31.038  72.863  33.593  0.00  0.00    +0.295 HD
ENDBRANCH   7  27
ENDBRANCH   1   8
BRANCH   4  29
ATOM     29  O   LIG    1      -25.867  77.998  30.825  0.00  0.00    -0.424 OA
BRANCH  29  30
ATOM     30  C   LIG    1      -24.535  77.809  31.087  0.00  0.00    +0.132 A 
ATOM     31  C   LIG    1      -23.960  77.750  32.351  0.00  0.00    +0.047 A 
ATOM     32  C   LIG    1      -22.588  77.476  32.490  0.00  0.00    +0.012 A 
ATOM     33  C   LIG    1      -21.754  77.206  31.381  0.00  0.00    -0.014 A 
ATOM     34  C   LIG    1      -22.381  77.221  30.123  0.00  0.00    +0.012 A 
ATOM     35  C   LIG    1      -23.742  77.526  29.976  0.00  0.00    +0.047 A 
BRANCH  33  36
ATOM     36  C   LIG    1      -20.303  76.885  31.551  0.00  0.00    +0.023 A 
ATOM     37  C   LIG    1      -19.328  77.780  32.050  0.00  0.00    +0.124 A 
ATOM     38  N   LIG    1      -18.017  77.478  32.190  0.00  0.00    -0.239 NA
ATOM     39  C   LIG    1      -17.618  76.234  31.850  0.00  0.00    +0.133 A 
ATOM     40  C   LIG    1      -18.475  75.273  31.357  0.00  0.00    +0.060 A 
ATOM     41 CL   LIG    1      -17.905  73.706  30.955  0.00  0.00    -0.082 Cl
ATOM     42  C   LIG    1      -19.817  75.606  31.198  0.00  0.00    +0.033 A 
BRANCH  37  43
ATOM     43  N   LIG    1      -19.616  79.078  32.465  0.00  0.00    -0.343 N 
ATOM     44  H   LIG    1      -19.580  79.722  31.682  0.00  0.00    +0.144 HD
ATOM     45  H   LIG    1      -20.546  79.045  32.879  0.00  0.00    +0.144 HD
ENDBRANCH  37  43
ENDBRANCH  33  36
ENDBRANCH  29  30
ENDBRANCH   4  29
TORSDOF 10
ENDMDL
MODEL 9
REMARK VINA RESULT:      -6.2     16.272     19.438
REMARK  Name = pdb/CHEMBL3977304.pdb
REMARK                            x       y       z     vdW  Elec       q    Type
REMARK                         _______ _______ _______ _____ _____    ______ ____
ROOT
ATOM      1  C   LIG    1      -33.063  65.308  20.030  0.00  0.00    +0.105 A 
ATOM      2  C   LIG    1      -33.376  66.360  20.856  0.00  0.00    +0.145 A 
ATOM      3  N   LIG    1      -34.587  66.552  21.444  0.00  0.00    -0.201 NA
ATOM      4  C   LIG    1      -35.535  65.648  21.134  0.00  0.00    +0.323 A 
ATOM      5  N   LIG    1      -35.359  64.584  20.338  0.00  0.00    -0.201 NA
ATOM      6  C   LIG    1      -34.128  64.450  19.799  0.00  0.00    +0.145 A 
ENDROOT
BRANCH   1   8
ATOM      7  C   LIG    1      -31.011  66.007  19.067  0.00  0.00    +0.285 C 
ATOM      8  N   LIG    1      -31.858  65.105  19.352  0.00  0.00    -0.196 NA
BRANCH   7   9
ATOM      9  N   LIG    1      -30.999  67.373  19.284  0.00  0.00    -0.267 N 
ATOM     10  H   LIG    1      -31.148  67.657  20.249  0.00  0.00    +0.157 HD
BRANCH   9  12
ATOM     11  C   LIG    1      -31.803  68.623  17.283  0.00  0.00    +0.088 A 
ATOM     12  C   LIG    1      -30.916  68.457  18.381  0.00  0.00    +0.061 A 
ATOM     13  C   LIG    1      -29.937  69.462  18.563  0.00  0.00    +0.037 A 
ATOM     14  C   LIG    1      -29.860  70.617  17.770  0.00  0.00    +0.057 A 
ATOM     15  C   LIG    1      -30.746  70.753  16.707  0.00  0.00    +0.014 A 
ATOM     16  C   LIG    1      -31.690  69.757  16.449  0.00  0.00    +0.030 A 
BRANCH  11  21
ATOM     17  C   LIG    1      -36.104  66.072  16.955  0.00  0.00    +0.069 C 
ATOM     18  C   LIG    1      -34.709  66.560  16.869  0.00  0.00    +0.080 A 
ATOM     19  N   LIG    1      -33.791  65.969  16.048  0.00  0.00    -0.134 NA
ATOM     20  N   LIG    1      -32.675  66.690  16.082  0.00  0.00    -0.060 NA
ATOM     21  N   LIG    1      -32.836  67.692  16.976  0.00  0.00    -0.218 N 
ATOM     22  C   LIG    1      -34.120  67.643  17.482  0.00  0.00    +0.139 A 
ENDBRANCH  11  21
BRANCH  14  23
ATOM     23  C   LIG    1      -28.815  71.661  18.082  0.00  0.00    +0.417 C 
ATOM     24  F   LIG    1      -27.957  71.249  19.054  0.00  0.00    -0.166 F 
ATOM     25  F   LIG    1      -29.364  72.823  18.532  0.00  0.00    -0.166 F 
ATOM     26  F   LIG    1      -28.046  71.996  17.012  0.00  0.00    -0.166 F 
ENDBRANCH  14  23
ENDBRANCH   9  12
ENDBRANCH   7   9
BRANCH   7  27
ATOM     27  O   LIG    1      -29.880  65.514  18.515  0.00  0.00    -0.481 OA
ATOM     28  H   LIG    1      -29.820  65.722  17.582  0.00  0.00    +0.295 HD
ENDBRANCH   7  27
ENDBRANCH   1   8
BRANCH   4  29
ATOM     29  O   LIG    1      -36.790  65.713  21.722  0.00  0.00    -0.424 OA
BRANCH  29  30
ATOM     30  C   LIG    1      -37.220  66.872  22.316  0.00  0.00    +0.132 A 
ATOM     31  C   LIG    1      -37.226  67.125  23.682  0.00  0.00    +0.047 A 
ATOM     32  C   LIG    1      -37.624  68.385  24.164  0.00  0.00    +0.012 A 
ATOM     33  C   LIG    1      -37.981  69.446  23.302  0.00  0.00    -0.014 A 
ATOM     34  C   LIG    1      -37.911  69.170  21.926  0.00  0.00    +0.012 A 
ATOM     35  C   LIG    1      -37.549  67.906  21.440  0.00  0.00    +0.047 A 
BRANCH  33  36
ATOM     36  C   LIG    1      -38.371  70.790  23.832  0.00  0.00    +0.023 A 
ATOM     37  C   LIG    1      -37.517  71.656  24.552  0.00  0.00    +0.124 A 
ATOM     38  N   LIG    1      -37.887  72.866  25.033  0.00  0.00    -0.239 NA
ATOM     39  C   LIG    1      -39.148  73.279  24.791  0.00  0.00    +0.133 A 
ATOM     40  C   LIG    1      -40.071  72.527  24.097  0.00  0.00    +0.060 A 
ATOM     41 CL   LIG    1      -41.657  73.118  23.814  0.00  0.00    -0.082 Cl
ATOM     42  C   LIG    1      -39.682  71.276  23.629  0.00  0.00    +0.033 A 
BRANCH  37  43
ATOM     43  N   LIG    1      -36.186  71.361  24.838  0.00  0.00    -0.343 N 
ATOM     44  H   LIG    1      -35.887  71.834  25.685  0.00  0.00    +0.144 HD
ATOM     45  H   LIG    1      -36.133  70.350  24.937  0.00  0.00    +0.144 HD
ENDBRANCH  37  43
ENDBRANCH  33  36
ENDBRANCH  29  30
ENDBRANCH   4  29
TORSDOF 10
ENDMDL
