MODEL 1
REMARK VINA RESULT:      -6.7      0.000      0.000
REMARK  Name = pdb/CHEMBL3955042.pdb
REMARK                            x       y       z     vdW  Elec       q    Type
REMARK                         _______ _______ _______ _____ _____    ______ ____
ROOT
ATOM      1  C   LIG    1      -33.649  73.252  28.345  0.00  0.00    +0.149 A 
ATOM      2  N   LIG    1      -33.859  74.446  27.770  0.00  0.00    -0.160 NA
ATOM      3  N   LIG    1      -33.108  75.324  28.481  0.00  0.00    -0.218 N 
ATOM      4  C   LIG    1      -32.271  74.660  29.384  0.00  0.00    +0.129 A 
ATOM      5  C   LIG    1      -32.683  73.349  29.369  0.00  0.00    +0.078 A 
ENDROOT
BRANCH   3   6
ATOM      6  C   LIG    1      -33.201  76.715  28.187  0.00  0.00    +0.071 A 
ATOM      7  C   LIG    1      -32.677  77.264  27.011  0.00  0.00    +0.073 A 
ATOM      8  C   LIG    1      -32.792  78.637  26.782  0.00  0.00    +0.119 A 
ATOM      9  C   LIG    1      -33.411  79.478  27.703  0.00  0.00    +0.045 A 
ATOM     10  C   LIG    1      -33.915  78.936  28.882  0.00  0.00    +0.006 A 
ATOM     11  C   LIG    1      -33.801  77.566  29.130  0.00  0.00    +0.028 A 
BRANCH   8  12
ATOM     12  O   LIG    1      -32.262  79.129  25.625  0.00  0.00    -0.507 OA
ATOM     13  H   LIG    1      -31.557  79.762  25.846  0.00  0.00    +0.292 HD
ENDBRANCH   8  12
ENDBRANCH   3   6
BRANCH   4  14
ATOM     14  N   LIG    1      -31.186  75.179  30.092  0.00  0.00    -0.266 N 
ATOM     15  H   LIG    1      -30.381  75.477  29.554  0.00  0.00    +0.157 HD
ATOM     16  C   LIG    1      -31.100  75.209  31.527  0.00  0.00    +0.251 C 
ATOM     17  O   LIG    1      -31.975  74.713  32.214  0.00  0.00    -0.270 OA
BRANCH  16  18
ATOM     18  C   LIG    1      -29.927  75.868  32.165  0.00  0.00    +0.056 A 
ATOM     19  C   LIG    1      -29.995  76.807  33.194  0.00  0.00    +0.053 A 
ATOM     20 CL   LIG    1      -31.447  77.537  33.762  0.00  0.00    -0.083 Cl
ATOM     21  C   LIG    1      -28.825  77.262  33.793  0.00  0.00    +0.021 A 
ATOM     22  C   LIG    1      -27.582  76.868  33.299  0.00  0.00    +0.011 A 
ATOM     23  C   LIG    1      -27.458  76.021  32.184  0.00  0.00    +0.004 A 
ATOM     24  C   LIG    1      -28.656  75.490  31.672  0.00  0.00    +0.024 A 
BRANCH  23  25
ATOM     25  C   LIG    1      -26.123  75.785  31.573  0.00  0.00    +0.106 A 
ATOM     26  C   LIG    1      -25.250  76.787  31.142  0.00  0.00    +0.149 A 
ATOM     27  F   LIG    1      -25.570  78.087  31.182  0.00  0.00    -0.203 F 
ATOM     28  C   LIG    1      -23.981  76.453  30.682  0.00  0.00    +0.042 A 
ATOM     29  C   LIG    1      -23.595  75.120  30.657  0.00  0.00    +0.023 A 
ATOM     30  C   LIG    1      -24.502  74.174  31.093  0.00  0.00    +0.111 A 
ATOM     31  N   LIG    1      -25.741  74.475  31.540  0.00  0.00    -0.252 NA
ENDBRANCH  23  25
ENDBRANCH  16  18
ENDBRANCH   4  14
BRANCH   1  32
ATOM     32  C   LIG    1      -34.300  72.022  27.909  0.00  0.00    +0.236 C 
ATOM     33  N   LIG    1      -33.838  70.881  28.305  0.00  0.00    -0.246 NA
BRANCH  33  34
ATOM     34  C   LIG    1      -34.528  69.668  28.010  0.00  0.00    +0.109 C 
ATOM     35  C   LIG    1      -33.762  68.402  28.293  0.00  0.00    +0.029 C 
ATOM     36  C   LIG    1      -33.975  68.846  26.880  0.00  0.00    +0.029 C 
ENDBRANCH  33  34
BRANCH  32  37
ATOM     37  O   LIG    1      -35.318  72.171  27.039  0.00  0.00    -0.491 OA
ATOM     38  H   LIG    1      -35.147  72.910  26.442  0.00  0.00    +0.294 HD
ENDBRANCH  32  37
ENDBRANCH   1  32
TORSDOF 8
ENDMDL
MODEL 2
REMARK VINA RESULT:      -6.7     17.156     19.373
REMARK  Name = pdb/CHEMBL3955042.pdb
REMARK                            x       y       z     vdW  Elec       q    Type
REMARK                         _______ _______ _______ _____ _____    ______ ____
ROOT
ATOM      1  C   LIG    1      -26.188  77.905  14.082  0.00  0.00    +0.149 A 
ATOM      2  N   LIG    1      -25.151  78.103  14.909  0.00  0.00    -0.160 NA
ATOM      3  N   LIG    1      -24.639  79.311  14.561  0.00  0.00    -0.218 N 
ATOM      4  C   LIG    1      -25.468  79.967  13.644  0.00  0.00    +0.129 A 
ATOM      5  C   LIG    1      -26.403  79.034  13.264  0.00  0.00    +0.078 A 
ENDROOT
BRANCH   3   6
ATOM      6  C   LIG    1      -23.442  79.765  15.186  0.00  0.00    +0.071 A 
ATOM      7  C   LIG    1      -23.357  81.014  15.810  0.00  0.00    +0.073 A 
ATOM      8  C   LIG    1      -22.154  81.408  16.400  0.00  0.00    +0.119 A 
ATOM      9  C   LIG    1      -21.030  80.587  16.375  0.00  0.00    +0.045 A 
ATOM     10  C   LIG    1      -21.107  79.352  15.737  0.00  0.00    +0.006 A 
ATOM     11  C   LIG    1      -22.301  78.947  15.135  0.00  0.00    +0.028 A 
BRANCH   8  12
ATOM     12  O   LIG    1      -22.115  82.637  16.992  0.00  0.00    -0.507 OA
ATOM     13  H   LIG    1      -21.688  83.266  16.385  0.00  0.00    +0.292 HD
ENDBRANCH   8  12
ENDBRANCH   3   6
BRANCH   4  14
ATOM     14  N   LIG    1      -25.426  81.306  13.253  0.00  0.00    -0.266 N 
ATOM     15  H   LIG    1      -26.171  81.908  13.582  0.00  0.00    +0.157 HD
ATOM     16  C   LIG    1      -24.466  81.846  12.329  0.00  0.00    +0.251 C 
ATOM     17  O   LIG    1      -23.652  81.124  11.784  0.00  0.00    -0.270 OA
BRANCH  16  18
ATOM     18  C   LIG    1      -24.473  83.310  12.058  0.00  0.00    +0.056 A 
ATOM     19  C   LIG    1      -25.425  83.979  11.290  0.00  0.00    +0.053 A 
ATOM     20 CL   LIG    1      -26.635  83.210  10.337  0.00  0.00    -0.083 Cl
ATOM     21  C   LIG    1      -25.395  85.368  11.208  0.00  0.00    +0.021 A 
ATOM     22  C   LIG    1      -24.357  86.086  11.799  0.00  0.00    +0.011 A 
ATOM     23  C   LIG    1      -23.304  85.449  12.479  0.00  0.00    +0.004 A 
ATOM     24  C   LIG    1      -23.422  84.057  12.641  0.00  0.00    +0.024 A 
BRANCH  23  25
ATOM     25  C   LIG    1      -22.122  86.235  12.924  0.00  0.00    +0.106 A 
ATOM     26  C   LIG    1      -21.776  86.478  14.256  0.00  0.00    +0.149 A 
ATOM     27  F   LIG    1      -22.531  86.066  15.283  0.00  0.00    -0.203 F 
ATOM     28  C   LIG    1      -20.590  87.138  14.556  0.00  0.00    +0.042 A 
ATOM     29  C   LIG    1      -19.760  87.550  13.524  0.00  0.00    +0.023 A 
ATOM     30  C   LIG    1      -20.157  87.286  12.227  0.00  0.00    +0.111 A 
ATOM     31  N   LIG    1      -21.306  86.649  11.911  0.00  0.00    -0.252 NA
ENDBRANCH  23  25
ENDBRANCH  16  18
ENDBRANCH   4  14
BRANCH   1  32
ATOM     32  C   LIG    1      -27.007  76.698  14.091  0.00  0.00    +0.236 C 
ATOM     33  N   LIG    1      -26.437  75.539  14.050  0.00  0.00    -0.246 NA
BRANCH  33  34
ATOM     34  C   LIG    1      -27.197  74.342  14.194  0.00  0.00    +0.109 C 
ATOM     35  C   LIG    1      -26.411  73.118  14.585  0.00  0.00    +0.029 C 
ATOM     36  C   LIG    1      -26.929  73.258  13.187  0.00  0.00    +0.029 C 
ENDBRANCH  33  34
BRANCH  32  37
ATOM     37  O   LIG    1      -28.341  76.893  14.065  0.00  0.00    -0.491 OA
ATOM     38  H   LIG    1      -28.716  76.554  13.242  0.00  0.00    +0.294 HD
ENDBRANCH  32  37
ENDBRANCH   1  32
TORSDOF 8
ENDMDL
MODEL 3
REMARK VINA RESULT:      -6.6     16.215     18.905
REMARK  Name = pdb/CHEMBL3955042.pdb
REMARK                            x       y       z     vdW  Elec       q    Type
REMARK                         _______ _______ _______ _____ _____    ______ ____
ROOT
ATOM      1  C   LIG    1      -22.674  82.810  15.460  0.00  0.00    +0.149 A 
ATOM      2  N   LIG    1      -23.745  82.185  14.949  0.00  0.00    -0.160 NA
ATOM      3  N   LIG    1      -23.384  80.881  14.842  0.00  0.00    -0.218 N 
ATOM      4  C   LIG    1      -22.154  80.644  15.464  0.00  0.00    +0.129 A 
ATOM      5  C   LIG    1      -21.654  81.887  15.772  0.00  0.00    +0.078 A 
ENDROOT
BRANCH   3   6
ATOM      6  C   LIG    1      -24.276  79.962  14.219  0.00  0.00    +0.071 A 
ATOM      7  C   LIG    1      -25.255  79.270  14.940  0.00  0.00    +0.073 A 
ATOM      8  C   LIG    1      -26.096  78.375  14.275  0.00  0.00    +0.119 A 
ATOM      9  C   LIG    1      -25.978  78.148  12.907  0.00  0.00    +0.045 A 
ATOM     10  C   LIG    1      -24.993  78.821  12.191  0.00  0.00    +0.006 A 
ATOM     11  C   LIG    1      -24.138  79.713  12.842  0.00  0.00    +0.028 A 
BRANCH   8  12
ATOM     12  O   LIG    1      -27.032  77.717  15.020  0.00  0.00    -0.507 OA
ATOM     13  H   LIG    1      -27.802  78.299  15.142  0.00  0.00    +0.292 HD
ENDBRANCH   8  12
ENDBRANCH   3   6
BRANCH   4  14
ATOM     14  N   LIG    1      -21.579  79.415  15.792  0.00  0.00    -0.266 N 
ATOM     15  H   LIG    1      -21.557  79.160  16.771  0.00  0.00    +0.157 HD
ATOM     16  C   LIG    1      -20.923  78.554  14.845  0.00  0.00    +0.251 C 
ATOM     17  O   LIG    1      -20.783  78.896  13.685  0.00  0.00    -0.270 OA
BRANCH  16  18
ATOM     18  C   LIG    1      -20.424  77.228  15.303  0.00  0.00    +0.056 A 
ATOM     19  C   LIG    1      -19.093  76.925  15.587  0.00  0.00    +0.053 A 
ATOM     20 CL   LIG    1      -17.758  77.958  15.250  0.00  0.00    -0.083 Cl
ATOM     21  C   LIG    1      -18.766  75.685  16.125  0.00  0.00    +0.021 A 
ATOM     22  C   LIG    1      -19.745  74.704  16.280  0.00  0.00    +0.011 A 
ATOM     23  C   LIG    1      -21.080  74.916  15.892  0.00  0.00    +0.004 A 
ATOM     24  C   LIG    1      -21.400  76.215  15.458  0.00  0.00    +0.024 A 
BRANCH  23  25
ATOM     25  C   LIG    1      -22.045  73.784  15.894  0.00  0.00    +0.106 A 
ATOM     26  C   LIG    1      -23.001  73.548  16.886  0.00  0.00    +0.149 A 
ATOM     27  F   LIG    1      -23.099  74.305  17.987  0.00  0.00    -0.203 F 
ATOM     28  C   LIG    1      -23.921  72.518  16.732  0.00  0.00    +0.042 A 
ATOM     29  C   LIG    1      -23.879  71.732  15.589  0.00  0.00    +0.023 A 
ATOM     30  C   LIG    1      -22.908  72.011  14.646  0.00  0.00    +0.111 A 
ATOM     31  N   LIG    1      -22.002  73.005  14.775  0.00  0.00    -0.252 NA
ENDBRANCH  23  25
ENDBRANCH  16  18
ENDBRANCH   4  14
BRANCH   1  32
ATOM     32  C   LIG    1      -22.620  84.246  15.707  0.00  0.00    +0.236 C 
ATOM     33  N   LIG    1      -22.281  85.046  14.750  0.00  0.00    -0.246 NA
BRANCH  33  34
ATOM     34  C   LIG    1      -22.349  86.461  14.917  0.00  0.00    +0.109 C 
ATOM     35  C   LIG    1      -22.144  87.272  13.665  0.00  0.00    +0.029 C 
ATOM     36  C   LIG    1      -21.068  87.218  14.704  0.00  0.00    +0.029 C 
ENDBRANCH  33  34
BRANCH  32  37
ATOM     37  O   LIG    1      -22.863  84.634  16.975  0.00  0.00    -0.491 OA
ATOM     38  H   LIG    1      -22.572  85.545  17.111  0.00  0.00    +0.294 HD
ENDBRANCH  32  37
ENDBRANCH   1  32
TORSDOF 8
ENDMDL
MODEL 4
REMARK VINA RESULT:      -6.6      6.581      8.838
REMARK  Name = pdb/CHEMBL3955042.pdb
REMARK                            x       y       z     vdW  Elec       q    Type
REMARK                         _______ _______ _______ _____ _____    ______ ____
ROOT
ATOM      1  C   LIG    1      -39.222  73.927  24.509  0.00  0.00    +0.149 A 
ATOM      2  N   LIG    1      -39.802  75.091  24.179  0.00  0.00    -0.160 NA
ATOM      3  N   LIG    1      -39.073  76.047  24.809  0.00  0.00    -0.218 N 
ATOM      4  C   LIG    1      -37.916  75.507  25.381  0.00  0.00    +0.129 A 
ATOM      5  C   LIG    1      -38.057  74.144  25.275  0.00  0.00    +0.078 A 
ENDROOT
BRANCH   3   6
ATOM      6  C   LIG    1      -39.506  77.403  24.750  0.00  0.00    +0.071 A 
ATOM      7  C   LIG    1      -39.120  78.262  23.716  0.00  0.00    +0.073 A 
ATOM      8  C   LIG    1      -39.570  79.585  23.716  0.00  0.00    +0.119 A 
ATOM      9  C   LIG    1      -40.392  80.072  24.728  0.00  0.00    +0.045 A 
ATOM     10  C   LIG    1      -40.761  79.223  25.768  0.00  0.00    +0.006 A 
ATOM     11  C   LIG    1      -40.313  77.900  25.788  0.00  0.00    +0.028 A 
BRANCH   8  12
ATOM     12  O   LIG    1      -39.163  80.389  22.691  0.00  0.00    -0.507 OA
ATOM     13  H   LIG    1      -38.274  80.113  22.408  0.00  0.00    +0.292 HD
ENDBRANCH   8  12
ENDBRANCH   3   6
BRANCH   4  14
ATOM     14  N   LIG    1      -36.803  76.189  25.877  0.00  0.00    -0.266 N 
ATOM     15  H   LIG    1      -36.002  76.275  25.265  0.00  0.00    +0.157 HD
ATOM     16  C   LIG    1      -36.688  76.668  27.228  0.00  0.00    +0.251 C 
ATOM     17  O   LIG    1      -37.563  76.443  28.045  0.00  0.00    -0.270 OA
BRANCH  16  18
ATOM     18  C   LIG    1      -35.485  77.457  27.612  0.00  0.00    +0.056 A 
ATOM     19  C   LIG    1      -34.186  76.955  27.683  0.00  0.00    +0.053 A 
ATOM     20 CL   LIG    1      -33.768  75.290  27.557  0.00  0.00    -0.083 Cl
ATOM     21  C   LIG    1      -33.125  77.819  27.936  0.00  0.00    +0.021 A 
ATOM     22  C   LIG    1      -33.364  79.162  28.225  0.00  0.00    +0.011 A 
ATOM     23  C   LIG    1      -34.665  79.690  28.289  0.00  0.00    +0.004 A 
ATOM     24  C   LIG    1      -35.706  78.820  27.919  0.00  0.00    +0.024 A 
BRANCH  23  25
ATOM     25  C   LIG    1      -34.882  81.074  28.789  0.00  0.00    +0.106 A 
ATOM     26  C   LIG    1      -35.431  82.119  28.042  0.00  0.00    +0.149 A 
ATOM     27  F   LIG    1      -35.763  81.985  26.750  0.00  0.00    -0.203 F 
ATOM     28  C   LIG    1      -35.686  83.345  28.645  0.00  0.00    +0.042 A 
ATOM     29  C   LIG    1      -35.390  83.518  29.990  0.00  0.00    +0.023 A 
ATOM     30  C   LIG    1      -34.845  82.449  30.676  0.00  0.00    +0.111 A 
ATOM     31  N   LIG    1      -34.586  81.249  30.110  0.00  0.00    -0.252 NA
ENDBRANCH  23  25
ENDBRANCH  16  18
ENDBRANCH   4  14
BRANCH   1  32
ATOM     32  C   LIG    1      -39.715  72.627  24.068  0.00  0.00    +0.236 C 
ATOM     33  N   LIG    1      -40.889  72.538  23.535  0.00  0.00    -0.246 NA
BRANCH  33  34
ATOM     34  C   LIG    1      -41.347  71.310  22.971  0.00  0.00    +0.109 C 
ATOM     35  C   LIG    1      -42.309  71.446  21.820  0.00  0.00    +0.029 C 
ATOM     36  C   LIG    1      -42.805  70.995  23.159  0.00  0.00    +0.029 C 
ENDBRANCH  33  34
BRANCH  32  37
ATOM     37  O   LIG    1      -38.913  71.575  24.327  0.00  0.00    -0.491 OA
ATOM     38  H   LIG    1      -39.394  70.747  24.210  0.00  0.00    +0.294 HD
ENDBRANCH  32  37
ENDBRANCH   1  32
TORSDOF 8
ENDMDL
MODEL 5
REMARK VINA RESULT:      -6.5      7.869     13.028
REMARK  Name = pdb/CHEMBL3955042.pdb
REMARK                            x       y       z     vdW  Elec       q    Type
REMARK                         _______ _______ _______ _____ _____    ______ ____
ROOT
ATOM      1  C   LIG    1      -35.463  69.727  25.735  0.00  0.00    +0.149 A 
ATOM      2  N   LIG    1      -36.046  69.147  24.675  0.00  0.00    -0.160 NA
ATOM      3  N   LIG    1      -36.987  70.031  24.255  0.00  0.00    -0.218 N 
ATOM      4  C   LIG    1      -36.870  71.252  24.927  0.00  0.00    +0.129 A 
ATOM      5  C   LIG    1      -35.965  71.029  25.937  0.00  0.00    +0.078 A 
ENDROOT
BRANCH   3   6
ATOM      6  C   LIG    1      -37.868  69.658  23.200  0.00  0.00    +0.071 A 
ATOM      7  C   LIG    1      -37.399  69.277  21.939  0.00  0.00    +0.073 A 
ATOM      8  C   LIG    1      -38.313  68.930  20.940  0.00  0.00    +0.119 A 
ATOM      9  C   LIG    1      -39.685  68.961  21.169  0.00  0.00    +0.045 A 
ATOM     10  C   LIG    1      -40.155  69.359  22.418  0.00  0.00    +0.006 A 
ATOM     11  C   LIG    1      -39.255  69.718  23.424  0.00  0.00    +0.028 A 
BRANCH   8  12
ATOM     12  O   LIG    1      -37.810  68.570  19.724  0.00  0.00    -0.507 OA
ATOM     13  H   LIG    1      -36.843  68.674  19.739  0.00  0.00    +0.292 HD
ENDBRANCH   8  12
ENDBRANCH   3   6
BRANCH   4  14
ATOM     14  N   LIG    1      -37.468  72.472  24.604  0.00  0.00    -0.266 N 
ATOM     15  H   LIG    1      -36.950  73.094  23.995  0.00  0.00    +0.157 HD
ATOM     16  C   LIG    1      -38.705  72.938  25.169  0.00  0.00    +0.251 C 
ATOM     17  O   LIG    1      -39.279  72.294  26.028  0.00  0.00    -0.270 OA
BRANCH  16  18
ATOM     18  C   LIG    1      -39.283  74.220  24.678  0.00  0.00    +0.056 A 
ATOM     19  C   LIG    1      -38.674  75.470  24.791  0.00  0.00    +0.053 A 
ATOM     20 CL   LIG    1      -37.254  75.791  25.710  0.00  0.00    -0.083 Cl
ATOM     21  C   LIG    1      -39.256  76.578  24.185  0.00  0.00    +0.021 A 
ATOM     22  C   LIG    1      -40.497  76.469  23.559  0.00  0.00    +0.011 A 
ATOM     23  C   LIG    1      -41.210  75.258  23.527  0.00  0.00    +0.004 A 
ATOM     24  C   LIG    1      -40.546  74.133  24.048  0.00  0.00    +0.024 A 
BRANCH  23  25
ATOM     25  C   LIG    1      -42.609  75.231  23.022  0.00  0.00    +0.106 A 
ATOM     26  C   LIG    1      -43.199  74.156  22.352  0.00  0.00    +0.149 A 
ATOM     27  F   LIG    1      -42.522  73.043  22.039  0.00  0.00    -0.203 F 
ATOM     28  C   LIG    1      -44.548  74.201  22.019  0.00  0.00    +0.042 A 
ATOM     29  C   LIG    1      -45.296  75.320  22.356  0.00  0.00    +0.023 A 
ATOM     30  C   LIG    1      -44.656  76.353  23.015  0.00  0.00    +0.111 A 
ATOM     31  N   LIG    1      -43.347  76.333  23.346  0.00  0.00    -0.252 NA
ENDBRANCH  23  25
ENDBRANCH  16  18
ENDBRANCH   4  14
BRANCH   1  32
ATOM     32  C   LIG    1      -34.408  69.095  26.519  0.00  0.00    +0.236 C 
ATOM     33  N   LIG    1      -33.859  69.747  27.492  0.00  0.00    -0.246 NA
BRANCH  33  34
ATOM     34  C   LIG    1      -32.923  69.114  28.363  0.00  0.00    +0.109 C 
ATOM     35  C   LIG    1      -33.127  69.375  29.832  0.00  0.00    +0.029 C 
ATOM     36  C   LIG    1      -31.989  70.024  29.109  0.00  0.00    +0.029 C 
ENDBRANCH  33  34
BRANCH  32  37
ATOM     37  O   LIG    1      -34.022  67.871  26.108  0.00  0.00    -0.491 OA
ATOM     38  H   LIG    1      -33.812  67.310  26.866  0.00  0.00    +0.294 HD
ENDBRANCH  32  37
ENDBRANCH   1  32
TORSDOF 8
ENDMDL
MODEL 6
REMARK VINA RESULT:      -6.4      4.683      7.227
REMARK  Name = pdb/CHEMBL3955042.pdb
REMARK                            x       y       z     vdW  Elec       q    Type
REMARK                         _______ _______ _______ _____ _____    ______ ____
ROOT
ATOM      1  C   LIG    1      -35.519  69.178  24.946  0.00  0.00    +0.149 A 
ATOM      2  N   LIG    1      -36.574  70.006  24.912  0.00  0.00    -0.160 NA
ATOM      3  N   LIG    1      -36.249  71.035  25.735  0.00  0.00    -0.218 N 
ATOM      4  C   LIG    1      -34.912  70.957  26.139  0.00  0.00    +0.129 A 
ATOM      5  C   LIG    1      -34.473  69.725  25.718  0.00  0.00    +0.078 A 
ENDROOT
BRANCH   3   6
ATOM      6  C   LIG    1      -37.220  72.041  26.007  0.00  0.00    +0.071 A 
ATOM      7  C   LIG    1      -37.787  72.820  24.993  0.00  0.00    +0.073 A 
ATOM      8  C   LIG    1      -38.729  73.798  25.322  0.00  0.00    +0.119 A 
ATOM      9  C   LIG    1      -39.114  74.021  26.641  0.00  0.00    +0.045 A 
ATOM     10  C   LIG    1      -38.536  73.259  27.653  0.00  0.00    +0.006 A 
ATOM     11  C   LIG    1      -37.586  72.283  27.342  0.00  0.00    +0.028 A 
BRANCH   8  12
ATOM     12  O   LIG    1      -39.252  74.538  24.302  0.00  0.00    -0.507 OA
ATOM     13  H   LIG    1      -39.831  73.970  23.765  0.00  0.00    +0.292 HD
ENDBRANCH   8  12
ENDBRANCH   3   6
BRANCH   4  14
ATOM     14  N   LIG    1      -34.142  71.943  26.760  0.00  0.00    -0.266 N 
ATOM     15  H   LIG    1      -33.536  72.497  26.169  0.00  0.00    +0.157 HD
ATOM     16  C   LIG    1      -34.076  72.137  28.183  0.00  0.00    +0.251 C 
ATOM     17  O   LIG    1      -34.664  71.387  28.941  0.00  0.00    -0.270 OA
BRANCH  16  18
ATOM     18  C   LIG    1      -33.285  73.279  28.718  0.00  0.00    +0.056 A 
ATOM     19  C   LIG    1      -32.298  73.182  29.698  0.00  0.00    +0.053 A 
ATOM     20 CL   LIG    1      -31.967  71.767  30.622  0.00  0.00    -0.083 Cl
ATOM     21  C   LIG    1      -31.541  74.301  30.030  0.00  0.00    +0.021 A 
ATOM     22  C   LIG    1      -31.837  75.542  29.468  0.00  0.00    +0.011 A 
ATOM     23  C   LIG    1      -32.903  75.718  28.569  0.00  0.00    +0.004 A 
ATOM     24  C   LIG    1      -33.575  74.550  28.169  0.00  0.00    +0.024 A 
BRANCH  23  25
ATOM     25  C   LIG    1      -33.303  77.087  28.147  0.00  0.00    +0.106 A 
ATOM     26  C   LIG    1      -34.479  77.734  28.536  0.00  0.00    +0.149 A 
ATOM     27  F   LIG    1      -35.410  77.141  29.295  0.00  0.00    -0.203 F 
ATOM     28  C   LIG    1      -34.700  79.055  28.165  0.00  0.00    +0.042 A 
ATOM     29  C   LIG    1      -33.745  79.719  27.408  0.00  0.00    +0.023 A 
ATOM     30  C   LIG    1      -32.605  79.026  27.051  0.00  0.00    +0.111 A 
ATOM     31  N   LIG    1      -32.369  77.742  27.397  0.00  0.00    -0.252 NA
ENDBRANCH  23  25
ENDBRANCH  16  18
ENDBRANCH   4  14
BRANCH   1  32
ATOM     32  C   LIG    1      -35.463  67.914  24.220  0.00  0.00    +0.236 C 
ATOM     33  N   LIG    1      -34.826  67.850  23.097  0.00  0.00    -0.246 NA
BRANCH  33  34
ATOM     34  C   LIG    1      -34.637  66.603  22.431  0.00  0.00    +0.109 C 
ATOM     35  C   LIG    1      -33.843  66.666  21.153  0.00  0.00    +0.029 C 
ATOM     36  C   LIG    1      -35.323  66.448  21.102  0.00  0.00    +0.029 C 
ENDBRANCH  33  34
BRANCH  32  37
ATOM     37  O   LIG    1      -36.167  66.896  24.756  0.00  0.00    -0.491 OA
ATOM     38  H   LIG    1      -37.009  67.214  25.105  0.00  0.00    +0.294 HD
ENDBRANCH  32  37
ENDBRANCH   1  32
TORSDOF 8
ENDMDL
MODEL 7
REMARK VINA RESULT:      -6.4      2.371      4.541
REMARK  Name = pdb/CHEMBL3955042.pdb
REMARK                            x       y       z     vdW  Elec       q    Type
REMARK                         _______ _______ _______ _____ _____    ______ ____
ROOT
ATOM      1  C   LIG    1      -33.367  76.217  28.337  0.00  0.00    +0.149 A 
ATOM      2  N   LIG    1      -33.396  74.956  28.793  0.00  0.00    -0.160 NA
ATOM      3  N   LIG    1      -32.185  74.754  29.372  0.00  0.00    -0.218 N 
ATOM      4  C   LIG    1      -31.459  75.947  29.454  0.00  0.00    +0.129 A 
ATOM      5  C   LIG    1      -32.168  76.859  28.709  0.00  0.00    +0.078 A 
ENDROOT
BRANCH   3   6
ATOM      6  C   LIG    1      -31.855  73.458  29.860  0.00  0.00    +0.071 A 
ATOM      7  C   LIG    1      -30.748  72.745  29.387  0.00  0.00    +0.073 A 
ATOM      8  C   LIG    1      -30.479  71.473  29.898  0.00  0.00    +0.119 A 
ATOM      9  C   LIG    1      -31.293  70.892  30.865  0.00  0.00    +0.045 A 
ATOM     10  C   LIG    1      -32.407  71.592  31.323  0.00  0.00    +0.006 A 
ATOM     11  C   LIG    1      -32.694  72.861  30.816  0.00  0.00    +0.028 A 
BRANCH   8  12
ATOM     12  O   LIG    1      -29.392  70.812  29.403  0.00  0.00    -0.507 OA
ATOM     13  H   LIG    1      -29.408  69.894  29.727  0.00  0.00    +0.292 HD
ENDBRANCH   8  12
ENDBRANCH   3   6
BRANCH   4  14
ATOM     14  N   LIG    1      -30.307  76.203  30.200  0.00  0.00    -0.266 N 
ATOM     15  H   LIG    1      -29.442  76.325  29.688  0.00  0.00    +0.157 HD
ATOM     16  C   LIG    1      -30.257  76.189  31.637  0.00  0.00    +0.251 C 
ATOM     17  O   LIG    1      -31.238  75.887  32.291  0.00  0.00    -0.270 OA
BRANCH  16  18
ATOM     18  C   LIG    1      -28.986  76.563  32.317  0.00  0.00    +0.056 A 
ATOM     19  C   LIG    1      -28.894  77.163  33.572  0.00  0.00    +0.053 A 
ATOM     20 CL   LIG    1      -30.230  77.781  34.465  0.00  0.00    -0.083 Cl
ATOM     21  C   LIG    1      -27.646  77.353  34.157  0.00  0.00    +0.021 A 
ATOM     22  C   LIG    1      -26.483  77.048  33.451  0.00  0.00    +0.011 A 
ATOM     23  C   LIG    1      -26.519  76.557  32.134  0.00  0.00    +0.004 A 
ATOM     24  C   LIG    1      -27.793  76.270  31.613  0.00  0.00    +0.024 A 
BRANCH  23  25
ATOM     25  C   LIG    1      -25.260  76.430  31.352  0.00  0.00    +0.106 A 
ATOM     26  C   LIG    1      -24.738  77.413  30.507  0.00  0.00    +0.149 A 
ATOM     27  F   LIG    1      -25.374  78.568  30.268  0.00  0.00    -0.203 F 
ATOM     28  C   LIG    1      -23.499  77.227  29.907  0.00  0.00    +0.042 A 
ATOM     29  C   LIG    1      -22.789  76.061  30.156  0.00  0.00    +0.023 A 
ATOM     30  C   LIG    1      -23.358  75.123  30.997  0.00  0.00    +0.111 A 
ATOM     31  N   LIG    1      -24.563  75.281  31.589  0.00  0.00    -0.252 NA
ENDBRANCH  23  25
ENDBRANCH  16  18
ENDBRANCH   4  14
BRANCH   1  32
ATOM     32  C   LIG    1      -34.468  76.836  27.609  0.00  0.00    +0.236 C 
ATOM     33  N   LIG    1      -35.481  76.117  27.251  0.00  0.00    -0.246 NA
BRANCH  33  34
ATOM     34  C   LIG    1      -36.633  76.715  26.660  0.00  0.00    +0.109 C 
ATOM     35  C   LIG    1      -37.952  76.097  27.042  0.00  0.00    +0.029 C 
ATOM     36  C   LIG    1      -37.390  75.870  25.674  0.00  0.00    +0.029 C 
ENDBRANCH  33  34
BRANCH  32  37
ATOM     37  O   LIG    1      -34.305  78.136  27.290  0.00  0.00    -0.491 OA
ATOM     38  H   LIG    1      -33.845  78.603  27.999  0.00  0.00    +0.294 HD
ENDBRANCH  32  37
ENDBRANCH   1  32
TORSDOF 8
ENDMDL
MODEL 8
REMARK VINA RESULT:      -6.4      5.313      9.744
REMARK  Name = pdb/CHEMBL3955042.pdb
REMARK                            x       y       z     vdW  Elec       q    Type
REMARK                         _______ _______ _______ _____ _____    ______ ____
ROOT
ATOM      1  C   LIG    1      -32.463  73.639  29.721  0.00  0.00    +0.149 A 
ATOM      2  N   LIG    1      -32.429  74.980  29.699  0.00  0.00    -0.160 NA
ATOM      3  N   LIG    1      -33.220  75.343  28.658  0.00  0.00    -0.218 N 
ATOM      4  C   LIG    1      -33.910  74.243  28.139  0.00  0.00    +0.129 A 
ATOM      5  C   LIG    1      -33.357  73.142  28.749  0.00  0.00    +0.078 A 
ENDROOT
BRANCH   3   6
ATOM      6  C   LIG    1      -33.303  76.718  28.295  0.00  0.00    +0.071 A 
ATOM      7  C   LIG    1      -32.745  77.209  27.110  0.00  0.00    +0.073 A 
ATOM      8  C   LIG    1      -32.852  78.570  26.811  0.00  0.00    +0.119 A 
ATOM      9  C   LIG    1      -33.497  79.454  27.672  0.00  0.00    +0.045 A 
ATOM     10  C   LIG    1      -34.036  78.970  28.861  0.00  0.00    +0.006 A 
ATOM     11  C   LIG    1      -33.930  77.613  29.178  0.00  0.00    +0.028 A 
BRANCH   8  12
ATOM     12  O   LIG    1      -32.287  79.006  25.648  0.00  0.00    -0.507 OA
ATOM     13  H   LIG    1      -31.636  79.698  25.855  0.00  0.00    +0.292 HD
ENDBRANCH   8  12
ENDBRANCH   3   6
BRANCH   4  14
ATOM     14  N   LIG    1      -34.992  74.244  27.256  0.00  0.00    -0.266 N 
ATOM     15  H   LIG    1      -34.783  74.323  26.269  0.00  0.00    +0.157 HD
ATOM     16  C   LIG    1      -36.369  74.256  27.668  0.00  0.00    +0.251 C 
ATOM     17  O   LIG    1      -36.665  74.326  28.848  0.00  0.00    -0.270 OA
BRANCH  16  18
ATOM     18  C   LIG    1      -37.433  74.170  26.630  0.00  0.00    +0.056 A 
ATOM     19  C   LIG    1      -37.801  73.007  25.953  0.00  0.00    +0.053 A 
ATOM     20 CL   LIG    1      -36.949  71.513  26.033  0.00  0.00    -0.083 Cl
ATOM     21  C   LIG    1      -38.892  73.026  25.092  0.00  0.00    +0.021 A 
ATOM     22  C   LIG    1      -39.553  74.223  24.818  0.00  0.00    +0.011 A 
ATOM     23  C   LIG    1      -39.143  75.445  25.378  0.00  0.00    +0.004 A 
ATOM     24  C   LIG    1      -38.110  75.375  26.330  0.00  0.00    +0.024 A 
BRANCH  23  25
ATOM     25  C   LIG    1      -39.750  76.720  24.910  0.00  0.00    +0.106 A 
ATOM     26  C   LIG    1      -39.146  77.617  24.024  0.00  0.00    +0.149 A 
ATOM     27  F   LIG    1      -37.906  77.437  23.550  0.00  0.00    -0.203 F 
ATOM     28  C   LIG    1      -39.850  78.727  23.573  0.00  0.00    +0.042 A 
ATOM     29  C   LIG    1      -41.151  78.933  24.011  0.00  0.00    +0.023 A 
ATOM     30  C   LIG    1      -41.693  78.014  24.889  0.00  0.00    +0.111 A 
ATOM     31  N   LIG    1      -41.026  76.929  25.343  0.00  0.00    -0.252 NA
ENDBRANCH  23  25
ENDBRANCH  16  18
ENDBRANCH   4  14
BRANCH   1  32
ATOM     32  C   LIG    1      -31.714  72.829  30.674  0.00  0.00    +0.236 C 
ATOM     33  N   LIG    1      -31.072  71.786  30.259  0.00  0.00    -0.246 NA
BRANCH  33  34
ATOM     34  C   LIG    1      -30.221  71.052  31.137  0.00  0.00    +0.109 C 
ATOM     35  C   LIG    1      -29.026  70.404  30.489  0.00  0.00    +0.029 C 
ATOM     36  C   LIG    1      -30.181  69.563  30.933  0.00  0.00    +0.029 C 
ENDBRANCH  33  34
BRANCH  32  37
ATOM     37  O   LIG    1      -31.813  73.199  31.967  0.00  0.00    -0.491 OA
ATOM     38  H   LIG    1      -31.246  72.648  32.520  0.00  0.00    +0.294 HD
ENDBRANCH  32  37
ENDBRANCH   1  32
TORSDOF 8
ENDMDL
MODEL 9
REMARK VINA RESULT:      -6.3     17.094     20.057
REMARK  Name = pdb/CHEMBL3955042.pdb
REMARK                            x       y       z     vdW  Elec       q    Type
REMARK                         _______ _______ _______ _____ _____    ______ ____
ROOT
ATOM      1  C   LIG    1      -22.069  84.174  13.688  0.00  0.00    +0.149 A 
ATOM      2  N   LIG    1      -20.845  83.734  14.016  0.00  0.00    -0.160 NA
ATOM      3  N   LIG    1      -20.992  82.406  14.253  0.00  0.00    -0.218 N 
ATOM      4  C   LIG    1      -22.268  81.964  13.888  0.00  0.00    +0.129 A 
ATOM      5  C   LIG    1      -22.987  83.105  13.620  0.00  0.00    +0.078 A 
ENDROOT
BRANCH   3   6
ATOM      6  C   LIG    1      -19.880  81.660  14.739  0.00  0.00    +0.071 A 
ATOM      7  C   LIG    1      -20.002  80.740  15.786  0.00  0.00    +0.073 A 
ATOM      8  C   LIG    1      -18.874  80.043  16.225  0.00  0.00    +0.119 A 
ATOM      9  C   LIG    1      -17.623  80.248  15.649  0.00  0.00    +0.045 A 
ATOM     10  C   LIG    1      -17.497  81.177  14.619  0.00  0.00    +0.006 A 
ATOM     11  C   LIG    1      -18.613  81.889  14.174  0.00  0.00    +0.028 A 
BRANCH   8  12
ATOM     12  O   LIG    1      -19.038  79.161  17.253  0.00  0.00    -0.507 OA
ATOM     13  H   LIG    1      -18.780  78.273  16.950  0.00  0.00    +0.292 HD
ENDBRANCH   8  12
ENDBRANCH   3   6
BRANCH   4  14
ATOM     14  N   LIG    1      -22.712  80.650  13.736  0.00  0.00    -0.266 N 
ATOM     15  H   LIG    1      -22.627  80.236  12.816  0.00  0.00    +0.157 HD
ATOM     16  C   LIG    1      -23.380  79.900  14.766  0.00  0.00    +0.251 C 
ATOM     17  O   LIG    1      -23.649  80.415  15.836  0.00  0.00    -0.270 OA
BRANCH  16  18
ATOM     18  C   LIG    1      -23.729  78.476  14.508  0.00  0.00    +0.056 A 
ATOM     19  C   LIG    1      -24.734  78.039  13.646  0.00  0.00    +0.053 A 
ATOM     20 CL   LIG    1      -25.897  79.063  12.895  0.00  0.00    -0.083 Cl
ATOM     21  C   LIG    1      -24.886  76.679  13.394  0.00  0.00    +0.021 A 
ATOM     22  C   LIG    1      -24.111  75.746  14.080  0.00  0.00    +0.011 A 
ATOM     23  C   LIG    1      -23.170  76.128  15.052  0.00  0.00    +0.004 A 
ATOM     24  C   LIG    1      -22.961  77.511  15.202  0.00  0.00    +0.024 A 
BRANCH  23  25
ATOM     25  C   LIG    1      -22.508  75.097  15.894  0.00  0.00    +0.106 A 
ATOM     26  C   LIG    1      -21.144  74.793  15.866  0.00  0.00    +0.149 A 
ATOM     27  F   LIG    1      -20.294  75.376  15.010  0.00  0.00    -0.203 F 
ATOM     28  C   LIG    1      -20.616  73.882  16.773  0.00  0.00    +0.042 A 
ATOM     29  C   LIG    1      -21.454  73.282  17.702  0.00  0.00    +0.023 A 
ATOM     30  C   LIG    1      -22.794  73.619  17.678  0.00  0.00    +0.111 A 
ATOM     31  N   LIG    1      -23.330  74.498  16.804  0.00  0.00    -0.252 NA
ENDBRANCH  23  25
ENDBRANCH  16  18
ENDBRANCH   4  14
BRANCH   1  32
ATOM     32  C   LIG    1      -22.371  85.568  13.386  0.00  0.00    +0.236 C 
ATOM     33  N   LIG    1      -21.403  86.411  13.231  0.00  0.00    -0.246 NA
BRANCH  33  34
ATOM     34  C   LIG    1      -21.656  87.748  12.803  0.00  0.00    +0.109 C 
ATOM     35  C   LIG    1      -20.485  88.461  12.180  0.00  0.00    +0.029 C 
ATOM     36  C   LIG    1      -20.940  88.834  13.556  0.00  0.00    +0.029 C 
ENDBRANCH  33  34
BRANCH  32  37
ATOM     37  O   LIG    1      -23.678  85.897  13.366  0.00  0.00    -0.491 OA
ATOM     38  H   LIG    1      -23.934  86.318  14.196  0.00  0.00    +0.294 HD
ENDBRANCH  32  37
ENDBRANCH   1  32
TORSDOF 8
ENDMDL
