MODEL 1
REMARK VINA RESULT:      -6.3      0.000      0.000
REMARK  Name = pdb/CHEMBL3930567.pdb
REMARK                            x       y       z     vdW  Elec       q    Type
REMARK                         _______ _______ _______ _____ _____    ______ ____
ROOT
ATOM      1  C   LIG    1      -36.129  69.175  25.165  0.00  0.00    +0.149 A 
ATOM      2  N   LIG    1      -37.138  70.053  25.147  0.00  0.00    -0.160 NA
ATOM      3  N   LIG    1      -36.686  71.158  25.781  0.00  0.00    -0.218 N 
ATOM      4  C   LIG    1      -35.352  71.021  26.181  0.00  0.00    +0.129 A 
ATOM      5  C   LIG    1      -35.005  69.729  25.830  0.00  0.00    +0.078 A 
ENDROOT
BRANCH   3   6
ATOM      6  C   LIG    1      -37.566  72.268  25.904  0.00  0.00    +0.067 A 
ATOM      7  C   LIG    1      -37.913  73.066  24.813  0.00  0.00    +0.028 A 
ATOM      8  C   LIG    1      -38.786  74.146  24.991  0.00  0.00    +0.002 A 
ATOM      9  C   LIG    1      -39.304  74.436  26.255  0.00  0.00    +0.000 A 
ATOM     10  C   LIG    1      -38.941  73.659  27.350  0.00  0.00    +0.002 A 
ATOM     11  C   LIG    1      -38.065  72.587  27.179  0.00  0.00    +0.028 A 
ENDBRANCH   3   6
BRANCH   4  12
ATOM     12  N   LIG    1      -34.491  72.012  26.689  0.00  0.00    -0.266 N 
ATOM     13  H   LIG    1      -33.893  72.492  26.025  0.00  0.00    +0.157 HD
ATOM     14  C   LIG    1      -34.417  72.354  28.089  0.00  0.00    +0.251 C 
ATOM     15  O   LIG    1      -35.152  71.815  28.899  0.00  0.00    -0.270 OA
BRANCH  14  16
ATOM     16  C   LIG    1      -33.397  73.337  28.549  0.00  0.00    +0.056 A 
ATOM     17  C   LIG    1      -32.235  73.008  29.239  0.00  0.00    +0.054 A 
ATOM     18 CL   LIG    1      -31.723  71.390  29.515  0.00  0.00    -0.083 Cl
ATOM     19  C   LIG    1      -31.398  74.020  29.708  0.00  0.00    +0.041 A 
ATOM     20  C   LIG    1      -31.684  75.371  29.460  0.00  0.00    +0.052 A 
ATOM     21 CL   LIG    1      -30.649  76.497  30.277  0.00  0.00    -0.083 Cl
ATOM     22  C   LIG    1      -32.779  75.749  28.652  0.00  0.00    +0.022 A 
ATOM     23  C   LIG    1      -33.628  74.695  28.228  0.00  0.00    +0.026 A 
BRANCH  22  24
ATOM     24  C   LIG    1      -33.037  77.151  28.215  0.00  0.00    +0.107 A 
ATOM     25  C   LIG    1      -32.415  77.763  27.123  0.00  0.00    +0.149 A 
ATOM     26  F   LIG    1      -31.552  77.099  26.340  0.00  0.00    -0.203 F 
ATOM     27  C   LIG    1      -32.691  79.092  26.814  0.00  0.00    +0.042 A 
ATOM     28  C   LIG    1      -33.614  79.790  27.579  0.00  0.00    +0.023 A 
ATOM     29  C   LIG    1      -34.197  79.132  28.645  0.00  0.00    +0.111 A 
ATOM     30  N   LIG    1      -33.905  77.856  28.988  0.00  0.00    -0.252 NA
ENDBRANCH  22  24
ENDBRANCH  14  16
ENDBRANCH   4  12
BRANCH   1  31
ATOM     31  C   LIG    1      -36.234  67.881  24.486  0.00  0.00    +0.236 C 
ATOM     32  N   LIG    1      -35.185  67.320  24.007  0.00  0.00    -0.248 NA
BRANCH  31  33
ATOM     33  O   LIG    1      -37.486  67.386  24.377  0.00  0.00    -0.491 OA
ATOM     34  H   LIG    1      -37.558  66.476  24.685  0.00  0.00    +0.294 HD
ENDBRANCH  31  33
BRANCH  32  35
ATOM     35  C   LIG    1      -35.264  66.033  23.323  0.00  0.00    +0.160 C 
BRANCH  35  36
ATOM     36  C   LIG    1      -35.343  66.261  21.813  0.00  0.00    +0.142 C 
BRANCH  36  37
ATOM     37  C   LIG    1      -34.036  66.556  21.236  0.00  0.00    +0.064 C 
ATOM     38  N   LIG    1      -32.978  66.804  20.790  0.00  0.00    -0.197 NA
ENDBRANCH  36  37
ENDBRANCH  35  36
ENDBRANCH  32  35
ENDBRANCH   1  31
TORSDOF 9
ENDMDL
MODEL 2
REMARK VINA RESULT:      -6.1      4.687      8.730
REMARK  Name = pdb/CHEMBL3930567.pdb
REMARK                            x       y       z     vdW  Elec       q    Type
REMARK                         _______ _______ _______ _____ _____    ______ ____
ROOT
ATOM      1  C   LIG    1      -31.565  74.677  30.214  0.00  0.00    +0.149 A 
ATOM      2  N   LIG    1      -31.647  75.957  29.835  0.00  0.00    -0.160 NA
ATOM      3  N   LIG    1      -32.571  75.998  28.848  0.00  0.00    -0.218 N 
ATOM      4  C   LIG    1      -33.133  74.739  28.608  0.00  0.00    +0.129 A 
ATOM      5  C   LIG    1      -32.454  73.878  29.450  0.00  0.00    +0.078 A 
ENDROOT
BRANCH   3   6
ATOM      6  C   LIG    1      -32.865  77.256  28.257  0.00  0.00    +0.067 A 
ATOM      7  C   LIG    1      -32.216  77.709  27.107  0.00  0.00    +0.028 A 
ATOM      8  C   LIG    1      -32.548  78.956  26.566  0.00  0.00    +0.002 A 
ATOM      9  C   LIG    1      -33.516  79.757  27.176  0.00  0.00    +0.000 A 
ATOM     10  C   LIG    1      -34.148  79.322  28.337  0.00  0.00    +0.002 A 
ATOM     11  C   LIG    1      -33.815  78.083  28.884  0.00  0.00    +0.028 A 
ENDBRANCH   3   6
BRANCH   4  12
ATOM     12  N   LIG    1      -34.244  74.423  27.804  0.00  0.00    -0.266 N 
ATOM     13  H   LIG    1      -34.059  74.002  26.899  0.00  0.00    +0.157 HD
ATOM     14  C   LIG    1      -35.607  74.682  28.200  0.00  0.00    +0.251 C 
ATOM     15  O   LIG    1      -35.856  75.154  29.297  0.00  0.00    -0.270 OA
BRANCH  14  16
ATOM     16  C   LIG    1      -36.713  74.417  27.238  0.00  0.00    +0.056 A 
ATOM     17  C   LIG    1      -37.148  73.151  26.862  0.00  0.00    +0.054 A 
ATOM     18 CL   LIG    1      -36.579  71.699  27.586  0.00  0.00    -0.083 Cl
ATOM     19  C   LIG    1      -38.128  73.019  25.878  0.00  0.00    +0.041 A 
ATOM     20  C   LIG    1      -38.717  74.147  25.286  0.00  0.00    +0.052 A 
ATOM     21 CL   LIG    1      -39.771  73.802  23.952  0.00  0.00    -0.083 Cl
ATOM     22  C   LIG    1      -38.405  75.451  25.728  0.00  0.00    +0.022 A 
ATOM     23  C   LIG    1      -37.376  75.544  26.701  0.00  0.00    +0.026 A 
BRANCH  22  24
ATOM     24  C   LIG    1      -39.116  76.674  25.259  0.00  0.00    +0.107 A 
ATOM     25  C   LIG    1      -38.687  77.476  24.197  0.00  0.00    +0.149 A 
ATOM     26  F   LIG    1      -37.600  77.168  23.474  0.00  0.00    -0.203 F 
ATOM     27  C   LIG    1      -39.397  78.624  23.856  0.00  0.00    +0.042 A 
ATOM     28  C   LIG    1      -40.551  78.944  24.557  0.00  0.00    +0.023 A 
ATOM     29  C   LIG    1      -40.925  78.113  25.595  0.00  0.00    +0.111 A 
ATOM     30  N   LIG    1      -40.221  77.019  25.971  0.00  0.00    -0.252 NA
ENDBRANCH  22  24
ENDBRANCH  14  16
ENDBRANCH   4  12
BRANCH   1  31
ATOM     31  C   LIG    1      -30.714  74.268  31.334  0.00  0.00    +0.236 C 
ATOM     32  N   LIG    1      -29.484  74.629  31.372  0.00  0.00    -0.248 NA
BRANCH  31  33
ATOM     33  O   LIG    1      -31.309  73.473  32.251  0.00  0.00    -0.491 OA
ATOM     34  H   LIG    1      -31.149  72.536  32.094  0.00  0.00    +0.294 HD
ENDBRANCH  31  33
BRANCH  32  35
ATOM     35  C   LIG    1      -28.615  74.231  32.476  0.00  0.00    +0.160 C 
BRANCH  35  36
ATOM     36  C   LIG    1      -27.262  74.931  32.339  0.00  0.00    +0.142 C 
BRANCH  36  37
ATOM     37  C   LIG    1      -27.405  76.310  31.883  0.00  0.00    +0.064 C 
ATOM     38  N   LIG    1      -27.532  77.424  31.534  0.00  0.00    -0.197 NA
ENDBRANCH  36  37
ENDBRANCH  35  36
ENDBRANCH  32  35
ENDBRANCH   1  31
TORSDOF 9
ENDMDL
MODEL 3
REMARK VINA RESULT:      -6.1      4.754      9.896
REMARK  Name = pdb/CHEMBL3930567.pdb
REMARK                            x       y       z     vdW  Elec       q    Type
REMARK                         _______ _______ _______ _____ _____    ______ ____
ROOT
ATOM      1  C   LIG    1      -37.517  77.266  26.621  0.00  0.00    +0.149 A 
ATOM      2  N   LIG    1      -38.786  77.594  26.354  0.00  0.00    -0.160 NA
ATOM      3  N   LIG    1      -39.246  76.649  25.504  0.00  0.00    -0.218 N 
ATOM      4  C   LIG    1      -38.283  75.667  25.245  0.00  0.00    +0.129 A 
ATOM      5  C   LIG    1      -37.154  76.087  25.923  0.00  0.00    +0.078 A 
ENDROOT
BRANCH   3   6
ATOM      6  C   LIG    1      -40.591  76.749  25.054  0.00  0.00    +0.067 A 
ATOM      7  C   LIG    1      -40.930  77.390  23.861  0.00  0.00    +0.028 A 
ATOM      8  C   LIG    1      -42.271  77.457  23.465  0.00  0.00    +0.002 A 
ATOM      9  C   LIG    1      -43.273  76.897  24.261  0.00  0.00    +0.000 A 
ATOM     10  C   LIG    1      -42.942  76.281  25.464  0.00  0.00    +0.002 A 
ATOM     11  C   LIG    1      -41.609  76.218  25.866  0.00  0.00    +0.028 A 
ENDBRANCH   3   6
BRANCH   4  12
ATOM     12  N   LIG    1      -38.451  74.441  24.573  0.00  0.00    -0.266 N 
ATOM     13  H   LIG    1      -38.128  74.390  23.612  0.00  0.00    +0.157 HD
ATOM     14  C   LIG    1      -39.065  73.284  25.177  0.00  0.00    +0.251 C 
ATOM     15  O   LIG    1      -39.429  73.311  26.342  0.00  0.00    -0.270 OA
BRANCH  14  16
ATOM     16  C   LIG    1      -39.302  72.066  24.354  0.00  0.00    +0.056 A 
ATOM     17  C   LIG    1      -40.443  71.833  23.595  0.00  0.00    +0.054 A 
ATOM     18 CL   LIG    1      -41.683  73.001  23.364  0.00  0.00    -0.083 Cl
ATOM     19  C   LIG    1      -40.602  70.612  22.939  0.00  0.00    +0.041 A 
ATOM     20  C   LIG    1      -39.607  69.624  22.996  0.00  0.00    +0.052 A 
ATOM     21 CL   LIG    1      -40.049  68.103  22.289  0.00  0.00    -0.083 Cl
ATOM     22  C   LIG    1      -38.375  69.864  23.642  0.00  0.00    +0.022 A 
ATOM     23  C   LIG    1      -38.268  71.101  24.330  0.00  0.00    +0.026 A 
BRANCH  22  24
ATOM     24  C   LIG    1      -37.219  68.924  23.593  0.00  0.00    +0.107 A 
ATOM     25  C   LIG    1      -36.591  68.509  22.416  0.00  0.00    +0.149 A 
ATOM     26  F   LIG    1      -36.962  68.977  21.216  0.00  0.00    -0.203 F 
ATOM     27  C   LIG    1      -35.542  67.594  22.467  0.00  0.00    +0.042 A 
ATOM     28  C   LIG    1      -35.106  67.127  23.699  0.00  0.00    +0.023 A 
ATOM     29  C   LIG    1      -35.766  67.574  24.827  0.00  0.00    +0.111 A 
ATOM     30  N   LIG    1      -36.818  68.425  24.793  0.00  0.00    -0.252 NA
ENDBRANCH  22  24
ENDBRANCH  14  16
ENDBRANCH   4  12
BRANCH   1  31
ATOM     31  C   LIG    1      -36.721  78.030  27.585  0.00  0.00    +0.236 C 
ATOM     32  N   LIG    1      -35.442  77.932  27.583  0.00  0.00    -0.248 NA
BRANCH  31  33
ATOM     33  O   LIG    1      -37.432  78.772  28.462  0.00  0.00    -0.491 OA
ATOM     34  H   LIG    1      -37.602  79.667  28.147  0.00  0.00    +0.294 HD
ENDBRANCH  31  33
BRANCH  32  35
ATOM     35  C   LIG    1      -34.627  78.680  28.537  0.00  0.00    +0.160 C 
BRANCH  35  36
ATOM     36  C   LIG    1      -33.749  79.680  27.784  0.00  0.00    +0.142 C 
BRANCH  36  37
ATOM     37  C   LIG    1      -32.970  79.038  26.730  0.00  0.00    +0.064 C 
ATOM     38  N   LIG    1      -32.327  78.519  25.896  0.00  0.00    -0.197 NA
ENDBRANCH  36  37
ENDBRANCH  35  36
ENDBRANCH  32  35
ENDBRANCH   1  31
TORSDOF 9
ENDMDL
MODEL 4
REMARK VINA RESULT:      -5.9     16.983     19.342
REMARK  Name = pdb/CHEMBL3930567.pdb
REMARK                            x       y       z     vdW  Elec       q    Type
REMARK                         _______ _______ _______ _____ _____    ______ ____
ROOT
ATOM      1  C   LIG    1      -26.139  77.635  13.975  0.00  0.00    +0.149 A 
ATOM      2  N   LIG    1      -24.993  77.671  14.663  0.00  0.00    -0.160 NA
ATOM      3  N   LIG    1      -24.466  78.898  14.450  0.00  0.00    -0.218 N 
ATOM      4  C   LIG    1      -25.297  79.691  13.651  0.00  0.00    +0.129 A 
ATOM      5  C   LIG    1      -26.350  78.866  13.303  0.00  0.00    +0.078 A 
ENDROOT
BRANCH   3   6
ATOM      6  C   LIG    1      -23.231  79.215  15.077  0.00  0.00    +0.067 A 
ATOM      7  C   LIG    1      -22.051  78.529  14.786  0.00  0.00    +0.028 A 
ATOM      8  C   LIG    1      -20.861  78.885  15.432  0.00  0.00    +0.002 A 
ATOM      9  C   LIG    1      -20.848  79.916  16.374  0.00  0.00    +0.000 A 
ATOM     10  C   LIG    1      -22.027  80.586  16.687  0.00  0.00    +0.002 A 
ATOM     11  C   LIG    1      -23.216  80.230  16.051  0.00  0.00    +0.028 A 
ENDBRANCH   3   6
BRANCH   4  12
ATOM     12  N   LIG    1      -25.183  81.067  13.376  0.00  0.00    -0.266 N 
ATOM     13  H   LIG    1      -25.794  81.695  13.887  0.00  0.00    +0.157 HD
ATOM     14  C   LIG    1      -24.261  81.607  12.406  0.00  0.00    +0.251 C 
ATOM     15  O   LIG    1      -23.492  80.874  11.805  0.00  0.00    -0.270 OA
BRANCH  14  16
ATOM     16  C   LIG    1      -24.287  83.064  12.101  0.00  0.00    +0.056 A 
ATOM     17  C   LIG    1      -25.216  83.682  11.270  0.00  0.00    +0.054 A 
ATOM     18 CL   LIG    1      -26.577  82.873  10.603  0.00  0.00    -0.083 Cl
ATOM     19  C   LIG    1      -25.088  85.040  10.978  0.00  0.00    +0.041 A 
ATOM     20  C   LIG    1      -24.058  85.810  11.542  0.00  0.00    +0.052 A 
ATOM     21 CL   LIG    1      -23.932  87.424  10.922  0.00  0.00    -0.083 Cl
ATOM     22  C   LIG    1      -23.173  85.258  12.494  0.00  0.00    +0.022 A 
ATOM     23  C   LIG    1      -23.310  83.867  12.734  0.00  0.00    +0.026 A 
BRANCH  22  24
ATOM     24  C   LIG    1      -22.171  86.062  13.251  0.00  0.00    +0.107 A 
ATOM     25  C   LIG    1      -20.898  86.385  12.774  0.00  0.00    +0.149 A 
ATOM     26  F   LIG    1      -20.492  86.026  11.547  0.00  0.00    -0.203 F 
ATOM     27  C   LIG    1      -20.013  87.108  13.571  0.00  0.00    +0.042 A 
ATOM     28  C   LIG    1      -20.422  87.532  14.827  0.00  0.00    +0.023 A 
ATOM     29  C   LIG    1      -21.692  87.183  15.243  0.00  0.00    +0.111 A 
ATOM     30  N   LIG    1      -22.547  86.440  14.501  0.00  0.00    -0.252 NA
ENDBRANCH  22  24
ENDBRANCH  14  16
ENDBRANCH   4  12
BRANCH   1  31
ATOM     31  C   LIG    1      -27.030  76.474  14.041  0.00  0.00    +0.236 C 
ATOM     32  N   LIG    1      -26.542  75.289  14.051  0.00  0.00    -0.248 NA
BRANCH  31  33
ATOM     33  O   LIG    1      -28.351  76.760  14.042  0.00  0.00    -0.491 OA
ATOM     34  H   LIG    1      -28.536  77.678  14.271  0.00  0.00    +0.294 HD
ENDBRANCH  31  33
BRANCH  32  35
ATOM     35  C   LIG    1      -27.410  74.116  14.113  0.00  0.00    +0.160 C 
BRANCH  35  36
ATOM     36  C   LIG    1      -26.691  72.987  14.852  0.00  0.00    +0.142 C 
BRANCH  36  37
ATOM     37  C   LIG    1      -27.348  72.653  16.111  0.00  0.00    +0.064 C 
ATOM     38  N   LIG    1      -27.889  72.370  17.114  0.00  0.00    -0.197 NA
ENDBRANCH  36  37
ENDBRANCH  35  36
ENDBRANCH  32  35
ENDBRANCH   1  31
TORSDOF 9
ENDMDL
MODEL 5
REMARK VINA RESULT:      -5.9     17.921     20.358
REMARK  Name = pdb/CHEMBL3930567.pdb
REMARK                            x       y       z     vdW  Elec       q    Type
REMARK                         _______ _______ _______ _____ _____    ______ ____
ROOT
ATOM      1  C   LIG    1      -24.743  78.800  14.267  0.00  0.00    +0.149 A 
ATOM      2  N   LIG    1      -23.689  78.360  14.963  0.00  0.00    -0.160 NA
ATOM      3  N   LIG    1      -22.666  79.190  14.659  0.00  0.00    -0.218 N 
ATOM      4  C   LIG    1      -23.065  80.211  13.788  0.00  0.00    +0.129 A 
ATOM      5  C   LIG    1      -24.387  79.935  13.496  0.00  0.00    +0.078 A 
ENDROOT
BRANCH   3   6
ATOM      6  C   LIG    1      -21.406  78.954  15.272  0.00  0.00    +0.067 A 
ATOM      7  C   LIG    1      -20.833  79.858  16.168  0.00  0.00    +0.028 A 
ATOM      8  C   LIG    1      -19.590  79.573  16.744  0.00  0.00    +0.002 A 
ATOM      9  C   LIG    1      -18.913  78.395  16.420  0.00  0.00    +0.000 A 
ATOM     10  C   LIG    1      -19.467  77.503  15.507  0.00  0.00    +0.002 A 
ATOM     11  C   LIG    1      -20.702  77.786  14.925  0.00  0.00    +0.028 A 
ENDBRANCH   3   6
BRANCH   4  12
ATOM     12  N   LIG    1      -22.342  81.357  13.404  0.00  0.00    -0.266 N 
ATOM     13  H   LIG    1      -21.838  81.315  12.525  0.00  0.00    +0.157 HD
ATOM     14  C   LIG    1      -22.277  82.557  14.202  0.00  0.00    +0.251 C 
ATOM     15  O   LIG    1      -22.904  82.643  15.246  0.00  0.00    -0.270 OA
BRANCH  14  16
ATOM     16  C   LIG    1      -21.398  83.678  13.770  0.00  0.00    +0.056 A 
ATOM     17  C   LIG    1      -20.009  83.662  13.829  0.00  0.00    +0.054 A 
ATOM     18 CL   LIG    1      -19.094  82.271  14.258  0.00  0.00    -0.083 Cl
ATOM     19  C   LIG    1      -19.287  84.807  13.488  0.00  0.00    +0.041 A 
ATOM     20  C   LIG    1      -19.938  85.968  13.043  0.00  0.00    +0.052 A 
ATOM     21 CL   LIG    1      -18.909  87.351  12.849  0.00  0.00    -0.083 Cl
ATOM     22  C   LIG    1      -21.335  85.990  12.840  0.00  0.00    +0.022 A 
ATOM     23  C   LIG    1      -22.036  84.821  13.236  0.00  0.00    +0.026 A 
BRANCH  22  24
ATOM     24  C   LIG    1      -22.060  87.131  12.213  0.00  0.00    +0.107 A 
ATOM     25  C   LIG    1      -22.798  88.082  12.924  0.00  0.00    +0.149 A 
ATOM     26  F   LIG    1      -22.870  88.061  14.263  0.00  0.00    -0.203 F 
ATOM     27  C   LIG    1      -23.476  89.093  12.247  0.00  0.00    +0.042 A 
ATOM     28  C   LIG    1      -23.383  89.165  10.865  0.00  0.00    +0.023 A 
ATOM     29  C   LIG    1      -22.638  88.199  10.217  0.00  0.00    +0.111 A 
ATOM     30  N   LIG    1      -22.013  87.182  10.855  0.00  0.00    -0.252 NA
ENDBRANCH  22  24
ENDBRANCH  14  16
ENDBRANCH   4  12
BRANCH   1  31
ATOM     31  C   LIG    1      -26.064  78.184  14.418  0.00  0.00    +0.236 C 
ATOM     32  N   LIG    1      -26.562  77.490  13.461  0.00  0.00    -0.248 NA
BRANCH  31  33
ATOM     33  O   LIG    1      -26.694  78.447  15.584  0.00  0.00    -0.491 OA
ATOM     34  H   LIG    1      -27.650  78.337  15.527  0.00  0.00    +0.294 HD
ENDBRANCH  31  33
BRANCH  32  35
ATOM     35  C   LIG    1      -27.879  76.870  13.586  0.00  0.00    +0.160 C 
BRANCH  35  36
ATOM     36  C   LIG    1      -27.799  75.409  13.142  0.00  0.00    +0.142 C 
BRANCH  36  37
ATOM     37  C   LIG    1      -26.910  74.627  13.996  0.00  0.00    +0.064 C 
ATOM     38  N   LIG    1      -26.202  73.980  14.674  0.00  0.00    -0.197 NA
ENDBRANCH  36  37
ENDBRANCH  35  36
ENDBRANCH  32  35
ENDBRANCH   1  31
TORSDOF 9
ENDMDL
MODEL 6
REMARK VINA RESULT:      -5.9     17.336     19.670
REMARK  Name = pdb/CHEMBL3930567.pdb
REMARK                            x       y       z     vdW  Elec       q    Type
REMARK                         _______ _______ _______ _____ _____    ______ ____
ROOT
ATOM      1  C   LIG    1      -25.923  77.535  13.563  0.00  0.00    +0.149 A 
ATOM      2  N   LIG    1      -25.003  77.747  14.510  0.00  0.00    -0.160 NA
ATOM      3  N   LIG    1      -24.257  78.790  14.082  0.00  0.00    -0.218 N 
ATOM      4  C   LIG    1      -24.720  79.296  12.862  0.00  0.00    +0.129 A 
ATOM      5  C   LIG    1      -25.761  78.461  12.501  0.00  0.00    +0.078 A 
ENDROOT
BRANCH   3   6
ATOM      6  C   LIG    1      -23.192  79.238  14.910  0.00  0.00    +0.067 A 
ATOM      7  C   LIG    1      -23.371  80.220  15.885  0.00  0.00    +0.028 A 
ATOM      8  C   LIG    1      -22.287  80.622  16.675  0.00  0.00    +0.002 A 
ATOM      9  C   LIG    1      -21.025  80.054  16.487  0.00  0.00    +0.000 A 
ATOM     10  C   LIG    1      -20.836  79.093  15.498  0.00  0.00    +0.002 A 
ATOM     11  C   LIG    1      -21.911  78.695  14.704  0.00  0.00    +0.028 A 
ENDBRANCH   3   6
BRANCH   4  12
ATOM     12  N   LIG    1      -24.327  80.479  12.207  0.00  0.00    -0.266 N 
ATOM     13  H   LIG    1      -23.708  80.384  11.408  0.00  0.00    +0.157 HD
ATOM     14  C   LIG    1      -24.748  81.794  12.626  0.00  0.00    +0.251 C 
ATOM     15  O   LIG    1      -25.519  81.929  13.561  0.00  0.00    -0.270 OA
BRANCH  14  16
ATOM     16  C   LIG    1      -24.193  82.994  11.941  0.00  0.00    +0.056 A 
ATOM     17  C   LIG    1      -24.519  83.388  10.648  0.00  0.00    +0.054 A 
ATOM     18 CL   LIG    1      -25.745  82.635   9.707  0.00  0.00    -0.083 Cl
ATOM     19  C   LIG    1      -23.864  84.477  10.070  0.00  0.00    +0.041 A 
ATOM     20  C   LIG    1      -22.907  85.211  10.787  0.00  0.00    +0.052 A 
ATOM     21 CL   LIG    1      -22.057  86.403   9.857  0.00  0.00    -0.083 Cl
ATOM     22  C   LIG    1      -22.640  84.932  12.145  0.00  0.00    +0.022 A 
ATOM     23  C   LIG    1      -23.295  83.795  12.684  0.00  0.00    +0.026 A 
BRANCH  22  24
ATOM     24  C   LIG    1      -21.764  85.778  13.004  0.00  0.00    +0.107 A 
ATOM     25  C   LIG    1      -20.369  85.807  12.921  0.00  0.00    +0.149 A 
ATOM     26  F   LIG    1      -19.702  85.089  12.005  0.00  0.00    -0.203 F 
ATOM     27  C   LIG    1      -19.631  86.601  13.795  0.00  0.00    +0.042 A 
ATOM     28  C   LIG    1      -20.295  87.388  14.724  0.00  0.00    +0.023 A 
ATOM     29  C   LIG    1      -21.675  87.320  14.757  0.00  0.00    +0.111 A 
ATOM     30  N   LIG    1      -22.405  86.517  13.948  0.00  0.00    -0.252 NA
ENDBRANCH  22  24
ENDBRANCH  14  16
ENDBRANCH   4  12
BRANCH   1  31
ATOM     31  C   LIG    1      -26.969  76.523  13.731  0.00  0.00    +0.236 C 
ATOM     32  N   LIG    1      -27.138  75.619  12.838  0.00  0.00    -0.248 NA
BRANCH  31  33
ATOM     33  O   LIG    1      -27.731  76.660  14.839  0.00  0.00    -0.491 OA
ATOM     34  H   LIG    1      -27.241  76.500  15.654  0.00  0.00    +0.294 HD
ENDBRANCH  31  33
BRANCH  32  35
ATOM     35  C   LIG    1      -28.176  74.602  12.981  0.00  0.00    +0.160 C 
BRANCH  35  36
ATOM     36  C   LIG    1      -29.071  74.607  11.741  0.00  0.00    +0.142 C 
BRANCH  36  37
ATOM     37  C   LIG    1      -30.399  74.072  12.024  0.00  0.00    +0.064 C 
ATOM     38  N   LIG    1      -31.466  73.631  12.232  0.00  0.00    -0.197 NA
ENDBRANCH  36  37
ENDBRANCH  35  36
ENDBRANCH  32  35
ENDBRANCH   1  31
TORSDOF 9
ENDMDL
MODEL 7
REMARK VINA RESULT:      -5.9     16.748     19.761
REMARK  Name = pdb/CHEMBL3930567.pdb
REMARK                            x       y       z     vdW  Elec       q    Type
REMARK                         _______ _______ _______ _____ _____    ______ ____
ROOT
ATOM      1  C   LIG    1      -22.966  81.401  15.190  0.00  0.00    +0.149 A 
ATOM      2  N   LIG    1      -22.219  80.317  15.427  0.00  0.00    -0.160 NA
ATOM      3  N   LIG    1      -22.927  79.264  14.961  0.00  0.00    -0.218 N 
ATOM      4  C   LIG    1      -24.132  79.666  14.372  0.00  0.00    +0.129 A 
ATOM      5  C   LIG    1      -24.183  81.034  14.562  0.00  0.00    +0.078 A 
ENDROOT
BRANCH   3   6
ATOM      6  C   LIG    1      -22.358  77.968  15.080  0.00  0.00    +0.067 A 
ATOM      7  C   LIG    1      -23.133  76.835  15.333  0.00  0.00    +0.028 A 
ATOM      8  C   LIG    1      -22.520  75.581  15.438  0.00  0.00    +0.002 A 
ATOM      9  C   LIG    1      -21.135  75.457  15.303  0.00  0.00    +0.000 A 
ATOM     10  C   LIG    1      -20.355  76.587  15.077  0.00  0.00    +0.002 A 
ATOM     11  C   LIG    1      -20.961  77.839  14.978  0.00  0.00    +0.028 A 
ENDBRANCH   3   6
BRANCH   4  12
ATOM     12  N   LIG    1      -25.032  78.889  13.618  0.00  0.00    -0.266 N 
ATOM     13  H   LIG    1      -24.873  78.834  12.618  0.00  0.00    +0.157 HD
ATOM     14  C   LIG    1      -26.156  78.194  14.197  0.00  0.00    +0.251 C 
ATOM     15  O   LIG    1      -26.347  78.217  15.402  0.00  0.00    -0.270 OA
BRANCH  14  16
ATOM     16  C   LIG    1      -27.119  77.488  13.306  0.00  0.00    +0.056 A 
ATOM     17  C   LIG    1      -27.176  76.109  13.139  0.00  0.00    +0.054 A 
ATOM     18 CL   LIG    1      -26.248  75.001  14.070  0.00  0.00    -0.083 Cl
ATOM     19  C   LIG    1      -28.054  75.560  12.204  0.00  0.00    +0.041 A 
ATOM     20  C   LIG    1      -28.916  76.375  11.454  0.00  0.00    +0.052 A 
ATOM     21 CL   LIG    1      -29.796  75.551  10.207  0.00  0.00    -0.083 Cl
ATOM     22  C   LIG    1      -28.989  77.767  11.683  0.00  0.00    +0.022 A 
ATOM     23  C   LIG    1      -28.053  78.290  12.612  0.00  0.00    +0.026 A 
BRANCH  22  24
ATOM     24  C   LIG    1      -29.998  78.657  11.042  0.00  0.00    +0.107 A 
ATOM     25  C   LIG    1      -29.950  79.069   9.707  0.00  0.00    +0.149 A 
ATOM     26  F   LIG    1      -28.991  78.643   8.871  0.00  0.00    -0.203 F 
ATOM     27  C   LIG    1      -30.918  79.936   9.206  0.00  0.00    +0.042 A 
ATOM     28  C   LIG    1      -31.947  80.357  10.035  0.00  0.00    +0.023 A 
ATOM     29  C   LIG    1      -31.942  79.916  11.344  0.00  0.00    +0.111 A 
ATOM     30  N   LIG    1      -30.983  79.112  11.860  0.00  0.00    -0.252 NA
ENDBRANCH  22  24
ENDBRANCH  14  16
ENDBRANCH   4  12
BRANCH   1  31
ATOM     31  C   LIG    1      -22.471  82.747  15.491  0.00  0.00    +0.236 C 
ATOM     32  N   LIG    1      -22.739  83.722  14.702  0.00  0.00    -0.248 NA
BRANCH  31  33
ATOM     33  O   LIG    1      -21.702  82.845  16.598  0.00  0.00    -0.491 OA
ATOM     34  H   LIG    1      -20.837  83.232  16.422  0.00  0.00    +0.294 HD
ENDBRANCH  31  33
BRANCH  32  35
ATOM     35  C   LIG    1      -22.254  85.071  14.979  0.00  0.00    +0.160 C 
BRANCH  35  36
ATOM     36  C   LIG    1      -21.345  85.531  13.838  0.00  0.00    +0.142 C 
BRANCH  36  37
ATOM     37  C   LIG    1      -20.430  86.586  14.260  0.00  0.00    +0.064 C 
ATOM     38  N   LIG    1      -19.697  87.445  14.581  0.00  0.00    -0.197 NA
ENDBRANCH  36  37
ENDBRANCH  35  36
ENDBRANCH  32  35
ENDBRANCH   1  31
TORSDOF 9
ENDMDL
MODEL 8
REMARK VINA RESULT:      -5.8      2.343      3.755
REMARK  Name = pdb/CHEMBL3930567.pdb
REMARK                            x       y       z     vdW  Elec       q    Type
REMARK                         _______ _______ _______ _____ _____    ______ ____
ROOT
ATOM      1  C   LIG    1      -37.480  69.891  25.308  0.00  0.00    +0.149 A 
ATOM      2  N   LIG    1      -37.045  69.011  26.216  0.00  0.00    -0.160 NA
ATOM      3  N   LIG    1      -35.937  69.556  26.767  0.00  0.00    -0.218 N 
ATOM      4  C   LIG    1      -35.668  70.827  26.245  0.00  0.00    +0.129 A 
ATOM      5  C   LIG    1      -36.629  71.025  25.272  0.00  0.00    +0.078 A 
ENDROOT
BRANCH   3   6
ATOM      6  C   LIG    1      -35.263  68.825  27.782  0.00  0.00    +0.067 A 
ATOM      7  C   LIG    1      -35.719  68.790  29.101  0.00  0.00    +0.028 A 
ATOM      8  C   LIG    1      -35.017  68.051  30.060  0.00  0.00    +0.002 A 
ATOM      9  C   LIG    1      -33.857  67.357  29.709  0.00  0.00    +0.000 A 
ATOM     10  C   LIG    1      -33.384  67.410  28.401  0.00  0.00    +0.002 A 
ATOM     11  C   LIG    1      -34.076  68.151  27.444  0.00  0.00    +0.028 A 
ENDBRANCH   3   6
BRANCH   4  12
ATOM     12  N   LIG    1      -34.727  71.771  26.700  0.00  0.00    -0.266 N 
ATOM     13  H   LIG    1      -33.908  71.926  26.121  0.00  0.00    +0.157 HD
ATOM     14  C   LIG    1      -34.870  72.499  27.937  0.00  0.00    +0.251 C 
ATOM     15  O   LIG    1      -35.864  72.354  28.631  0.00  0.00    -0.270 OA
BRANCH  14  16
ATOM     16  C   LIG    1      -33.771  73.395  28.391  0.00  0.00    +0.056 A 
ATOM     17  C   LIG    1      -32.633  72.971  29.069  0.00  0.00    +0.054 A 
ATOM     18 CL   LIG    1      -32.250  71.316  29.334  0.00  0.00    -0.083 Cl
ATOM     19  C   LIG    1      -31.713  73.910  29.533  0.00  0.00    +0.041 A 
ATOM     20  C   LIG    1      -31.892  75.282  29.293  0.00  0.00    +0.052 A 
ATOM     21 CL   LIG    1      -30.762  76.317  30.104  0.00  0.00    -0.083 Cl
ATOM     22  C   LIG    1      -32.960  75.750  28.497  0.00  0.00    +0.022 A 
ATOM     23  C   LIG    1      -33.895  74.768  28.077  0.00  0.00    +0.026 A 
BRANCH  22  24
ATOM     24  C   LIG    1      -33.109  77.169  28.067  0.00  0.00    +0.107 A 
ATOM     25  C   LIG    1      -32.434  77.739  26.984  0.00  0.00    +0.149 A 
ATOM     26  F   LIG    1      -31.617  77.017  26.203  0.00  0.00    -0.203 F 
ATOM     27  C   LIG    1      -32.607  79.087  26.682  0.00  0.00    +0.042 A 
ATOM     28  C   LIG    1      -33.481  79.848  27.445  0.00  0.00    +0.023 A 
ATOM     29  C   LIG    1      -34.120  79.229  28.501  0.00  0.00    +0.111 A 
ATOM     30  N   LIG    1      -33.928  77.933  28.838  0.00  0.00    -0.252 NA
ENDBRANCH  22  24
ENDBRANCH  14  16
ENDBRANCH   4  12
BRANCH   1  31
ATOM     31  C   LIG    1      -38.724  69.667  24.566  0.00  0.00    +0.236 C 
ATOM     32  N   LIG    1      -38.825  70.055  23.349  0.00  0.00    -0.248 NA
BRANCH  31  33
ATOM     33  O   LIG    1      -39.719  69.085  25.272  0.00  0.00    -0.491 OA
ATOM     34  H   LIG    1      -40.333  69.724  25.651  0.00  0.00    +0.294 HD
ENDBRANCH  31  33
BRANCH  32  35
ATOM     35  C   LIG    1      -40.056  69.847  22.590  0.00  0.00    +0.160 C 
BRANCH  35  36
ATOM     36  C   LIG    1      -39.845  68.727  21.571  0.00  0.00    +0.142 C 
BRANCH  36  37
ATOM     37  C   LIG    1      -38.536  68.811  20.930  0.00  0.00    +0.064 C 
ATOM     38  N   LIG    1      -37.489  68.863  20.402  0.00  0.00    -0.197 NA
ENDBRANCH  36  37
ENDBRANCH  35  36
ENDBRANCH  32  35
ENDBRANCH   1  31
TORSDOF 9
ENDMDL
MODEL 9
REMARK VINA RESULT:      -5.8      2.129      2.434
REMARK  Name = pdb/CHEMBL3930567.pdb
REMARK                            x       y       z     vdW  Elec       q    Type
REMARK                         _______ _______ _______ _____ _____    ______ ____
ROOT
ATOM      1  C   LIG    1      -38.202  69.915  24.478  0.00  0.00    +0.149 A 
ATOM      2  N   LIG    1      -38.863  71.040  24.185  0.00  0.00    -0.160 NA
ATOM      3  N   LIG    1      -38.192  72.041  24.797  0.00  0.00    -0.218 N 
ATOM      4  C   LIG    1      -37.052  71.573  25.462  0.00  0.00    +0.129 A 
ATOM      5  C   LIG    1      -37.082  70.201  25.300  0.00  0.00    +0.078 A 
ENDROOT
BRANCH   3   6
ATOM      6  C   LIG    1      -38.681  73.367  24.647  0.00  0.00    +0.067 A 
ATOM      7  C   LIG    1      -37.911  74.485  24.972  0.00  0.00    +0.028 A 
ATOM      8  C   LIG    1      -38.443  75.769  24.802  0.00  0.00    +0.002 A 
ATOM      9  C   LIG    1      -39.743  75.938  24.320  0.00  0.00    +0.000 A 
ATOM     10  C   LIG    1      -40.523  74.826  24.019  0.00  0.00    +0.002 A 
ATOM     11  C   LIG    1      -40.000  73.545  24.194  0.00  0.00    +0.028 A 
ENDBRANCH   3   6
BRANCH   4  12
ATOM     12  N   LIG    1      -36.015  72.327  26.043  0.00  0.00    -0.266 N 
ATOM     13  H   LIG    1      -35.267  72.637  25.431  0.00  0.00    +0.157 HD
ATOM     14  C   LIG    1      -35.965  72.658  27.447  0.00  0.00    +0.251 C 
ATOM     15  O   LIG    1      -36.871  72.326  28.194  0.00  0.00    -0.270 OA
BRANCH  14  16
ATOM     16  C   LIG    1      -34.773  73.364  27.992  0.00  0.00    +0.056 A 
ATOM     17  C   LIG    1      -33.715  72.742  28.645  0.00  0.00    +0.054 A 
ATOM     18 CL   LIG    1      -33.551  71.035  28.772  0.00  0.00    -0.083 Cl
ATOM     19  C   LIG    1      -32.695  73.513  29.201  0.00  0.00    +0.041 A 
ATOM     20  C   LIG    1      -32.693  74.911  29.078  0.00  0.00    +0.052 A 
ATOM     21 CL   LIG    1      -31.461  75.722  29.991  0.00  0.00    -0.083 Cl
ATOM     22  C   LIG    1      -33.674  75.578  28.311  0.00  0.00    +0.022 A 
ATOM     23  C   LIG    1      -34.715  74.763  27.796  0.00  0.00    +0.026 A 
BRANCH  22  24
ATOM     24  C   LIG    1      -33.631  77.036  28.004  0.00  0.00    +0.107 A 
ATOM     25  C   LIG    1      -32.743  77.624  27.098  0.00  0.00    +0.149 A 
ATOM     26  F   LIG    1      -31.874  76.892  26.387  0.00  0.00    -0.203 F 
ATOM     27  C   LIG    1      -32.751  79.003  26.906  0.00  0.00    +0.042 A 
ATOM     28  C   LIG    1      -33.670  79.781  27.595  0.00  0.00    +0.023 A 
ATOM     29  C   LIG    1      -34.523  79.142  28.475  0.00  0.00    +0.111 A 
ATOM     30  N   LIG    1      -34.497  77.810  28.710  0.00  0.00    -0.252 NA
ENDBRANCH  22  24
ENDBRANCH  14  16
ENDBRANCH   4  12
BRANCH   1  31
ATOM     31  C   LIG    1      -38.601  68.627  23.906  0.00  0.00    +0.236 C 
ATOM     32  N   LIG    1      -39.476  68.583  22.969  0.00  0.00    -0.248 NA
BRANCH  31  33
ATOM     33  O   LIG    1      -38.023  67.542  24.468  0.00  0.00    -0.491 OA
ATOM     34  H   LIG    1      -38.611  67.075  25.073  0.00  0.00    +0.294 HD
ENDBRANCH  31  33
BRANCH  32  35
ATOM     35  C   LIG    1      -39.893  67.310  22.386  0.00  0.00    +0.160 C 
BRANCH  35  36
ATOM     36  C   LIG    1      -39.769  67.381  20.863  0.00  0.00    +0.142 C 
BRANCH  36  37
ATOM     37  C   LIG    1      -38.517  68.002  20.446  0.00  0.00    +0.064 C 
ATOM     38  N   LIG    1      -37.507  68.487  20.095  0.00  0.00    -0.197 NA
ENDBRANCH  36  37
ENDBRANCH  35  36
ENDBRANCH  32  35
ENDBRANCH   1  31
TORSDOF 9
ENDMDL
