MODEL 1
REMARK VINA RESULT:      -6.9      0.000      0.000
REMARK  Name = pdb/CHEMBL3909333.pdb
REMARK                            x       y       z     vdW  Elec       q    Type
REMARK                         _______ _______ _______ _____ _____    ______ ____
ROOT
ATOM      1  C   LIG    1      -22.942  81.488  15.462  0.00  0.00    +0.149 A 
ATOM      2  N   LIG    1      -22.123  80.429  15.533  0.00  0.00    -0.160 NA
ATOM      3  N   LIG    1      -22.802  79.400  14.976  0.00  0.00    -0.218 N 
ATOM      4  C   LIG    1      -24.014  79.822  14.416  0.00  0.00    +0.129 A 
ATOM      5  C   LIG    1      -24.102  81.161  14.722  0.00  0.00    +0.078 A 
ENDROOT
BRANCH   3   6
ATOM      6  C   LIG    1      -22.232  78.099  15.030  0.00  0.00    +0.067 A 
ATOM      7  C   LIG    1      -20.887  77.873  14.731  0.00  0.00    +0.028 A 
ATOM      8  C   LIG    1      -20.354  76.582  14.821  0.00  0.00    +0.002 A 
ATOM      9  C   LIG    1      -21.167  75.512  15.191  0.00  0.00    +0.000 A 
ATOM     10  C   LIG    1      -22.521  75.722  15.441  0.00  0.00    +0.002 A 
ATOM     11  C   LIG    1      -23.057  77.007  15.347  0.00  0.00    +0.028 A 
ENDBRANCH   3   6
BRANCH   4  12
ATOM     12  N   LIG    1      -24.914  79.083  13.624  0.00  0.00    -0.266 N 
ATOM     13  H   LIG    1      -24.737  79.036  12.632  0.00  0.00    +0.157 HD
ATOM     14  C   LIG    1      -26.048  78.377  14.186  0.00  0.00    +0.251 C 
ATOM     15  O   LIG    1      -26.259  78.386  15.379  0.00  0.00    -0.270 OA
BRANCH  14  16
ATOM     16  C   LIG    1      -26.961  77.629  13.289  0.00  0.00    +0.056 A 
ATOM     17  C   LIG    1      -26.967  76.246  13.146  0.00  0.00    +0.054 A 
ATOM     18 CL   LIG    1      -25.928  75.188  14.015  0.00  0.00    -0.083 Cl
ATOM     19  C   LIG    1      -27.884  75.636  12.289  0.00  0.00    +0.041 A 
ATOM     20  C   LIG    1      -28.817  76.392  11.565  0.00  0.00    +0.052 A 
ATOM     21 CL   LIG    1      -29.770  75.473  10.449  0.00  0.00    -0.083 Cl
ATOM     22  C   LIG    1      -28.901  77.789  11.720  0.00  0.00    +0.019 A 
ATOM     23  C   LIG    1      -27.931  78.378  12.580  0.00  0.00    +0.026 A 
BRANCH  22  24
ATOM     24  C   LIG    1      -29.911  78.672  11.073  0.00  0.00    +0.072 A 
ATOM     25  N   LIG    1      -30.930  79.070  11.882  0.00  0.00    -0.255 NA
ATOM     26  C   LIG    1      -31.910  79.841  11.350  0.00  0.00    +0.111 A 
ATOM     27  C   LIG    1      -31.933  80.265  10.036  0.00  0.00    +0.020 A 
ATOM     28  C   LIG    1      -30.901  79.855   9.209  0.00  0.00    +0.004 A 
ATOM     29  C   LIG    1      -29.898  79.033   9.724  0.00  0.00    +0.028 A 
ENDBRANCH  22  24
ENDBRANCH  14  16
ENDBRANCH   4  12
BRANCH   1  30
ATOM     30  C   LIG    1      -22.617  82.779  16.075  0.00  0.00    +0.236 C 
ATOM     31  N   LIG    1      -22.793  83.866  15.423  0.00  0.00    -0.243 NA
BRANCH  30  32
ATOM     32  O   LIG    1      -22.122  82.685  17.328  0.00  0.00    -0.491 OA
ATOM     33  H   LIG    1      -22.292  81.817  17.725  0.00  0.00    +0.294 HD
ENDBRANCH  30  32
BRANCH  31  34
ATOM     34  C   LIG    1      -22.447  85.171  15.968  0.00  0.00    +0.200 C 
BRANCH  34  35
ATOM     35  C   LIG    1      -22.531  86.280  14.943  0.00  0.00    +0.063 A 
ATOM     36  N   LIG    1      -22.290  87.542  15.381  0.00  0.00    -0.258 NA
ATOM     37  C   LIG    1      -22.382  88.538  14.469  0.00  0.00    +0.111 A 
ATOM     38  C   LIG    1      -22.675  88.340  13.129  0.00  0.00    +0.020 A 
ATOM     39  C   LIG    1      -22.901  87.040  12.693  0.00  0.00    +0.003 A 
ATOM     40  C   LIG    1      -22.834  85.993  13.610  0.00  0.00    +0.025 A 
ENDBRANCH  34  35
ENDBRANCH  31  34
ENDBRANCH   1  30
TORSDOF 8
ENDMDL
MODEL 2
REMARK VINA RESULT:      -6.8      3.838      9.929
REMARK  Name = pdb/CHEMBL3909333.pdb
REMARK                            x       y       z     vdW  Elec       q    Type
REMARK                         _______ _______ _______ _____ _____    ______ ____
ROOT
ATOM      1  C   LIG    1      -26.320  77.775  14.124  0.00  0.00    +0.149 A 
ATOM      2  N   LIG    1      -25.216  77.854  14.879  0.00  0.00    -0.160 NA
ATOM      3  N   LIG    1      -24.678  79.067  14.621  0.00  0.00    -0.218 N 
ATOM      4  C   LIG    1      -25.509  79.838  13.798  0.00  0.00    +0.129 A 
ATOM      5  C   LIG    1      -26.565  79.013  13.484  0.00  0.00    +0.078 A 
ENDROOT
BRANCH   3   6
ATOM      6  C   LIG    1      -23.411  79.385  15.182  0.00  0.00    +0.067 A 
ATOM      7  C   LIG    1      -23.255  80.424  16.102  0.00  0.00    +0.028 A 
ATOM      8  C   LIG    1      -21.996  80.690  16.654  0.00  0.00    +0.002 A 
ATOM      9  C   LIG    1      -20.889  79.934  16.275  0.00  0.00    +0.000 A 
ATOM     10  C   LIG    1      -21.029  78.930  15.320  0.00  0.00    +0.002 A 
ATOM     11  C   LIG    1      -22.281  78.665  14.763  0.00  0.00    +0.028 A 
ENDBRANCH   3   6
BRANCH   4  12
ATOM     12  N   LIG    1      -25.368  81.192  13.438  0.00  0.00    -0.266 N 
ATOM     13  H   LIG    1      -25.887  81.875  13.968  0.00  0.00    +0.157 HD
ATOM     14  C   LIG    1      -24.494  81.627  12.366  0.00  0.00    +0.251 C 
ATOM     15  O   LIG    1      -23.830  80.830  11.741  0.00  0.00    -0.270 OA
BRANCH  14  16
ATOM     16  C   LIG    1      -24.406  83.070  12.035  0.00  0.00    +0.056 A 
ATOM     17  C   LIG    1      -25.294  83.743  11.203  0.00  0.00    +0.054 A 
ATOM     18 CL   LIG    1      -26.649  83.003  10.449  0.00  0.00    -0.083 Cl
ATOM     19  C   LIG    1      -25.135  85.109  10.972  0.00  0.00    +0.041 A 
ATOM     20  C   LIG    1      -24.095  85.833  11.574  0.00  0.00    +0.052 A 
ATOM     21 CL   LIG    1      -23.977  87.481  11.054  0.00  0.00    -0.083 Cl
ATOM     22  C   LIG    1      -23.208  85.219  12.477  0.00  0.00    +0.019 A 
ATOM     23  C   LIG    1      -23.382  83.818  12.664  0.00  0.00    +0.026 A 
BRANCH  22  24
ATOM     24  C   LIG    1      -22.131  85.912  13.239  0.00  0.00    +0.072 A 
ATOM     25  N   LIG    1      -22.567  86.716  14.246  0.00  0.00    -0.255 NA
ATOM     26  C   LIG    1      -21.645  87.413  14.956  0.00  0.00    +0.111 A 
ATOM     27  C   LIG    1      -20.284  87.346  14.732  0.00  0.00    +0.020 A 
ATOM     28  C   LIG    1      -19.840  86.533  13.703  0.00  0.00    +0.004 A 
ATOM     29  C   LIG    1      -20.771  85.832  12.936  0.00  0.00    +0.028 A 
ENDBRANCH  22  24
ENDBRANCH  14  16
ENDBRANCH   4  12
BRANCH   1  30
ATOM     30  C   LIG    1      -27.126  76.554  14.028  0.00  0.00    +0.236 C 
ATOM     31  N   LIG    1      -26.568  75.405  14.105  0.00  0.00    -0.243 NA
BRANCH  30  32
ATOM     32  O   LIG    1      -28.444  76.778  13.842  0.00  0.00    -0.491 OA
ATOM     33  H   LIG    1      -28.995  76.186  14.377  0.00  0.00    +0.294 HD
ENDBRANCH  30  32
BRANCH  31  34
ATOM     34  C   LIG    1      -27.314  74.162  13.973  0.00  0.00    +0.200 C 
BRANCH  34  35
ATOM     35  C   LIG    1      -26.852  73.091  14.936  0.00  0.00    +0.063 A 
ATOM     36  N   LIG    1      -25.616  73.242  15.478  0.00  0.00    -0.258 NA
ATOM     37  C   LIG    1      -25.195  72.276  16.327  0.00  0.00    +0.111 A 
ATOM     38  C   LIG    1      -25.954  71.174  16.688  0.00  0.00    +0.020 A 
ATOM     39  C   LIG    1      -27.223  71.044  16.140  0.00  0.00    +0.003 A 
ATOM     40  C   LIG    1      -27.680  72.011  15.247  0.00  0.00    +0.025 A 
ENDBRANCH  34  35
ENDBRANCH  31  34
ENDBRANCH   1  30
TORSDOF 8
ENDMDL
MODEL 3
REMARK VINA RESULT:      -6.7     16.643     18.339
REMARK  Name = pdb/CHEMBL3909333.pdb
REMARK                            x       y       z     vdW  Elec       q    Type
REMARK                         _______ _______ _______ _____ _____    ______ ____
ROOT
ATOM      1  C   LIG    1      -31.731  74.477  29.976  0.00  0.00    +0.149 A 
ATOM      2  N   LIG    1      -31.893  75.800  29.834  0.00  0.00    -0.160 NA
ATOM      3  N   LIG    1      -32.803  75.958  28.847  0.00  0.00    -0.218 N 
ATOM      4  C   LIG    1      -33.340  74.731  28.437  0.00  0.00    +0.129 A 
ATOM      5  C   LIG    1      -32.659  73.781  29.165  0.00  0.00    +0.078 A 
ENDROOT
BRANCH   3   6
ATOM      6  C   LIG    1      -33.079  77.271  28.377  0.00  0.00    +0.067 A 
ATOM      7  C   LIG    1      -34.093  78.052  28.935  0.00  0.00    +0.028 A 
ATOM      8  C   LIG    1      -34.319  79.350  28.464  0.00  0.00    +0.002 A 
ATOM      9  C   LIG    1      -33.546  79.864  27.424  0.00  0.00    +0.000 A 
ATOM     10  C   LIG    1      -32.567  79.072  26.830  0.00  0.00    +0.002 A 
ATOM     11  C   LIG    1      -32.343  77.774  27.292  0.00  0.00    +0.028 A 
ENDBRANCH   3   6
BRANCH   4  12
ATOM     12  N   LIG    1      -34.411  74.498  27.552  0.00  0.00    -0.266 N 
ATOM     13  H   LIG    1      -34.188  74.191  26.617  0.00  0.00    +0.157 HD
ATOM     14  C   LIG    1      -35.796  74.658  27.946  0.00  0.00    +0.251 C 
ATOM     15  O   LIG    1      -36.090  74.988  29.074  0.00  0.00    -0.270 OA
BRANCH  14  16
ATOM     16  C   LIG    1      -36.871  74.407  26.955  0.00  0.00    +0.056 A 
ATOM     17  C   LIG    1      -37.327  73.146  26.590  0.00  0.00    +0.054 A 
ATOM     18 CL   LIG    1      -36.727  71.680  27.255  0.00  0.00    -0.083 Cl
ATOM     19  C   LIG    1      -38.361  73.019  25.662  0.00  0.00    +0.041 A 
ATOM     20  C   LIG    1      -38.966  74.146  25.088  0.00  0.00    +0.052 A 
ATOM     21 CL   LIG    1      -40.127  73.784  23.855  0.00  0.00    -0.083 Cl
ATOM     22  C   LIG    1      -38.591  75.448  25.470  0.00  0.00    +0.019 A 
ATOM     23  C   LIG    1      -37.513  75.538  26.396  0.00  0.00    +0.026 A 
BRANCH  22  24
ATOM     24  C   LIG    1      -39.230  76.707  24.993  0.00  0.00    +0.072 A 
ATOM     25  N   LIG    1      -40.383  77.044  25.632  0.00  0.00    -0.255 NA
ATOM     26  C   LIG    1      -41.043  78.155  25.222  0.00  0.00    +0.111 A 
ATOM     27  C   LIG    1      -40.610  78.981  24.203  0.00  0.00    +0.020 A 
ATOM     28  C   LIG    1      -39.440  78.636  23.548  0.00  0.00    +0.004 A 
ATOM     29  C   LIG    1      -38.760  77.478  23.928  0.00  0.00    +0.028 A 
ENDBRANCH  22  24
ENDBRANCH  14  16
ENDBRANCH   4  12
BRANCH   1  30
ATOM     30  C   LIG    1      -30.728  73.895  30.872  0.00  0.00    +0.236 C 
ATOM     31  N   LIG    1      -29.812  74.631  31.381  0.00  0.00    -0.243 NA
BRANCH  30  32
ATOM     32  O   LIG    1      -30.868  72.567  31.067  0.00  0.00    -0.491 OA
ATOM     33  H   LIG    1      -30.501  72.047  30.336  0.00  0.00    +0.294 HD
ENDBRANCH  30  32
BRANCH  31  34
ATOM     34  C   LIG    1      -28.767  74.097  32.241  0.00  0.00    +0.200 C 
BRANCH  34  35
ATOM     35  C   LIG    1      -27.402  74.674  31.940  0.00  0.00    +0.063 A 
ATOM     36  N   LIG    1      -27.320  76.022  31.803  0.00  0.00    -0.258 NA
ATOM     37  C   LIG    1      -26.102  76.538  31.517  0.00  0.00    +0.111 A 
ATOM     38  C   LIG    1      -24.949  75.782  31.386  0.00  0.00    +0.020 A 
ATOM     39  C   LIG    1      -25.046  74.405  31.548  0.00  0.00    +0.003 A 
ATOM     40  C   LIG    1      -26.289  73.839  31.824  0.00  0.00    +0.025 A 
ENDBRANCH  34  35
ENDBRANCH  31  34
ENDBRANCH   1  30
TORSDOF 8
ENDMDL
MODEL 4
REMARK VINA RESULT:      -6.7     16.945     20.337
REMARK  Name = pdb/CHEMBL3909333.pdb
REMARK                            x       y       z     vdW  Elec       q    Type
REMARK                         _______ _______ _______ _____ _____    ______ ____
ROOT
ATOM      1  C   LIG    1      -37.501  70.226  24.651  0.00  0.00    +0.149 A 
ATOM      2  N   LIG    1      -37.130  69.174  25.394  0.00  0.00    -0.160 NA
ATOM      3  N   LIG    1      -36.015  69.562  26.054  0.00  0.00    -0.218 N 
ATOM      4  C   LIG    1      -35.737  70.919  25.846  0.00  0.00    +0.129 A 
ATOM      5  C   LIG    1      -36.693  71.347  24.952  0.00  0.00    +0.078 A 
ENDROOT
BRANCH   3   6
ATOM      6  C   LIG    1      -35.309  68.600  26.826  0.00  0.00    +0.067 A 
ATOM      7  C   LIG    1      -35.257  68.670  28.219  0.00  0.00    +0.028 A 
ATOM      8  C   LIG    1      -34.574  67.689  28.947  0.00  0.00    +0.002 A 
ATOM      9  C   LIG    1      -33.926  66.648  28.286  0.00  0.00    +0.000 A 
ATOM     10  C   LIG    1      -33.932  66.600  26.894  0.00  0.00    +0.002 A 
ATOM     11  C   LIG    1      -34.606  67.579  26.164  0.00  0.00    +0.028 A 
ENDBRANCH   3   6
BRANCH   4  12
ATOM     12  N   LIG    1      -34.763  71.717  26.476  0.00  0.00    -0.266 N 
ATOM     13  H   LIG    1      -33.867  71.811  26.022  0.00  0.00    +0.157 HD
ATOM     14  C   LIG    1      -35.015  72.417  27.720  0.00  0.00    +0.251 C 
ATOM     15  O   LIG    1      -36.095  72.351  28.265  0.00  0.00    -0.270 OA
BRANCH  14  16
ATOM     16  C   LIG    1      -33.936  73.230  28.333  0.00  0.00    +0.056 A 
ATOM     17  C   LIG    1      -32.919  72.717  29.131  0.00  0.00    +0.054 A 
ATOM     18 CL   LIG    1      -32.745  71.050  29.508  0.00  0.00    -0.083 Cl
ATOM     19  C   LIG    1      -31.937  73.566  29.642  0.00  0.00    +0.041 A 
ATOM     20  C   LIG    1      -31.945  74.940  29.360  0.00  0.00    +0.052 A 
ATOM     21 CL   LIG    1      -30.733  75.848  30.199  0.00  0.00    -0.083 Cl
ATOM     22  C   LIG    1      -32.910  75.503  28.504  0.00  0.00    +0.019 A 
ATOM     23  C   LIG    1      -33.913  74.611  28.026  0.00  0.00    +0.026 A 
BRANCH  22  24
ATOM     24  C   LIG    1      -32.954  76.926  28.067  0.00  0.00    +0.072 A 
ATOM     25  N   LIG    1      -33.735  77.738  28.830  0.00  0.00    -0.255 NA
ATOM     26  C   LIG    1      -33.857  79.039  28.466  0.00  0.00    +0.111 A 
ATOM     27  C   LIG    1      -33.223  79.600  27.375  0.00  0.00    +0.020 A 
ATOM     28  C   LIG    1      -32.433  78.774  26.595  0.00  0.00    +0.004 A 
ATOM     29  C   LIG    1      -32.318  77.424  26.928  0.00  0.00    +0.028 A 
ENDBRANCH  22  24
ENDBRANCH  14  16
ENDBRANCH   4  12
BRANCH   1  30
ATOM     30  C   LIG    1      -38.607  70.163  23.691  0.00  0.00    +0.236 C 
ATOM     31  N   LIG    1      -39.710  70.765  23.935  0.00  0.00    -0.243 NA
BRANCH  30  32
ATOM     32  O   LIG    1      -38.341  69.423  22.593  0.00  0.00    -0.491 OA
ATOM     33  H   LIG    1      -37.787  68.654  22.795  0.00  0.00    +0.294 HD
ENDBRANCH  30  32
BRANCH  31  34
ATOM     34  C   LIG    1      -40.853  70.701  23.037  0.00  0.00    +0.200 C 
BRANCH  34  35
ATOM     35  C   LIG    1      -41.583  72.019  22.914  0.00  0.00    +0.063 A 
ATOM     36  N   LIG    1      -41.029  73.090  23.540  0.00  0.00    -0.258 NA
ATOM     37  C   LIG    1      -41.691  74.267  23.445  0.00  0.00    +0.111 A 
ATOM     38  C   LIG    1      -42.867  74.442  22.734  0.00  0.00    +0.020 A 
ATOM     39  C   LIG    1      -43.411  73.341  22.084  0.00  0.00    +0.003 A 
ATOM     40  C   LIG    1      -42.765  72.110  22.178  0.00  0.00    +0.025 A 
ENDBRANCH  34  35
ENDBRANCH  31  34
ENDBRANCH   1  30
TORSDOF 8
ENDMDL
MODEL 5
REMARK VINA RESULT:      -6.7     17.117     18.149
REMARK  Name = pdb/CHEMBL3909333.pdb
REMARK                            x       y       z     vdW  Elec       q    Type
REMARK                         _______ _______ _______ _____ _____    ______ ____
ROOT
ATOM      1  C   LIG    1      -36.800  80.025  27.668  0.00  0.00    +0.149 A 
ATOM      2  N   LIG    1      -35.780  79.210  27.970  0.00  0.00    -0.160 NA
ATOM      3  N   LIG    1      -36.231  77.955  27.742  0.00  0.00    -0.218 N 
ATOM      4  C   LIG    1      -37.504  77.961  27.158  0.00  0.00    +0.129 A 
ATOM      5  C   LIG    1      -37.867  79.287  27.104  0.00  0.00    +0.078 A 
ENDROOT
BRANCH   3   6
ATOM      6  C   LIG    1      -35.405  76.857  28.107  0.00  0.00    +0.067 A 
ATOM      7  C   LIG    1      -34.375  76.406  27.278  0.00  0.00    +0.028 A 
ATOM      8  C   LIG    1      -33.565  75.339  27.682  0.00  0.00    +0.002 A 
ATOM      9  C   LIG    1      -33.793  74.708  28.903  0.00  0.00    +0.000 A 
ATOM     10  C   LIG    1      -34.851  75.120  29.711  0.00  0.00    +0.002 A 
ATOM     11  C   LIG    1      -35.665  76.180  29.309  0.00  0.00    +0.028 A 
ENDBRANCH   3   6
BRANCH   4  12
ATOM     12  N   LIG    1      -38.231  76.872  26.639  0.00  0.00    -0.266 N 
ATOM     13  H   LIG    1      -38.967  76.484  27.210  0.00  0.00    +0.157 HD
ATOM     14  C   LIG    1      -37.976  76.320  25.324  0.00  0.00    +0.251 C 
ATOM     15  O   LIG    1      -37.124  76.793  24.603  0.00  0.00    -0.270 OA
BRANCH  14  16
ATOM     16  C   LIG    1      -38.775  75.164  24.849  0.00  0.00    +0.056 A 
ATOM     17  C   LIG    1      -39.993  75.266  24.187  0.00  0.00    +0.054 A 
ATOM     18 CL   LIG    1      -40.748  76.759  23.793  0.00  0.00    -0.083 Cl
ATOM     19  C   LIG    1      -40.655  74.114  23.761  0.00  0.00    +0.041 A 
ATOM     20  C   LIG    1      -40.112  72.840  23.979  0.00  0.00    +0.052 A 
ATOM     21 CL   LIG    1      -41.146  71.533  23.510  0.00  0.00    -0.083 Cl
ATOM     22  C   LIG    1      -38.851  72.679  24.584  0.00  0.00    +0.019 A 
ATOM     23  C   LIG    1      -38.219  73.874  25.032  0.00  0.00    +0.026 A 
BRANCH  22  24
ATOM     24  C   LIG    1      -38.144  71.382  24.779  0.00  0.00    +0.072 A 
ATOM     25  N   LIG    1      -37.664  71.173  26.034  0.00  0.00    -0.255 NA
ATOM     26  C   LIG    1      -36.971  70.032  26.275  0.00  0.00    +0.111 A 
ATOM     27  C   LIG    1      -36.734  69.056  25.327  0.00  0.00    +0.020 A 
ATOM     28  C   LIG    1      -37.217  69.271  24.048  0.00  0.00    +0.004 A 
ATOM     29  C   LIG    1      -37.904  70.453  23.766  0.00  0.00    +0.028 A 
ENDBRANCH  22  24
ENDBRANCH  14  16
ENDBRANCH   4  12
BRANCH   1  30
ATOM     30  C   LIG    1      -36.749  81.472  27.900  0.00  0.00    +0.236 C 
ATOM     31  N   LIG    1      -36.452  82.270  26.944  0.00  0.00    -0.243 NA
BRANCH  30  32
ATOM     32  O   LIG    1      -37.019  81.835  29.172  0.00  0.00    -0.491 OA
ATOM     33  H   LIG    1      -37.751  82.469  29.225  0.00  0.00    +0.294 HD
ENDBRANCH  30  32
BRANCH  31  34
ATOM     34  C   LIG    1      -36.346  83.709  27.129  0.00  0.00    +0.200 C 
BRANCH  34  35
ATOM     35  C   LIG    1      -36.983  84.498  26.007  0.00  0.00    +0.063 A 
ATOM     36  N   LIG    1      -38.220  84.108  25.606  0.00  0.00    -0.258 NA
ATOM     37  C   LIG    1      -38.784  84.803  24.590  0.00  0.00    +0.111 A 
ATOM     38  C   LIG    1      -38.190  85.888  23.968  0.00  0.00    +0.020 A 
ATOM     39  C   LIG    1      -36.932  86.287  24.402  0.00  0.00    +0.003 A 
ATOM     40  C   LIG    1      -36.314  85.581  25.433  0.00  0.00    +0.025 A 
ENDBRANCH  34  35
ENDBRANCH  31  34
ENDBRANCH   1  30
TORSDOF 8
ENDMDL
MODEL 6
REMARK VINA RESULT:      -6.6      3.444      9.661
REMARK  Name = pdb/CHEMBL3909333.pdb
REMARK                            x       y       z     vdW  Elec       q    Type
REMARK                         _______ _______ _______ _____ _____    ______ ____
ROOT
ATOM      1  C   LIG    1      -26.286  77.905  13.915  0.00  0.00    +0.149 A 
ATOM      2  N   LIG    1      -25.220  77.974  14.724  0.00  0.00    -0.160 NA
ATOM      3  N   LIG    1      -24.663  79.186  14.500  0.00  0.00    -0.218 N 
ATOM      4  C   LIG    1      -25.449  79.965  13.641  0.00  0.00    +0.129 A 
ATOM      5  C   LIG    1      -26.493  79.148  13.270  0.00  0.00    +0.078 A 
ENDROOT
BRANCH   3   6
ATOM      6  C   LIG    1      -23.424  79.494  15.125  0.00  0.00    +0.067 A 
ATOM      7  C   LIG    1      -23.299  80.554  16.025  0.00  0.00    +0.028 A 
ATOM      8  C   LIG    1      -22.069  80.810  16.642  0.00  0.00    +0.002 A 
ATOM      9  C   LIG    1      -20.959  80.022  16.347  0.00  0.00    +0.000 A 
ATOM     10  C   LIG    1      -21.064  78.996  15.411  0.00  0.00    +0.002 A 
ATOM     11  C   LIG    1      -22.288  78.740  14.790  0.00  0.00    +0.028 A 
ENDBRANCH   3   6
BRANCH   4  12
ATOM     12  N   LIG    1      -25.284  81.321  13.297  0.00  0.00    -0.266 N 
ATOM     13  H   LIG    1      -25.727  82.011  13.884  0.00  0.00    +0.157 HD
ATOM     14  C   LIG    1      -24.488  81.745  12.162  0.00  0.00    +0.251 C 
ATOM     15  O   LIG    1      -23.914  80.937  11.466  0.00  0.00    -0.270 OA
BRANCH  14  16
ATOM     16  C   LIG    1      -24.370  83.191  11.853  0.00  0.00    +0.056 A 
ATOM     17  C   LIG    1      -25.225  83.888  11.007  0.00  0.00    +0.054 A 
ATOM     18 CL   LIG    1      -26.572  83.180  10.209  0.00  0.00    -0.083 Cl
ATOM     19  C   LIG    1      -25.039  85.255  10.799  0.00  0.00    +0.041 A 
ATOM     20  C   LIG    1      -24.005  85.954  11.436  0.00  0.00    +0.052 A 
ATOM     21 CL   LIG    1      -23.848  87.606  10.941  0.00  0.00    -0.083 Cl
ATOM     22  C   LIG    1      -23.150  85.314  12.353  0.00  0.00    +0.019 A 
ATOM     23  C   LIG    1      -23.351  83.914  12.518  0.00  0.00    +0.026 A 
BRANCH  22  24
ATOM     24  C   LIG    1      -22.083  85.981  13.151  0.00  0.00    +0.072 A 
ATOM     25  N   LIG    1      -22.514  86.604  14.281  0.00  0.00    -0.255 NA
ATOM     26  C   LIG    1      -21.604  87.269  15.036  0.00  0.00    +0.111 A 
ATOM     27  C   LIG    1      -20.258  87.341  14.739  0.00  0.00    +0.020 A 
ATOM     28  C   LIG    1      -19.818  86.712  13.586  0.00  0.00    +0.004 A 
ATOM     29  C   LIG    1      -20.740  86.050  12.775  0.00  0.00    +0.028 A 
ENDBRANCH  22  24
ENDBRANCH  14  16
ENDBRANCH   4  12
BRANCH   1  30
ATOM     30  C   LIG    1      -27.092  76.689  13.772  0.00  0.00    +0.236 C 
ATOM     31  N   LIG    1      -27.074  76.027  12.677  0.00  0.00    -0.243 NA
BRANCH  30  32
ATOM     32  O   LIG    1      -27.824  76.382  14.864  0.00  0.00    -0.491 OA
ATOM     33  H   LIG    1      -27.979  77.154  15.430  0.00  0.00    +0.294 HD
ENDBRANCH  30  32
BRANCH  31  34
ATOM     34  C   LIG    1      -27.886  74.838  12.467  0.00  0.00    +0.200 C 
BRANCH  34  35
ATOM     35  C   LIG    1      -29.223  75.140  11.829  0.00  0.00    +0.063 A 
ATOM     36  N   LIG    1      -30.210  74.225  12.004  0.00  0.00    -0.258 NA
ATOM     37  C   LIG    1      -31.402  74.486  11.419  0.00  0.00    +0.111 A 
ATOM     38  C   LIG    1      -31.674  75.631  10.687  0.00  0.00    +0.020 A 
ATOM     39  C   LIG    1      -30.660  76.567  10.533  0.00  0.00    +0.003 A 
ATOM     40  C   LIG    1      -29.413  76.319  11.106  0.00  0.00    +0.025 A 
ENDBRANCH  34  35
ENDBRANCH  31  34
ENDBRANCH   1  30
TORSDOF 8
ENDMDL
MODEL 7
REMARK VINA RESULT:      -6.5     20.307     23.000
REMARK  Name = pdb/CHEMBL3909333.pdb
REMARK                            x       y       z     vdW  Elec       q    Type
REMARK                         _______ _______ _______ _____ _____    ______ ____
ROOT
ATOM      1  C   LIG    1      -24.806  82.924  37.434  0.00  0.00    +0.149 A 
ATOM      2  N   LIG    1      -23.755  83.454  38.077  0.00  0.00    -0.160 NA
ATOM      3  N   LIG    1      -22.735  82.585  37.896  0.00  0.00    -0.218 N 
ATOM      4  C   LIG    1      -23.084  81.553  37.016  0.00  0.00    +0.129 A 
ATOM      5  C   LIG    1      -24.409  81.773  36.714  0.00  0.00    +0.078 A 
ENDROOT
BRANCH   3   6
ATOM      6  C   LIG    1      -21.513  82.816  38.583  0.00  0.00    +0.067 A 
ATOM      7  C   LIG    1      -21.239  82.219  39.815  0.00  0.00    +0.028 A 
ATOM      8  C   LIG    1      -20.013  82.449  40.451  0.00  0.00    +0.002 A 
ATOM      9  C   LIG    1      -19.067  83.289  39.867  0.00  0.00    +0.000 A 
ATOM     10  C   LIG    1      -19.355  83.928  38.663  0.00  0.00    +0.002 A 
ATOM     11  C   LIG    1      -20.578  83.706  38.029  0.00  0.00    +0.028 A 
ENDBRANCH   3   6
BRANCH   4  12
ATOM     12  N   LIG    1      -22.255  80.556  36.467  0.00  0.00    -0.266 N 
ATOM     13  H   LIG    1      -22.424  79.600  36.743  0.00  0.00    +0.157 HD
ATOM     14  C   LIG    1      -21.204  80.853  35.514  0.00  0.00    +0.251 C 
ATOM     15  O   LIG    1      -21.007  81.988  35.137  0.00  0.00    -0.270 OA
BRANCH  14  16
ATOM     16  C   LIG    1      -20.362  79.752  34.987  0.00  0.00    +0.056 A 
ATOM     17  C   LIG    1      -19.232  79.251  35.624  0.00  0.00    +0.054 A 
ATOM     18 CL   LIG    1      -18.653  79.820  37.138  0.00  0.00    -0.083 Cl
ATOM     19  C   LIG    1      -18.519  78.196  35.053  0.00  0.00    +0.041 A 
ATOM     20  C   LIG    1      -18.925  77.614  33.844  0.00  0.00    +0.052 A 
ATOM     21 CL   LIG    1      -17.835  76.419  33.225  0.00  0.00    -0.083 Cl
ATOM     22  C   LIG    1      -20.098  78.036  33.190  0.00  0.00    +0.019 A 
ATOM     23  C   LIG    1      -20.782  79.134  33.785  0.00  0.00    +0.026 A 
BRANCH  22  24
ATOM     24  C   LIG    1      -20.666  77.426  31.954  0.00  0.00    +0.072 A 
ATOM     25  N   LIG    1      -21.709  76.577  32.160  0.00  0.00    -0.255 NA
ATOM     26  C   LIG    1      -22.250  75.951  31.086  0.00  0.00    +0.111 A 
ATOM     27  C   LIG    1      -21.820  76.134  29.786  0.00  0.00    +0.020 A 
ATOM     28  C   LIG    1      -20.755  76.994  29.576  0.00  0.00    +0.004 A 
ATOM     29  C   LIG    1      -20.158  77.623  30.669  0.00  0.00    +0.028 A 
ENDBRANCH  22  24
ENDBRANCH  14  16
ENDBRANCH   4  12
BRANCH   1  30
ATOM     30  C   LIG    1      -26.147  83.511  37.496  0.00  0.00    +0.236 C 
ATOM     31  N   LIG    1      -26.832  83.675  36.427  0.00  0.00    -0.243 NA
BRANCH  30  32
ATOM     32  O   LIG    1      -26.541  83.855  38.742  0.00  0.00    -0.491 OA
ATOM     33  H   LIG    1      -26.141  84.687  39.036  0.00  0.00    +0.294 HD
ENDBRANCH  30  32
BRANCH  31  34
ATOM     34  C   LIG    1      -28.150  84.291  36.427  0.00  0.00    +0.200 C 
BRANCH  34  35
ATOM     35  C   LIG    1      -28.234  85.506  35.531  0.00  0.00    +0.063 A 
ATOM     36  N   LIG    1      -27.103  86.243  35.385  0.00  0.00    -0.258 NA
ATOM     37  C   LIG    1      -27.182  87.341  34.597  0.00  0.00    +0.111 A 
ATOM     38  C   LIG    1      -28.326  87.731  33.921  0.00  0.00    +0.020 A 
ATOM     39  C   LIG    1      -29.470  86.956  34.065  0.00  0.00    +0.003 A 
ATOM     40  C   LIG    1      -29.429  85.830  34.885  0.00  0.00    +0.025 A 
ENDBRANCH  34  35
ENDBRANCH  31  34
ENDBRANCH   1  30
TORSDOF 8
ENDMDL
MODEL 8
REMARK VINA RESULT:      -6.5     17.946     20.446
REMARK  Name = pdb/CHEMBL3909333.pdb
REMARK                            x       y       z     vdW  Elec       q    Type
REMARK                         _______ _______ _______ _____ _____    ______ ____
ROOT
ATOM      1  C   LIG    1      -35.391  68.700  25.730  0.00  0.00    +0.149 A 
ATOM      2  N   LIG    1      -36.062  68.337  24.627  0.00  0.00    -0.160 NA
ATOM      3  N   LIG    1      -36.768  69.427  24.250  0.00  0.00    -0.218 N 
ATOM      4  C   LIG    1      -36.451  70.546  25.030  0.00  0.00    +0.129 A 
ATOM      5  C   LIG    1      -35.564  70.082  25.975  0.00  0.00    +0.078 A 
ENDROOT
BRANCH   3   6
ATOM      6  C   LIG    1      -37.690  69.303  23.175  0.00  0.00    +0.067 A 
ATOM      7  C   LIG    1      -37.273  68.975  21.883  0.00  0.00    +0.028 A 
ATOM      8  C   LIG    1      -38.212  68.836  20.855  0.00  0.00    +0.002 A 
ATOM      9  C   LIG    1      -39.566  69.042  21.110  0.00  0.00    +0.000 A 
ATOM     10  C   LIG    1      -39.984  69.419  22.384  0.00  0.00    +0.002 A 
ATOM     11  C   LIG    1      -39.050  69.565  23.410  0.00  0.00    +0.028 A 
ENDBRANCH   3   6
BRANCH   4  12
ATOM     12  N   LIG    1      -36.858  71.881  24.847  0.00  0.00    -0.266 N 
ATOM     13  H   LIG    1      -36.335  72.446  24.196  0.00  0.00    +0.157 HD
ATOM     14  C   LIG    1      -38.001  72.448  25.534  0.00  0.00    +0.251 C 
ATOM     15  O   LIG    1      -38.669  71.779  26.291  0.00  0.00    -0.270 OA
BRANCH  14  16
ATOM     16  C   LIG    1      -38.364  73.868  25.301  0.00  0.00    +0.056 A 
ATOM     17  C   LIG    1      -39.399  74.291  24.476  0.00  0.00    +0.054 A 
ATOM     18 CL   LIG    1      -40.438  73.225  23.617  0.00  0.00    -0.083 Cl
ATOM     19  C   LIG    1      -39.673  75.653  24.341  0.00  0.00    +0.041 A 
ATOM     20  C   LIG    1      -38.926  76.616  25.034  0.00  0.00    +0.052 A 
ATOM     21 CL   LIG    1      -39.320  78.253  24.627  0.00  0.00    -0.083 Cl
ATOM     22  C   LIG    1      -37.910  76.243  25.934  0.00  0.00    +0.019 A 
ATOM     23  C   LIG    1      -37.640  74.848  26.022  0.00  0.00    +0.026 A 
BRANCH  22  24
ATOM     24  C   LIG    1      -37.122  77.178  26.786  0.00  0.00    +0.072 A 
ATOM     25  N   LIG    1      -35.790  76.909  26.853  0.00  0.00    -0.255 NA
ATOM     26  C   LIG    1      -35.016  77.693  27.644  0.00  0.00    +0.111 A 
ATOM     27  C   LIG    1      -35.492  78.762  28.378  0.00  0.00    +0.020 A 
ATOM     28  C   LIG    1      -36.848  79.031  28.315  0.00  0.00    +0.004 A 
ATOM     29  C   LIG    1      -37.672  78.219  27.535  0.00  0.00    +0.028 A 
ENDBRANCH  22  24
ENDBRANCH  14  16
ENDBRANCH   4  12
BRANCH   1  30
ATOM     30  C   LIG    1      -34.598  67.753  26.518  0.00  0.00    +0.236 C 
ATOM     31  N   LIG    1      -34.413  67.949  27.769  0.00  0.00    -0.243 NA
BRANCH  30  32
ATOM     32  O   LIG    1      -34.102  66.720  25.803  0.00  0.00    -0.491 OA
ATOM     33  H   LIG    1      -33.237  66.924  25.417  0.00  0.00    +0.294 HD
ENDBRANCH  30  32
BRANCH  31  34
ATOM     34  C   LIG    1      -33.599  67.064  28.589  0.00  0.00    +0.200 C 
BRANCH  34  35
ATOM     35  C   LIG    1      -32.579  67.805  29.425  0.00  0.00    +0.063 A 
ATOM     36  N   LIG    1      -31.981  67.109  30.426  0.00  0.00    -0.258 NA
ATOM     37  C   LIG    1      -31.081  67.775  31.186  0.00  0.00    +0.111 A 
ATOM     38  C   LIG    1      -30.722  69.098  30.984  0.00  0.00    +0.020 A 
ATOM     39  C   LIG    1      -31.329  69.791  29.944  0.00  0.00    +0.003 A 
ATOM     40  C   LIG    1      -32.275  69.140  29.155  0.00  0.00    +0.025 A 
ENDBRANCH  34  35
ENDBRANCH  31  34
ENDBRANCH   1  30
TORSDOF 8
ENDMDL
MODEL 9
REMARK VINA RESULT:      -6.5     16.801     18.952
REMARK  Name = pdb/CHEMBL3909333.pdb
REMARK                            x       y       z     vdW  Elec       q    Type
REMARK                         _______ _______ _______ _____ _____    ______ ____
ROOT
ATOM      1  C   LIG    1      -36.380  71.666  26.586  0.00  0.00    +0.149 A 
ATOM      2  N   LIG    1      -37.578  72.221  26.354  0.00  0.00    -0.160 NA
ATOM      3  N   LIG    1      -37.914  71.863  25.094  0.00  0.00    -0.218 N 
ATOM      4  C   LIG    1      -36.994  70.958  24.551  0.00  0.00    +0.129 A 
ATOM      5  C   LIG    1      -36.014  70.826  25.509  0.00  0.00    +0.078 A 
ENDROOT
BRANCH   3   6
ATOM      6  C   LIG    1      -39.086  72.422  24.516  0.00  0.00    +0.067 A 
ATOM      7  C   LIG    1      -40.070  71.621  23.933  0.00  0.00    +0.028 A 
ATOM      8  C   LIG    1      -41.224  72.205  23.397  0.00  0.00    +0.002 A 
ATOM      9  C   LIG    1      -41.388  73.589  23.425  0.00  0.00    +0.000 A 
ATOM     10  C   LIG    1      -40.387  74.396  23.959  0.00  0.00    +0.002 A 
ATOM     11  C   LIG    1      -39.233  73.818  24.489  0.00  0.00    +0.028 A 
ENDBRANCH   3   6
BRANCH   4  12
ATOM     12  N   LIG    1      -37.080  70.247  23.338  0.00  0.00    -0.266 N 
ATOM     13  H   LIG    1      -36.699  70.683  22.511  0.00  0.00    +0.157 HD
ATOM     14  C   LIG    1      -37.665  68.924  23.249  0.00  0.00    +0.251 C 
ATOM     15  O   LIG    1      -38.094  68.365  24.235  0.00  0.00    -0.270 OA
BRANCH  14  16
ATOM     16  C   LIG    1      -37.733  68.242  21.934  0.00  0.00    +0.056 A 
ATOM     17  C   LIG    1      -38.882  68.139  21.158  0.00  0.00    +0.054 A 
ATOM     18 CL   LIG    1      -40.399  68.815  21.598  0.00  0.00    -0.083 Cl
ATOM     19  C   LIG    1      -38.834  67.494  19.922  0.00  0.00    +0.041 A 
ATOM     20  C   LIG    1      -37.639  66.947  19.433  0.00  0.00    +0.052 A 
ATOM     21 CL   LIG    1      -37.811  66.063  17.953  0.00  0.00    -0.083 Cl
ATOM     22  C   LIG    1      -36.432  67.079  20.144  0.00  0.00    +0.019 A 
ATOM     23  C   LIG    1      -36.525  67.717  21.414  0.00  0.00    +0.026 A 
BRANCH  22  24
ATOM     24  C   LIG    1      -35.095  66.619  19.673  0.00  0.00    +0.072 A 
ATOM     25  N   LIG    1      -34.411  65.842  20.556  0.00  0.00    -0.255 NA
ATOM     26  C   LIG    1      -33.168  65.422  20.214  0.00  0.00    +0.111 A 
ATOM     27  C   LIG    1      -32.555  65.718  19.012  0.00  0.00    +0.020 A 
ATOM     28  C   LIG    1      -33.248  66.513  18.116  0.00  0.00    +0.004 A 
ATOM     29  C   LIG    1      -34.514  66.988  18.459  0.00  0.00    +0.028 A 
ENDBRANCH  22  24
ENDBRANCH  14  16
ENDBRANCH   4  12
BRANCH   1  30
ATOM     30  C   LIG    1      -35.614  71.923  27.809  0.00  0.00    +0.236 C 
ATOM     31  N   LIG    1      -34.957  73.013  27.943  0.00  0.00    -0.243 NA
BRANCH  30  32
ATOM     32  O   LIG    1      -35.669  70.922  28.713  0.00  0.00    -0.491 OA
ATOM     33  H   LIG    1      -34.790  70.580  28.935  0.00  0.00    +0.294 HD
ENDBRANCH  30  32
BRANCH  31  34
ATOM     34  C   LIG    1      -34.146  73.300  29.117  0.00  0.00    +0.200 C 
BRANCH  34  35
ATOM     35  C   LIG    1      -33.300  74.544  28.961  0.00  0.00    +0.063 A 
ATOM     36  N   LIG    1      -32.199  74.642  29.749  0.00  0.00    -0.258 NA
ATOM     37  C   LIG    1      -31.450  75.762  29.623  0.00  0.00    +0.111 A 
ATOM     38  C   LIG    1      -31.726  76.784  28.729  0.00  0.00    +0.020 A 
ATOM     39  C   LIG    1      -32.845  76.661  27.917  0.00  0.00    +0.003 A 
ATOM     40  C   LIG    1      -33.650  75.529  28.035  0.00  0.00    +0.025 A 
ENDBRANCH  34  35
ENDBRANCH  31  34
ENDBRANCH   1  30
TORSDOF 8
ENDMDL
