MODEL 1
REMARK VINA RESULT:      -7.1      0.000      0.000
REMARK  Name = pdb/CHEMBL3952307.pdb
REMARK                            x       y       z     vdW  Elec       q    Type
REMARK                         _______ _______ _______ _____ _____    ______ ____
ROOT
ATOM      1  C   LIG    1      -35.473  69.268  25.052  0.00  0.00    +0.131 C 
ATOM      2  N   LIG    1      -36.472  70.153  24.876  0.00  0.00    -0.141 NA
ATOM      3  N   LIG    1      -36.193  71.152  25.751  0.00  0.00    -0.201 N 
ATOM      4  C   LIG    1      -34.885  71.045  26.238  0.00  0.00    +0.185 C 
ATOM      5  C   LIG    1      -34.480  69.770  25.924  0.00  0.00    +0.056 C 
ENDROOT
BRANCH   3   6
ATOM      6  C   LIG    1      -37.161  72.159  26.016  0.00  0.00    +0.052 A 
ATOM      7  C   LIG    1      -37.715  72.893  24.959  0.00  0.00    +0.025 A 
ATOM      8  C   LIG    1      -38.668  73.883  25.217  0.00  0.00    +0.002 A 
ATOM      9  C   LIG    1      -39.083  74.135  26.524  0.00  0.00    +0.000 A 
ATOM     10  C   LIG    1      -38.555  73.391  27.575  0.00  0.00    +0.002 A 
ATOM     11  C   LIG    1      -37.610  72.393  27.319  0.00  0.00    +0.025 A 
ENDBRANCH   3   6
BRANCH   4  12
ATOM     12  N   LIG    1      -34.133  72.063  26.826  0.00  0.00    -0.282 N 
ATOM     13  H   LIG    1      -33.529  72.598  26.208  0.00  0.00    +0.152 HD
ATOM     14  C   LIG    1      -34.074  72.347  28.237  0.00  0.00    +0.247 C 
ATOM     15  O   LIG    1      -34.694  71.678  29.042  0.00  0.00    -0.270 OA
BRANCH  14  16
ATOM     16  C   LIG    1      -33.161  73.445  28.665  0.00  0.00    +0.056 A 
ATOM     17  C   LIG    1      -31.988  73.219  29.390  0.00  0.00    +0.056 A 
ATOM     18 CL   LIG    1      -31.351  71.668  29.752  0.00  0.00    -0.083 Cl
ATOM     19  C   LIG    1      -31.220  74.296  29.834  0.00  0.00    +0.059 A 
ATOM     20  C   LIG    1      -31.587  75.587  29.515  0.00  0.00    +0.134 A 
ATOM     21  F   LIG    1      -30.823  76.565  30.027  0.00  0.00    -0.205 F 
ATOM     22  C   LIG    1      -32.703  75.875  28.717  0.00  0.00    +0.039 A 
ATOM     23  C   LIG    1      -33.505  74.771  28.320  0.00  0.00    +0.027 A 
BRANCH  22  24
ATOM     24  C   LIG    1      -33.045  77.253  28.313  0.00  0.00    +0.109 A 
ATOM     25  C   LIG    1      -32.485  77.909  27.211  0.00  0.00    +0.149 A 
ATOM     26  F   LIG    1      -31.593  77.313  26.405  0.00  0.00    -0.203 F 
ATOM     27  C   LIG    1      -32.883  79.201  26.894  0.00  0.00    +0.042 A 
ATOM     28  C   LIG    1      -33.855  79.817  27.668  0.00  0.00    +0.023 A 
ATOM     29  C   LIG    1      -34.384  79.109  28.734  0.00  0.00    +0.111 A 
ATOM     30  N   LIG    1      -34.003  77.852  29.072  0.00  0.00    -0.252 NA
ENDBRANCH  22  24
ENDBRANCH  14  16
ENDBRANCH   4  12
BRANCH   1  31
ATOM     31  C   LIG    1      -35.479  68.020  24.300  0.00  0.00    +0.233 C 
ATOM     32  N   LIG    1      -34.855  67.908  23.187  0.00  0.00    -0.245 NA
BRANCH  31  33
ATOM     33  O   LIG    1      -36.205  67.035  24.877  0.00  0.00    -0.491 OA
ATOM     34  H   LIG    1      -35.819  66.175  24.615  0.00  0.00    +0.294 HD
ENDBRANCH  31  33
BRANCH  32  35
ATOM     35  C   LIG    1      -34.936  66.598  22.531  0.00  0.00    +0.182 C 
BRANCH  35  36
ATOM     36  C   LIG    1      -35.149  66.720  21.045  0.00  0.00    -0.005 A 
ATOM     37  C   LIG    1      -36.310  67.266  20.522  0.00  0.00    +0.140 A 
ATOM     38  N   LIG    1      -36.499  67.479  19.201  0.00  0.00    -0.157 NA
ATOM     39  N   LIG    1      -35.507  67.168  18.327  0.00  0.00    -0.158 NA
ATOM     40  C   LIG    1      -34.362  66.633  18.795  0.00  0.00    +0.135 A 
ATOM     41  C   LIG    1      -34.144  66.384  20.138  0.00  0.00    +0.028 A 
ENDBRANCH  35  36
ENDBRANCH  32  35
ENDBRANCH   1  31
TORSDOF 8
ENDMDL
MODEL 2
REMARK VINA RESULT:      -7.0      8.762     16.280
REMARK  Name = pdb/CHEMBL3952307.pdb
REMARK                            x       y       z     vdW  Elec       q    Type
REMARK                         _______ _______ _______ _____ _____    ______ ____
ROOT
ATOM      1  C   LIG    1      -31.447  87.184  30.733  0.00  0.00    +0.131 C 
ATOM      2  N   LIG    1      -32.501  87.927  30.349  0.00  0.00    -0.141 NA
ATOM      3  N   LIG    1      -33.181  87.127  29.489  0.00  0.00    -0.201 N 
ATOM      4  C   LIG    1      -32.735  85.803  29.573  0.00  0.00    +0.185 C 
ATOM      5  C   LIG    1      -31.534  85.862  30.239  0.00  0.00    +0.056 C 
ENDROOT
BRANCH   3   6
ATOM      6  C   LIG    1      -34.233  87.663  28.697  0.00  0.00    +0.052 A 
ATOM      7  C   LIG    1      -34.209  89.013  28.320  0.00  0.00    +0.025 A 
ATOM      8  C   LIG    1      -35.242  89.541  27.540  0.00  0.00    +0.002 A 
ATOM      9  C   LIG    1      -36.293  88.726  27.120  0.00  0.00    +0.000 A 
ATOM     10  C   LIG    1      -36.308  87.380  27.470  0.00  0.00    +0.002 A 
ATOM     11  C   LIG    1      -35.271  86.846  28.240  0.00  0.00    +0.025 A 
ENDBRANCH   3   6
BRANCH   4  12
ATOM     12  N   LIG    1      -33.427  84.667  29.151  0.00  0.00    -0.282 N 
ATOM     13  H   LIG    1      -33.364  84.436  28.164  0.00  0.00    +0.152 HD
ATOM     14  C   LIG    1      -34.291  83.862  29.976  0.00  0.00    +0.247 C 
ATOM     15  O   LIG    1      -34.491  84.144  31.143  0.00  0.00    -0.270 OA
BRANCH  14  16
ATOM     16  C   LIG    1      -34.983  82.721  29.313  0.00  0.00    +0.056 A 
ATOM     17  C   LIG    1      -36.359  82.704  29.069  0.00  0.00    +0.056 A 
ATOM     18 CL   LIG    1      -37.412  84.031  29.344  0.00  0.00    -0.083 Cl
ATOM     19  C   LIG    1      -36.960  81.571  28.521  0.00  0.00    +0.059 A 
ATOM     20  C   LIG    1      -36.192  80.480  28.171  0.00  0.00    +0.134 A 
ATOM     21  F   LIG    1      -36.856  79.412  27.701  0.00  0.00    -0.205 F 
ATOM     22  C   LIG    1      -34.797  80.468  28.308  0.00  0.00    +0.039 A 
ATOM     23  C   LIG    1      -34.207  81.609  28.919  0.00  0.00    +0.027 A 
BRANCH  22  24
ATOM     24  C   LIG    1      -33.972  79.330  27.857  0.00  0.00    +0.109 A 
ATOM     25  C   LIG    1      -34.002  78.059  28.444  0.00  0.00    +0.149 A 
ATOM     26  F   LIG    1      -34.819  77.766  29.467  0.00  0.00    -0.203 F 
ATOM     27  C   LIG    1      -33.205  77.041  27.939  0.00  0.00    +0.042 A 
ATOM     28  C   LIG    1      -32.401  77.295  26.838  0.00  0.00    +0.023 A 
ATOM     29  C   LIG    1      -32.431  78.567  26.291  0.00  0.00    +0.111 A 
ATOM     30  N   LIG    1      -33.190  79.582  26.773  0.00  0.00    -0.252 NA
ENDBRANCH  22  24
ENDBRANCH  14  16
ENDBRANCH   4  12
BRANCH   1  31
ATOM     31  C   LIG    1      -30.454  87.756  31.631  0.00  0.00    +0.233 C 
ATOM     32  N   LIG    1      -30.639  87.790  32.899  0.00  0.00    -0.245 NA
BRANCH  31  33
ATOM     33  O   LIG    1      -29.363  88.249  31.001  0.00  0.00    -0.491 OA
ATOM     34  H   LIG    1      -29.063  89.047  31.483  0.00  0.00    +0.294 HD
ENDBRANCH  31  33
BRANCH  32  35
ATOM     35  C   LIG    1      -29.562  88.389  33.693  0.00  0.00    +0.182 C 
BRANCH  35  36
ATOM     36  C   LIG    1      -28.681  87.349  34.332  0.00  0.00    -0.005 A 
ATOM     37  C   LIG    1      -27.404  87.653  34.775  0.00  0.00    +0.140 A 
ATOM     38  N   LIG    1      -26.619  86.775  35.439  0.00  0.00    -0.157 NA
ATOM     39  N   LIG    1      -27.094  85.532  35.711  0.00  0.00    -0.158 NA
ATOM     40  C   LIG    1      -28.332  85.195  35.296  0.00  0.00    +0.135 A 
ATOM     41  C   LIG    1      -29.152  86.063  34.599  0.00  0.00    +0.028 A 
ENDBRANCH  35  36
ENDBRANCH  32  35
ENDBRANCH   1  31
TORSDOF 8
ENDMDL
MODEL 3
REMARK VINA RESULT:      -6.7     17.361     20.900
REMARK  Name = pdb/CHEMBL3952307.pdb
REMARK                            x       y       z     vdW  Elec       q    Type
REMARK                         _______ _______ _______ _____ _____    ______ ____
ROOT
ATOM      1  C   LIG    1      -22.133  82.430  15.677  0.00  0.00    +0.131 C 
ATOM      2  N   LIG    1      -20.888  82.006  15.390  0.00  0.00    -0.141 NA
ATOM      3  N   LIG    1      -20.926  80.670  15.627  0.00  0.00    -0.201 N 
ATOM      4  C   LIG    1      -22.245  80.219  15.756  0.00  0.00    +0.185 C 
ATOM      5  C   LIG    1      -23.002  81.349  15.948  0.00  0.00    +0.056 C 
ENDROOT
BRANCH   3   6
ATOM      6  C   LIG    1      -19.721  79.916  15.657  0.00  0.00    +0.052 A 
ATOM      7  C   LIG    1      -19.549  78.908  16.616  0.00  0.00    +0.025 A 
ATOM      8  C   LIG    1      -18.365  78.165  16.646  0.00  0.00    +0.002 A 
ATOM      9  C   LIG    1      -17.356  78.412  15.716  0.00  0.00    +0.000 A 
ATOM     10  C   LIG    1      -17.533  79.393  14.746  0.00  0.00    +0.002 A 
ATOM     11  C   LIG    1      -18.720  80.131  14.705  0.00  0.00    +0.025 A 
ENDBRANCH   3   6
BRANCH   4  12
ATOM     12  N   LIG    1      -22.688  78.903  15.617  0.00  0.00    -0.282 N 
ATOM     13  H   LIG    1      -23.012  78.440  16.462  0.00  0.00    +0.152 HD
ATOM     14  C   LIG    1      -22.633  78.127  14.404  0.00  0.00    +0.247 C 
ATOM     15  O   LIG    1      -22.161  78.588  13.382  0.00  0.00    -0.270 OA
BRANCH  14  16
ATOM     16  C   LIG    1      -23.106  76.717  14.486  0.00  0.00    +0.056 A 
ATOM     17  C   LIG    1      -24.184  76.232  13.739  0.00  0.00    +0.056 A 
ATOM     18 CL   LIG    1      -25.006  77.124  12.526  0.00  0.00    -0.083 Cl
ATOM     19  C   LIG    1      -24.632  74.924  13.922  0.00  0.00    +0.059 A 
ATOM     20  C   LIG    1      -23.982  74.086  14.805  0.00  0.00    +0.134 A 
ATOM     21  F   LIG    1      -24.510  72.862  14.961  0.00  0.00    -0.205 F 
ATOM     22  C   LIG    1      -22.842  74.484  15.517  0.00  0.00    +0.039 A 
ATOM     23  C   LIG    1      -22.432  75.836  15.360  0.00  0.00    +0.027 A 
BRANCH  22  24
ATOM     24  C   LIG    1      -22.103  73.558  16.398  0.00  0.00    +0.109 A 
ATOM     25  C   LIG    1      -22.321  73.446  17.776  0.00  0.00    +0.149 A 
ATOM     26  F   LIG    1      -23.257  74.168  18.410  0.00  0.00    -0.203 F 
ATOM     27  C   LIG    1      -21.592  72.531  18.524  0.00  0.00    +0.042 A 
ATOM     28  C   LIG    1      -20.666  71.721  17.883  0.00  0.00    +0.023 A 
ATOM     29  C   LIG    1      -20.509  71.868  16.515  0.00  0.00    +0.111 A 
ATOM     30  N   LIG    1      -21.199  72.762  15.765  0.00  0.00    -0.252 NA
ENDBRANCH  22  24
ENDBRANCH  14  16
ENDBRANCH   4  12
BRANCH   1  31
ATOM     31  C   LIG    1      -22.446  83.850  15.585  0.00  0.00    +0.233 C 
ATOM     32  N   LIG    1      -22.393  84.476  14.469  0.00  0.00    -0.245 NA
BRANCH  31  33
ATOM     33  O   LIG    1      -22.769  84.418  16.771  0.00  0.00    -0.491 OA
ATOM     34  H   LIG    1      -23.584  83.990  17.105  0.00  0.00    +0.294 HD
ENDBRANCH  31  33
BRANCH  32  35
ATOM     35  C   LIG    1      -22.735  85.901  14.511  0.00  0.00    +0.182 C 
BRANCH  35  36
ATOM     36  C   LIG    1      -21.566  86.777  14.144  0.00  0.00    -0.005 A 
ATOM     37  C   LIG    1      -20.277  86.273  14.074  0.00  0.00    +0.140 A 
ATOM     38  N   LIG    1      -19.217  87.001  13.657  0.00  0.00    -0.157 NA
ATOM     39  N   LIG    1      -19.406  88.287  13.264  0.00  0.00    -0.158 NA
ATOM     40  C   LIG    1      -20.645  88.816  13.318  0.00  0.00    +0.135 A 
ATOM     41  C   LIG    1      -21.746  88.105  13.758  0.00  0.00    +0.028 A 
ENDBRANCH  35  36
ENDBRANCH  32  35
ENDBRANCH   1  31
TORSDOF 8
ENDMDL
MODEL 4
REMARK VINA RESULT:      -6.7      5.390      9.415
REMARK  Name = pdb/CHEMBL3952307.pdb
REMARK                            x       y       z     vdW  Elec       q    Type
REMARK                         _______ _______ _______ _____ _____    ______ ____
ROOT
ATOM      1  C   LIG    1      -31.748  74.462  30.093  0.00  0.00    +0.131 C 
ATOM      2  N   LIG    1      -31.988  75.785  30.029  0.00  0.00    -0.141 NA
ATOM      3  N   LIG    1      -32.783  75.929  28.939  0.00  0.00    -0.201 N 
ATOM      4  C   LIG    1      -33.285  74.694  28.513  0.00  0.00    +0.185 C 
ATOM      5  C   LIG    1      -32.509  73.748  29.139  0.00  0.00    +0.056 C 
ENDROOT
BRANCH   3   6
ATOM      6  C   LIG    1      -33.051  77.225  28.418  0.00  0.00    +0.052 A 
ATOM      7  C   LIG    1      -32.314  77.708  27.327  0.00  0.00    +0.025 A 
ATOM      8  C   LIG    1      -32.577  78.981  26.813  0.00  0.00    +0.002 A 
ATOM      9  C   LIG    1      -33.581  79.771  27.370  0.00  0.00    +0.000 A 
ATOM     10  C   LIG    1      -34.333  79.286  28.436  0.00  0.00    +0.002 A 
ATOM     11  C   LIG    1      -34.081  78.009  28.946  0.00  0.00    +0.025 A 
ENDBRANCH   3   6
BRANCH   4  12
ATOM     12  N   LIG    1      -34.401  74.487  27.702  0.00  0.00    -0.282 N 
ATOM     13  H   LIG    1      -34.223  74.329  26.714  0.00  0.00    +0.152 HD
ATOM     14  C   LIG    1      -35.773  74.576  28.133  0.00  0.00    +0.247 C 
ATOM     15  O   LIG    1      -36.056  74.865  29.280  0.00  0.00    -0.270 OA
BRANCH  14  16
ATOM     16  C   LIG    1      -36.820  74.376  27.091  0.00  0.00    +0.056 A 
ATOM     17  C   LIG    1      -37.171  73.116  26.597  0.00  0.00    +0.056 A 
ATOM     18 CL   LIG    1      -36.578  71.630  27.215  0.00  0.00    -0.083 Cl
ATOM     19  C   LIG    1      -38.098  73.003  25.561  0.00  0.00    +0.059 A 
ATOM     20  C   LIG    1      -38.712  74.130  25.054  0.00  0.00    +0.134 A 
ATOM     21  F   LIG    1      -39.550  73.936  24.024  0.00  0.00    -0.205 F 
ATOM     22  C   LIG    1      -38.469  75.412  25.566  0.00  0.00    +0.039 A 
ATOM     23  C   LIG    1      -37.481  75.516  26.583  0.00  0.00    +0.027 A 
BRANCH  22  24
ATOM     24  C   LIG    1      -39.188  76.604  25.073  0.00  0.00    +0.109 A 
ATOM     25  C   LIG    1      -38.699  77.457  24.077  0.00  0.00    +0.149 A 
ATOM     26  F   LIG    1      -37.527  77.238  23.463  0.00  0.00    -0.203 F 
ATOM     27  C   LIG    1      -39.455  78.545  23.661  0.00  0.00    +0.042 A 
ATOM     28  C   LIG    1      -40.703  78.757  24.229  0.00  0.00    +0.023 A 
ATOM     29  C   LIG    1      -41.137  77.867  25.196  0.00  0.00    +0.111 A 
ATOM     30  N   LIG    1      -40.413  76.805  25.629  0.00  0.00    -0.252 NA
ENDBRANCH  22  24
ENDBRANCH  14  16
ENDBRANCH   4  12
BRANCH   1  31
ATOM     31  C   LIG    1      -30.868  73.942  31.130  0.00  0.00    +0.233 C 
ATOM     32  N   LIG    1      -29.892  74.634  31.588  0.00  0.00    -0.245 NA
BRANCH  31  33
ATOM     33  O   LIG    1      -31.173  72.685  31.529  0.00  0.00    -0.491 OA
ATOM     34  H   LIG    1      -31.708  72.744  32.347  0.00  0.00    +0.294 HD
ENDBRANCH  31  33
BRANCH  32  35
ATOM     35  C   LIG    1      -29.083  73.998  32.633  0.00  0.00    +0.182 C 
BRANCH  35  36
ATOM     36  C   LIG    1      -27.765  73.497  32.105  0.00  0.00    -0.005 A 
ATOM     37  C   LIG    1      -27.635  72.225  31.571  0.00  0.00    +0.140 A 
ATOM     38  N   LIG    1      -26.496  71.773  31.001  0.00  0.00    -0.157 NA
ATOM     39  N   LIG    1      -25.419  72.597  30.921  0.00  0.00    -0.158 NA
ATOM     40  C   LIG    1      -25.503  73.842  31.430  0.00  0.00    +0.135 A 
ATOM     41  C   LIG    1      -26.647  74.328  32.037  0.00  0.00    +0.028 A 
ENDBRANCH  35  36
ENDBRANCH  32  35
ENDBRANCH   1  31
TORSDOF 8
ENDMDL
MODEL 5
REMARK VINA RESULT:      -6.6      5.360     11.531
REMARK  Name = pdb/CHEMBL3952307.pdb
REMARK                            x       y       z     vdW  Elec       q    Type
REMARK                         _______ _______ _______ _____ _____    ______ ____
ROOT
ATOM      1  C   LIG    1      -37.343  79.923  27.451  0.00  0.00    +0.131 C 
ATOM      2  N   LIG    1      -36.196  79.260  27.693  0.00  0.00    -0.141 NA
ATOM      3  N   LIG    1      -36.548  77.951  27.643  0.00  0.00    -0.201 N 
ATOM      4  C   LIG    1      -37.817  77.791  27.075  0.00  0.00    +0.185 C 
ATOM      5  C   LIG    1      -38.389  79.040  27.099  0.00  0.00    +0.056 C 
ENDROOT
BRANCH   3   6
ATOM      6  C   LIG    1      -35.638  76.951  28.084  0.00  0.00    +0.052 A 
ATOM      7  C   LIG    1      -34.663  76.456  27.207  0.00  0.00    +0.025 A 
ATOM      8  C   LIG    1      -33.767  75.473  27.639  0.00  0.00    +0.002 A 
ATOM      9  C   LIG    1      -33.828  74.991  28.946  0.00  0.00    +0.000 A 
ATOM     10  C   LIG    1      -34.778  75.498  29.828  0.00  0.00    +0.002 A 
ATOM     11  C   LIG    1      -35.668  76.489  29.403  0.00  0.00    +0.025 A 
ENDBRANCH   3   6
BRANCH   4  12
ATOM     12  N   LIG    1      -38.334  76.621  26.516  0.00  0.00    -0.282 N 
ATOM     13  H   LIG    1      -38.946  76.066  27.109  0.00  0.00    +0.152 HD
ATOM     14  C   LIG    1      -37.997  76.096  25.218  0.00  0.00    +0.247 C 
ATOM     15  O   LIG    1      -37.192  76.659  24.500  0.00  0.00    -0.270 OA
BRANCH  14  16
ATOM     16  C   LIG    1      -38.619  74.798  24.835  0.00  0.00    +0.056 A 
ATOM     17  C   LIG    1      -39.837  74.709  24.154  0.00  0.00    +0.056 A 
ATOM     18 CL   LIG    1      -40.701  76.053  23.528  0.00  0.00    -0.083 Cl
ATOM     19  C   LIG    1      -40.409  73.463  23.898  0.00  0.00    +0.059 A 
ATOM     20  C   LIG    1      -39.751  72.309  24.272  0.00  0.00    +0.134 A 
ATOM     21  F   LIG    1      -40.396  71.156  24.038  0.00  0.00    -0.205 F 
ATOM     22  C   LIG    1      -38.487  72.328  24.879  0.00  0.00    +0.039 A 
ATOM     23  C   LIG    1      -37.944  73.607  25.181  0.00  0.00    +0.027 A 
BRANCH  22  24
ATOM     24  C   LIG    1      -37.753  71.089  25.204  0.00  0.00    +0.109 A 
ATOM     25  C   LIG    1      -37.282  70.183  24.246  0.00  0.00    +0.149 A 
ATOM     26  F   LIG    1      -37.444  70.389  22.930  0.00  0.00    -0.203 F 
ATOM     27  C   LIG    1      -36.582  69.052  24.644  0.00  0.00    +0.042 A 
ATOM     28  C   LIG    1      -36.339  68.848  25.994  0.00  0.00    +0.023 A 
ATOM     29  C   LIG    1      -36.815  69.790  26.890  0.00  0.00    +0.111 A 
ATOM     30  N   LIG    1      -37.512  70.896  26.529  0.00  0.00    -0.252 NA
ENDBRANCH  22  24
ENDBRANCH  14  16
ENDBRANCH   4  12
BRANCH   1  31
ATOM     31  C   LIG    1      -37.351  81.379  27.483  0.00  0.00    +0.233 C 
ATOM     32  N   LIG    1      -36.485  82.066  26.836  0.00  0.00    -0.245 NA
BRANCH  31  33
ATOM     33  O   LIG    1      -38.327  81.906  28.258  0.00  0.00    -0.491 OA
ATOM     34  H   LIG    1      -38.187  81.600  29.178  0.00  0.00    +0.294 HD
ENDBRANCH  31  33
BRANCH  32  35
ATOM     35  C   LIG    1      -36.604  83.524  26.947  0.00  0.00    +0.182 C 
BRANCH  35  36
ATOM     36  C   LIG    1      -37.052  84.157  25.656  0.00  0.00    -0.005 A 
ATOM     37  C   LIG    1      -37.662  83.414  24.658  0.00  0.00    +0.140 A 
ATOM     38  N   LIG    1      -38.163  83.959  23.528  0.00  0.00    -0.157 NA
ATOM     39  N   LIG    1      -38.092  85.304  23.350  0.00  0.00    -0.158 NA
ATOM     40  C   LIG    1      -37.505  86.063  24.297  0.00  0.00    +0.135 A 
ATOM     41  C   LIG    1      -36.965  85.534  25.454  0.00  0.00    +0.028 A 
ENDBRANCH  35  36
ENDBRANCH  32  35
ENDBRANCH   1  31
TORSDOF 8
ENDMDL
MODEL 6
REMARK VINA RESULT:      -6.5     16.814     18.982
REMARK  Name = pdb/CHEMBL3952307.pdb
REMARK                            x       y       z     vdW  Elec       q    Type
REMARK                         _______ _______ _______ _____ _____    ______ ____
ROOT
ATOM      1  C   LIG    1      -26.244  77.861  13.702  0.00  0.00    +0.131 C 
ATOM      2  N   LIG    1      -25.295  77.926  14.654  0.00  0.00    -0.141 NA
ATOM      3  N   LIG    1      -24.612  79.064  14.370  0.00  0.00    -0.201 N 
ATOM      4  C   LIG    1      -25.312  79.856  13.452  0.00  0.00    +0.185 C 
ATOM      5  C   LIG    1      -26.264  79.029  12.906  0.00  0.00    +0.056 C 
ENDROOT
BRANCH   3   6
ATOM      6  C   LIG    1      -23.382  79.341  15.028  0.00  0.00    +0.052 A 
ATOM      7  C   LIG    1      -23.325  80.334  16.016  0.00  0.00    +0.025 A 
ATOM      8  C   LIG    1      -22.117  80.608  16.664  0.00  0.00    +0.002 A 
ATOM      9  C   LIG    1      -20.968  79.885  16.345  0.00  0.00    +0.000 A 
ATOM     10  C   LIG    1      -21.026  78.880  15.385  0.00  0.00    +0.002 A 
ATOM     11  C   LIG    1      -22.235  78.597  14.741  0.00  0.00    +0.025 A 
ENDBRANCH   3   6
BRANCH   4  12
ATOM     12  N   LIG    1      -25.130  81.221  13.226  0.00  0.00    -0.282 N 
ATOM     13  H   LIG    1      -25.696  81.854  13.785  0.00  0.00    +0.152 HD
ATOM     14  C   LIG    1      -24.285  81.793  12.209  0.00  0.00    +0.247 C 
ATOM     15  O   LIG    1      -23.660  81.089  11.439  0.00  0.00    -0.270 OA
BRANCH  14  16
ATOM     16  C   LIG    1      -24.278  83.279  12.099  0.00  0.00    +0.056 A 
ATOM     17  C   LIG    1      -25.243  83.994  11.384  0.00  0.00    +0.056 A 
ATOM     18 CL   LIG    1      -26.642  83.297  10.675  0.00  0.00    -0.083 Cl
ATOM     19  C   LIG    1      -25.133  85.377  11.247  0.00  0.00    +0.059 A 
ATOM     20  C   LIG    1      -24.098  86.054  11.859  0.00  0.00    +0.134 A 
ATOM     21  F   LIG    1      -24.036  87.375  11.632  0.00  0.00    -0.205 F 
ATOM     22  C   LIG    1      -23.149  85.407  12.662  0.00  0.00    +0.039 A 
ATOM     23  C   LIG    1      -23.243  83.991  12.746  0.00  0.00    +0.027 A 
BRANCH  22  24
ATOM     24  C   LIG    1      -22.091  86.146  13.379  0.00  0.00    +0.109 A 
ATOM     25  C   LIG    1      -20.822  86.410  12.850  0.00  0.00    +0.149 A 
ATOM     26  F   LIG    1      -20.472  86.024  11.614  0.00  0.00    -0.203 F 
ATOM     27  C   LIG    1      -19.897  87.133  13.590  0.00  0.00    +0.042 A 
ATOM     28  C   LIG    1      -20.254  87.604  14.844  0.00  0.00    +0.023 A 
ATOM     29  C   LIG    1      -21.531  87.326  15.304  0.00  0.00    +0.111 A 
ATOM     30  N   LIG    1      -22.449  86.612  14.607  0.00  0.00    -0.252 NA
ENDBRANCH  22  24
ENDBRANCH  14  16
ENDBRANCH   4  12
BRANCH   1  31
ATOM     31  C   LIG    1      -27.144  76.717  13.663  0.00  0.00    +0.233 C 
ATOM     32  N   LIG    1      -27.334  76.051  12.586  0.00  0.00    -0.245 NA
BRANCH  31  33
ATOM     33  O   LIG    1      -27.752  76.457  14.845  0.00  0.00    -0.491 OA
ATOM     34  H   LIG    1      -28.260  75.626  14.752  0.00  0.00    +0.294 HD
ENDBRANCH  31  33
BRANCH  32  35
ATOM     35  C   LIG    1      -28.262  74.919  12.681  0.00  0.00    +0.182 C 
BRANCH  35  36
ATOM     36  C   LIG    1      -29.518  75.146  11.884  0.00  0.00    -0.005 A 
ATOM     37  C   LIG    1      -29.672  76.261  11.075  0.00  0.00    +0.140 A 
ATOM     38  N   LIG    1      -30.741  76.453  10.271  0.00  0.00    -0.157 NA
ATOM     39  N   LIG    1      -31.718  75.511  10.226  0.00  0.00    -0.158 NA
ATOM     40  C   LIG    1      -31.608  74.411  10.998  0.00  0.00    +0.135 A 
ATOM     41  C   LIG    1      -30.537  74.194  11.845  0.00  0.00    +0.028 A 
ENDBRANCH  35  36
ENDBRANCH  32  35
ENDBRANCH   1  31
TORSDOF 8
ENDMDL
MODEL 7
REMARK VINA RESULT:      -6.4      2.346      3.199
REMARK  Name = pdb/CHEMBL3952307.pdb
REMARK                            x       y       z     vdW  Elec       q    Type
REMARK                         _______ _______ _______ _____ _____    ______ ____
ROOT
ATOM      1  C   LIG    1      -36.750  67.955  23.211  0.00  0.00    +0.131 C 
ATOM      2  N   LIG    1      -37.402  69.079  22.859  0.00  0.00    -0.141 NA
ATOM      3  N   LIG    1      -37.472  69.801  24.006  0.00  0.00    -0.201 N 
ATOM      4  C   LIG    1      -36.611  69.282  24.980  0.00  0.00    +0.185 C 
ATOM      5  C   LIG    1      -36.273  68.025  24.540  0.00  0.00    +0.056 C 
ENDROOT
BRANCH   3   6
ATOM      6  C   LIG    1      -38.302  70.953  24.074  0.00  0.00    +0.052 A 
ATOM      7  C   LIG    1      -39.638  70.879  23.656  0.00  0.00    +0.025 A 
ATOM      8  C   LIG    1      -40.456  72.011  23.724  0.00  0.00    +0.002 A 
ATOM      9  C   LIG    1      -39.954  73.213  24.220  0.00  0.00    +0.000 A 
ATOM     10  C   LIG    1      -38.636  73.285  24.661  0.00  0.00    +0.002 A 
ATOM     11  C   LIG    1      -37.818  72.152  24.605  0.00  0.00    +0.025 A 
ENDBRANCH   3   6
BRANCH   4  12
ATOM     12  N   LIG    1      -36.132  69.955  26.105  0.00  0.00    -0.282 N 
ATOM     13  H   LIG    1      -36.800  70.131  26.850  0.00  0.00    +0.152 HD
ATOM     14  C   LIG    1      -34.806  70.498  26.250  0.00  0.00    +0.247 C 
ATOM     15  O   LIG    1      -33.988  70.413  25.353  0.00  0.00    -0.270 OA
BRANCH  14  16
ATOM     16  C   LIG    1      -34.514  71.234  27.513  0.00  0.00    +0.056 A 
ATOM     17  C   LIG    1      -34.585  70.636  28.775  0.00  0.00    +0.056 A 
ATOM     18 CL   LIG    1      -34.857  68.964  29.045  0.00  0.00    -0.083 Cl
ATOM     19  C   LIG    1      -34.383  71.400  29.924  0.00  0.00    +0.059 A 
ATOM     20  C   LIG    1      -34.061  72.738  29.820  0.00  0.00    +0.134 A 
ATOM     21  F   LIG    1      -33.937  73.410  30.975  0.00  0.00    -0.205 F 
ATOM     22  C   LIG    1      -33.888  73.374  28.583  0.00  0.00    +0.039 A 
ATOM     23  C   LIG    1      -34.152  72.596  27.423  0.00  0.00    +0.027 A 
BRANCH  22  24
ATOM     24  C   LIG    1      -33.465  74.785  28.478  0.00  0.00    +0.109 A 
ATOM     25  C   LIG    1      -34.220  75.785  27.852  0.00  0.00    +0.149 A 
ATOM     26  F   LIG    1      -35.423  75.536  27.313  0.00  0.00    -0.203 F 
ATOM     27  C   LIG    1      -33.752  77.091  27.820  0.00  0.00    +0.042 A 
ATOM     28  C   LIG    1      -32.544  77.391  28.431  0.00  0.00    +0.023 A 
ATOM     29  C   LIG    1      -31.854  76.362  29.048  0.00  0.00    +0.111 A 
ATOM     30  N   LIG    1      -32.282  75.076  29.084  0.00  0.00    -0.252 NA
ENDBRANCH  22  24
ENDBRANCH  14  16
ENDBRANCH   4  12
BRANCH   1  31
ATOM     31  C   LIG    1      -36.540  66.907  22.222  0.00  0.00    +0.233 C 
ATOM     32  N   LIG    1      -35.614  66.995  21.341  0.00  0.00    -0.245 NA
BRANCH  31  33
ATOM     33  O   LIG    1      -37.412  65.877  22.321  0.00  0.00    -0.491 OA
ATOM     34  H   LIG    1      -36.971  65.147  22.802  0.00  0.00    +0.294 HD
ENDBRANCH  31  33
BRANCH  32  35
ATOM     35  C   LIG    1      -35.504  65.871  20.405  0.00  0.00    +0.182 C 
BRANCH  35  36
ATOM     36  C   LIG    1      -34.076  65.587  20.025  0.00  0.00    -0.005 A 
ATOM     37  C   LIG    1      -33.716  64.408  19.390  0.00  0.00    +0.140 A 
ATOM     38  N   LIG    1      -32.464  64.156  18.947  0.00  0.00    -0.157 NA
ATOM     39  N   LIG    1      -31.500  65.100  19.106  0.00  0.00    -0.158 NA
ATOM     40  C   LIG    1      -31.808  66.260  19.719  0.00  0.00    +0.135 A 
ATOM     41  C   LIG    1      -33.073  66.540  20.201  0.00  0.00    +0.028 A 
ENDBRANCH  35  36
ENDBRANCH  32  35
ENDBRANCH   1  31
TORSDOF 8
ENDMDL
MODEL 8
REMARK VINA RESULT:      -6.4     17.625     20.671
REMARK  Name = pdb/CHEMBL3952307.pdb
REMARK                            x       y       z     vdW  Elec       q    Type
REMARK                         _______ _______ _______ _____ _____    ______ ____
ROOT
ATOM      1  C   LIG    1      -19.962  81.555  14.452  0.00  0.00    +0.131 C 
ATOM      2  N   LIG    1      -21.295  81.398  14.560  0.00  0.00    -0.141 NA
ATOM      3  N   LIG    1      -21.458  80.077  14.822  0.00  0.00    -0.201 N 
ATOM      4  C   LIG    1      -20.243  79.481  15.180  0.00  0.00    +0.185 C 
ATOM      5  C   LIG    1      -19.270  80.371  14.794  0.00  0.00    +0.056 C 
ENDROOT
BRANCH   3   6
ATOM      6  C   LIG    1      -22.753  79.493  14.767  0.00  0.00    +0.052 A 
ATOM      7  C   LIG    1      -22.963  78.324  14.023  0.00  0.00    +0.025 A 
ATOM      8  C   LIG    1      -24.236  77.747  13.970  0.00  0.00    +0.002 A 
ATOM      9  C   LIG    1      -25.298  78.322  14.667  0.00  0.00    +0.000 A 
ATOM     10  C   LIG    1      -25.088  79.467  15.428  0.00  0.00    +0.002 A 
ATOM     11  C   LIG    1      -23.815  80.040  15.493  0.00  0.00    +0.025 A 
ENDBRANCH   3   6
BRANCH   4  12
ATOM     12  N   LIG    1      -20.080  78.281  15.873  0.00  0.00    -0.282 N 
ATOM     13  H   LIG    1      -20.339  78.284  16.856  0.00  0.00    +0.152 HD
ATOM     14  C   LIG    1      -19.492  77.081  15.336  0.00  0.00    +0.247 C 
ATOM     15  O   LIG    1      -19.068  77.042  14.196  0.00  0.00    -0.270 OA
BRANCH  14  16
ATOM     16  C   LIG    1      -19.360  75.922  16.264  0.00  0.00    +0.056 A 
ATOM     17  C   LIG    1      -18.292  75.780  17.156  0.00  0.00    +0.056 A 
ATOM     18 CL   LIG    1      -17.085  76.969  17.424  0.00  0.00    -0.083 Cl
ATOM     19  C   LIG    1      -18.180  74.632  17.939  0.00  0.00    +0.059 A 
ATOM     20  C   LIG    1      -19.150  73.652  17.874  0.00  0.00    +0.134 A 
ATOM     21  F   LIG    1      -18.938  72.557  18.620  0.00  0.00    -0.205 F 
ATOM     22  C   LIG    1      -20.289  73.775  17.067  0.00  0.00    +0.039 A 
ATOM     23  C   LIG    1      -20.360  74.926  16.235  0.00  0.00    +0.027 A 
BRANCH  22  24
ATOM     24  C   LIG    1      -21.363  72.762  17.063  0.00  0.00    +0.109 A 
ATOM     25  C   LIG    1      -22.646  72.977  17.578  0.00  0.00    +0.149 A 
ATOM     26  F   LIG    1      -23.015  74.155  18.103  0.00  0.00    -0.203 F 
ATOM     27  C   LIG    1      -23.600  71.970  17.511  0.00  0.00    +0.042 A 
ATOM     28  C   LIG    1      -23.269  70.764  16.911  0.00  0.00    +0.023 A 
ATOM     29  C   LIG    1      -21.989  70.620  16.404  0.00  0.00    +0.111 A 
ATOM     30  N   LIG    1      -21.036  71.582  16.467  0.00  0.00    -0.252 NA
ENDBRANCH  22  24
ENDBRANCH  14  16
ENDBRANCH   4  12
BRANCH   1  31
ATOM     31  C   LIG    1      -19.419  82.863  14.114  0.00  0.00    +0.233 C 
ATOM     32  N   LIG    1      -20.178  83.829  13.749  0.00  0.00    -0.245 NA
BRANCH  31  33
ATOM     33  O   LIG    1      -18.071  82.938  14.206  0.00  0.00    -0.491 OA
ATOM     34  H   LIG    1      -17.843  83.731  14.733  0.00  0.00    +0.294 HD
ENDBRANCH  31  33
BRANCH  32  35
ATOM     35  C   LIG    1      -19.508  85.096  13.440  0.00  0.00    +0.182 C 
BRANCH  35  36
ATOM     36  C   LIG    1      -20.358  86.288  13.792  0.00  0.00    -0.005 A 
ATOM     37  C   LIG    1      -19.937  87.582  13.525  0.00  0.00    +0.140 A 
ATOM     38  N   LIG    1      -20.708  88.671  13.737  0.00  0.00    -0.157 NA
ATOM     39  N   LIG    1      -21.969  88.511  14.218  0.00  0.00    -0.158 NA
ATOM     40  C   LIG    1      -22.416  87.270  14.492  0.00  0.00    +0.135 A 
ATOM     41  C   LIG    1      -21.646  86.136  14.305  0.00  0.00    +0.028 A 
ENDBRANCH  35  36
ENDBRANCH  32  35
ENDBRANCH   1  31
TORSDOF 8
ENDMDL
MODEL 9
REMARK VINA RESULT:      -6.4      5.335      9.550
REMARK  Name = pdb/CHEMBL3952307.pdb
REMARK                            x       y       z     vdW  Elec       q    Type
REMARK                         _______ _______ _______ _____ _____    ______ ____
ROOT
ATOM      1  C   LIG    1      -39.629  77.555  24.219  0.00  0.00    +0.131 C 
ATOM      2  N   LIG    1      -40.203  76.337  24.244  0.00  0.00    -0.141 NA
ATOM      3  N   LIG    1      -39.177  75.487  24.502  0.00  0.00    -0.201 N 
ATOM      4  C   LIG    1      -38.044  76.183  24.938  0.00  0.00    +0.185 C 
ATOM      5  C   LIG    1      -38.271  77.498  24.609  0.00  0.00    +0.056 C 
ENDROOT
BRANCH   3   6
ATOM      6  C   LIG    1      -39.363  74.084  24.370  0.00  0.00    +0.052 A 
ATOM      7  C   LIG    1      -40.540  73.584  23.795  0.00  0.00    +0.025 A 
ATOM      8  C   LIG    1      -40.724  72.205  23.663  0.00  0.00    +0.002 A 
ATOM      9  C   LIG    1      -39.733  71.319  24.088  0.00  0.00    +0.000 A 
ATOM     10  C   LIG    1      -38.552  71.811  24.634  0.00  0.00    +0.002 A 
ATOM     11  C   LIG    1      -38.360  73.190  24.758  0.00  0.00    +0.025 A 
ENDBRANCH   3   6
BRANCH   4  12
ATOM     12  N   LIG    1      -36.965  75.651  25.646  0.00  0.00    -0.282 N 
ATOM     13  H   LIG    1      -36.263  75.158  25.101  0.00  0.00    +0.152 HD
ATOM     14  C   LIG    1      -36.821  75.660  27.079  0.00  0.00    +0.247 C 
ATOM     15  O   LIG    1      -37.677  76.143  27.796  0.00  0.00    -0.270 OA
BRANCH  14  16
ATOM     16  C   LIG    1      -35.617  74.984  27.639  0.00  0.00    +0.056 A 
ATOM     17  C   LIG    1      -34.501  75.682  28.109  0.00  0.00    +0.056 A 
ATOM     18 CL   LIG    1      -34.415  77.389  28.257  0.00  0.00    -0.083 Cl
ATOM     19  C   LIG    1      -33.371  74.990  28.542  0.00  0.00    +0.059 A 
ATOM     20  C   LIG    1      -33.368  73.610  28.557  0.00  0.00    +0.134 A 
ATOM     21  F   LIG    1      -32.222  73.023  28.937  0.00  0.00    -0.205 F 
ATOM     22  C   LIG    1      -34.486  72.852  28.182  0.00  0.00    +0.039 A 
ATOM     23  C   LIG    1      -35.609  73.572  27.691  0.00  0.00    +0.027 A 
BRANCH  22  24
ATOM     24  C   LIG    1      -34.505  71.379  28.277  0.00  0.00    +0.109 A 
ATOM     25  C   LIG    1      -34.459  70.522  27.171  0.00  0.00    +0.149 A 
ATOM     26  F   LIG    1      -34.368  70.984  25.915  0.00  0.00    -0.203 F 
ATOM     27  C   LIG    1      -34.460  69.146  27.356  0.00  0.00    +0.042 A 
ATOM     28  C   LIG    1      -34.484  68.638  28.647  0.00  0.00    +0.023 A 
ATOM     29  C   LIG    1      -34.509  69.538  29.699  0.00  0.00    +0.111 A 
ATOM     30  N   LIG    1      -34.522  70.885  29.545  0.00  0.00    -0.252 NA
ENDBRANCH  22  24
ENDBRANCH  14  16
ENDBRANCH   4  12
BRANCH   1  31
ATOM     31  C   LIG    1      -40.439  78.724  23.909  0.00  0.00    +0.233 C 
ATOM     32  N   LIG    1      -39.909  79.874  23.717  0.00  0.00    -0.245 NA
BRANCH  31  33
ATOM     33  O   LIG    1      -41.769  78.474  23.865  0.00  0.00    -0.491 OA
ATOM     34  H   LIG    1      -41.896  77.527  23.652  0.00  0.00    +0.294 HD
ENDBRANCH  31  33
BRANCH  32  35
ATOM     35  C   LIG    1      -40.834  80.969  23.408  0.00  0.00    +0.182 C 
BRANCH  35  36
ATOM     36  C   LIG    1      -40.110  82.241  23.053  0.00  0.00    -0.005 A 
ATOM     37  C   LIG    1      -39.069  82.724  23.830  0.00  0.00    +0.140 A 
ATOM     38  N   LIG    1      -38.333  83.806  23.495  0.00  0.00    -0.157 NA
ATOM     39  N   LIG    1      -38.599  84.458  22.333  0.00  0.00    -0.158 NA
ATOM     40  C   LIG    1      -39.605  84.022  21.549  0.00  0.00    +0.135 A 
ATOM     41  C   LIG    1      -40.389  82.930  21.873  0.00  0.00    +0.028 A 
ENDBRANCH  35  36
ENDBRANCH  32  35
ENDBRANCH   1  31
TORSDOF 8
ENDMDL
