MODEL 1
REMARK VINA RESULT:      -6.0      0.000      0.000
REMARK  Name = pdb/CHEMBL3972530.pdb
REMARK                            x       y       z     vdW  Elec       q    Type
REMARK                         _______ _______ _______ _____ _____    ______ ____
ROOT
ATOM      1  C   LIG    1      -25.505  83.080  11.526  0.00  0.00    +0.131 A 
ATOM      2  C   LIG    1      -24.469  83.905  11.901  0.00  0.00    +0.183 A 
ATOM      3  N   LIG    1      -23.265  83.651  12.502  0.00  0.00    -0.211 NA
ATOM      4  C   LIG    1      -22.477  84.664  12.800  0.00  0.00    +0.126 A 
ATOM      5  C   LIG    1      -22.865  86.081  12.437  0.00  0.00    +0.063 A 
ATOM      6  C   LIG    1      -24.028  86.268  11.801  0.00  0.00    +0.118 A 
ATOM      7  N   LIG    1      -24.853  85.190  11.524  0.00  0.00    -0.220 N 
ATOM      8  N   LIG    1      -26.064  85.207  10.911  0.00  0.00    -0.171 NA
ATOM      9  C   LIG    1      -26.460  83.929  10.943  0.00  0.00    +0.165 A 
ENDROOT
BRANCH   4  10
ATOM     10  N   LIG    1      -21.269  84.399  13.437  0.00  0.00    -0.308 N 
ATOM     11  C   LIG    1      -20.644  83.069  13.531  0.00  0.00    +0.108 C 
ATOM     12  C   LIG    1      -19.159  83.344  13.831  0.00  0.00    +0.029 C 
ATOM     13  C   LIG    1      -18.946  84.766  13.347  0.00  0.00    +0.021 C 
ATOM     14  C   LIG    1      -20.267  85.439  13.691  0.00  0.00    +0.107 C 
BRANCH  11  15
ATOM     15  C   LIG    1      -21.265  82.209  14.608  0.00  0.00    +0.011 A 
ATOM     16  C   LIG    1      -21.401  80.832  14.396  0.00  0.00    +0.129 A 
ATOM     17  F   LIG    1      -20.973  80.293  13.245  0.00  0.00    -0.205 F 
ATOM     18  C   LIG    1      -21.989  80.000  15.347  0.00  0.00    +0.041 A 
ATOM     19  C   LIG    1      -22.450  80.543  16.546  0.00  0.00    +0.041 A 
ATOM     20  C   LIG    1      -22.304  81.906  16.777  0.00  0.00    +0.124 A 
ATOM     21  F   LIG    1      -22.745  82.429  17.928  0.00  0.00    -0.205 F 
ATOM     22  C   LIG    1      -21.713  82.737  15.830  0.00  0.00    +0.046 A 
ENDBRANCH  11  15
ENDBRANCH   4  10
BRANCH   1  24
ATOM     23  C   LIG    1      -25.521  81.199  12.919  0.00  0.00    +0.241 C 
ATOM     24  N   LIG    1      -25.709  81.709  11.740  0.00  0.00    -0.206 NA
BRANCH  23  25
ATOM     25  C   LIG    1      -25.721  79.757  13.227  0.00  0.00    +0.143 A 
ATOM     26  N   LIG    1      -25.868  78.894  12.180  0.00  0.00    -0.247 NA
ATOM     27  C   LIG    1      -26.041  77.597  12.507  0.00  0.00    +0.131 A 
ATOM     28  C   LIG    1      -26.065  77.158  13.819  0.00  0.00    +0.130 A 
ATOM     29  N   LIG    1      -25.913  77.998  14.867  0.00  0.00    -0.259 NA
ATOM     30  C   LIG    1      -25.737  79.310  14.541  0.00  0.00    +0.143 A 
ENDBRANCH  23  25
BRANCH  23  31
ATOM     31  O   LIG    1      -25.118  81.846  14.034  0.00  0.00    -0.491 OA
ATOM     32  H   LIG    1      -24.882  82.771  13.852  0.00  0.00    +0.294 HD
ENDBRANCH  23  31
ENDBRANCH   1  24
TORSDOF 5
ENDMDL
MODEL 2
REMARK VINA RESULT:      -5.8     18.004     20.608
REMARK  Name = pdb/CHEMBL3972530.pdb
REMARK                            x       y       z     vdW  Elec       q    Type
REMARK                         _______ _______ _______ _____ _____    ______ ____
ROOT
ATOM      1  C   LIG    1      -24.145  79.401  34.832  0.00  0.00    +0.131 A 
ATOM      2  C   LIG    1      -23.003  79.050  34.147  0.00  0.00    +0.183 A 
ATOM      3  N   LIG    1      -22.801  78.270  33.039  0.00  0.00    -0.211 NA
ATOM      4  C   LIG    1      -21.567  78.058  32.629  0.00  0.00    +0.126 A 
ATOM      5  C   LIG    1      -20.393  78.707  33.330  0.00  0.00    +0.063 A 
ATOM      6  C   LIG    1      -20.652  79.505  34.374  0.00  0.00    +0.118 A 
ATOM      7  N   LIG    1      -21.955  79.690  34.805  0.00  0.00    -0.220 N 
ATOM      8  N   LIG    1      -22.385  80.441  35.850  0.00  0.00    -0.171 NA
ATOM      9  C   LIG    1      -23.708  80.237  35.873  0.00  0.00    +0.165 A 
ENDROOT
BRANCH   4  10
ATOM     10  N   LIG    1      -21.368  77.240  31.522  0.00  0.00    -0.308 N 
ATOM     11  C   LIG    1      -22.369  76.994  30.469  0.00  0.00    +0.108 C 
ATOM     12  C   LIG    1      -21.563  76.494  29.258  0.00  0.00    +0.029 C 
ATOM     13  C   LIG    1      -20.159  77.007  29.516  0.00  0.00    +0.021 C 
ATOM     14  C   LIG    1      -20.032  76.891  31.028  0.00  0.00    +0.107 C 
BRANCH  11  15
ATOM     15  C   LIG    1      -23.411  75.981  30.884  0.00  0.00    +0.011 A 
ATOM     16  C   LIG    1      -24.741  76.388  31.046  0.00  0.00    +0.129 A 
ATOM     17  F   LIG    1      -25.074  77.669  30.827  0.00  0.00    -0.205 F 
ATOM     18  C   LIG    1      -25.735  75.499  31.450  0.00  0.00    +0.041 A 
ATOM     19  C   LIG    1      -25.408  74.166  31.693  0.00  0.00    +0.041 A 
ATOM     20  C   LIG    1      -24.095  73.743  31.517  0.00  0.00    +0.124 A 
ATOM     21  F   LIG    1      -23.779  72.463  31.750  0.00  0.00    -0.205 F 
ATOM     22  C   LIG    1      -23.103  74.629  31.110  0.00  0.00    +0.046 A 
ENDBRANCH  11  15
ENDBRANCH   4  10
BRANCH   1  24
ATOM     23  C   LIG    1      -25.758  77.711  34.684  0.00  0.00    +0.241 C 
ATOM     24  N   LIG    1      -25.472  78.978  34.677  0.00  0.00    -0.206 NA
BRANCH  23  25
ATOM     25  C   LIG    1      -27.142  77.185  34.532  0.00  0.00    +0.143 A 
ATOM     26  N   LIG    1      -27.821  77.495  33.390  0.00  0.00    -0.247 NA
ATOM     27  C   LIG    1      -29.069  76.991  33.293  0.00  0.00    +0.131 A 
ATOM     28  C   LIG    1      -29.631  76.204  34.283  0.00  0.00    +0.130 A 
ATOM     29  N   LIG    1      -28.968  75.880  35.416  0.00  0.00    -0.259 NA
ATOM     30  C   LIG    1      -27.707  76.387  35.517  0.00  0.00    +0.143 A 
ENDBRANCH  23  25
BRANCH  23  31
ATOM     31  O   LIG    1      -24.895  76.681  34.814  0.00  0.00    -0.491 OA
ATOM     32  H   LIG    1      -23.984  76.986  34.965  0.00  0.00    +0.294 HD
ENDBRANCH  23  31
ENDBRANCH   1  24
TORSDOF 5
ENDMDL
MODEL 3
REMARK VINA RESULT:      -5.8     18.833     21.536
REMARK  Name = pdb/CHEMBL3972530.pdb
REMARK                            x       y       z     vdW  Elec       q    Type
REMARK                         _______ _______ _______ _____ _____    ______ ____
ROOT
ATOM      1  C   LIG    1      -38.014  75.925  24.996  0.00  0.00    +0.131 A 
ATOM      2  C   LIG    1      -38.511  74.660  24.779  0.00  0.00    +0.183 A 
ATOM      3  N   LIG    1      -38.001  73.416  25.041  0.00  0.00    -0.211 NA
ATOM      4  C   LIG    1      -38.688  72.356  24.666  0.00  0.00    +0.126 A 
ATOM      5  C   LIG    1      -40.043  72.502  24.007  0.00  0.00    +0.063 A 
ATOM      6  C   LIG    1      -40.519  73.740  23.825  0.00  0.00    +0.118 A 
ATOM      7  N   LIG    1      -39.766  74.840  24.202  0.00  0.00    -0.220 N 
ATOM      8  N   LIG    1      -40.089  76.152  24.070  0.00  0.00    -0.171 NA
ATOM      9  C   LIG    1      -39.011  76.798  24.528  0.00  0.00    +0.165 A 
ENDROOT
BRANCH   4  10
ATOM     10  N   LIG    1      -38.148  71.097  24.907  0.00  0.00    -0.308 N 
ATOM     11  C   LIG    1      -37.542  70.232  23.881  0.00  0.00    +0.108 C 
ATOM     12  C   LIG    1      -36.656  69.244  24.660  0.00  0.00    +0.029 C 
ATOM     13  C   LIG    1      -36.393  69.950  25.977  0.00  0.00    +0.021 C 
ATOM     14  C   LIG    1      -37.706  70.671  26.239  0.00  0.00    +0.107 C 
BRANCH  11  15
ATOM     15  C   LIG    1      -38.575  69.500  23.055  0.00  0.00    +0.011 A 
ATOM     16  C   LIG    1      -38.278  69.151  21.732  0.00  0.00    +0.129 A 
ATOM     17  F   LIG    1      -37.080  69.465  21.217  0.00  0.00    -0.205 F 
ATOM     18  C   LIG    1      -39.204  68.498  20.922  0.00  0.00    +0.041 A 
ATOM     19  C   LIG    1      -40.459  68.172  21.435  0.00  0.00    +0.041 A 
ATOM     20  C   LIG    1      -40.761  68.496  22.753  0.00  0.00    +0.124 A 
ATOM     21  F   LIG    1      -41.965  68.183  23.247  0.00  0.00    -0.205 F 
ATOM     22  C   LIG    1      -39.835  69.144  23.564  0.00  0.00    +0.046 A 
ENDBRANCH  11  15
ENDBRANCH   4  10
BRANCH   1  24
ATOM     23  C   LIG    1      -36.519  76.385  26.738  0.00  0.00    +0.241 C 
ATOM     24  N   LIG    1      -36.762  76.350  25.462  0.00  0.00    -0.206 NA
BRANCH  23  25
ATOM     25  C   LIG    1      -35.215  76.818  27.310  0.00  0.00    +0.143 A 
ATOM     26  N   LIG    1      -35.054  78.141  27.603  0.00  0.00    -0.247 NA
ATOM     27  C   LIG    1      -33.858  78.485  28.125  0.00  0.00    +0.131 A 
ATOM     28  C   LIG    1      -32.854  77.561  28.356  0.00  0.00    +0.130 A 
ATOM     29  N   LIG    1      -33.001  76.246  28.080  0.00  0.00    -0.259 NA
ATOM     30  C   LIG    1      -34.208  75.894  27.552  0.00  0.00    +0.143 A 
ENDBRANCH  23  25
BRANCH  23  31
ATOM     31  O   LIG    1      -37.366  76.061  27.739  0.00  0.00    -0.491 OA
ATOM     32  H   LIG    1      -37.133  75.212  28.151  0.00  0.00    +0.294 HD
ENDBRANCH  23  31
ENDBRANCH   1  24
TORSDOF 5
ENDMDL
MODEL 4
REMARK VINA RESULT:      -5.8     17.835     20.220
REMARK  Name = pdb/CHEMBL3972530.pdb
REMARK                            x       y       z     vdW  Elec       q    Type
REMARK                         _______ _______ _______ _____ _____    ______ ____
ROOT
ATOM      1  C   LIG    1      -27.567  77.101  34.011  0.00  0.00    +0.131 A 
ATOM      2  C   LIG    1      -26.284  77.553  33.795  0.00  0.00    +0.183 A 
ATOM      3  N   LIG    1      -25.421  77.397  32.744  0.00  0.00    -0.211 NA
ATOM      4  C   LIG    1      -24.208  77.903  32.836  0.00  0.00    +0.126 A 
ATOM      5  C   LIG    1      -23.788  78.693  34.057  0.00  0.00    +0.063 A 
ATOM      6  C   LIG    1      -24.690  78.862  35.033  0.00  0.00    +0.118 A 
ATOM      7  N   LIG    1      -25.949  78.296  34.926  0.00  0.00    -0.220 N 
ATOM      8  N   LIG    1      -26.964  78.353  35.824  0.00  0.00    -0.171 NA
ATOM      9  C   LIG    1      -27.927  77.604  35.273  0.00  0.00    +0.165 A 
ENDROOT
BRANCH   4  10
ATOM     10  N   LIG    1      -23.328  77.713  31.776  0.00  0.00    -0.308 N 
ATOM     11  C   LIG    1      -22.271  76.689  31.735  0.00  0.00    +0.108 C 
ATOM     12  C   LIG    1      -21.935  76.517  30.243  0.00  0.00    +0.029 C 
ATOM     13  C   LIG    1      -23.172  77.030  29.529  0.00  0.00    +0.021 C 
ATOM     14  C   LIG    1      -23.619  78.181  30.417  0.00  0.00    +0.107 C 
BRANCH  11  15
ATOM     15  C   LIG    1      -21.046  77.086  32.526  0.00  0.00    +0.011 A 
ATOM     16  C   LIG    1      -20.761  76.431  33.731  0.00  0.00    +0.129 A 
ATOM     17  F   LIG    1      -21.575  75.457  34.164  0.00  0.00    -0.205 F 
ATOM     18  C   LIG    1      -19.659  76.777  34.509  0.00  0.00    +0.041 A 
ATOM     19  C   LIG    1      -18.806  77.794  34.081  0.00  0.00    +0.041 A 
ATOM     20  C   LIG    1      -19.066  78.440  32.878  0.00  0.00    +0.124 A 
ATOM     21  F   LIG    1      -18.248  79.417  32.465  0.00  0.00    -0.205 F 
ATOM     22  C   LIG    1      -20.165  78.093  32.098  0.00  0.00    +0.046 A 
ENDBRANCH  11  15
ENDBRANCH   4  10
BRANCH   1  24
ATOM     23  C   LIG    1      -28.934  76.652  32.165  0.00  0.00    +0.241 C 
ATOM     24  N   LIG    1      -28.372  76.235  33.259  0.00  0.00    -0.206 NA
BRANCH  23  25
ATOM     25  C   LIG    1      -29.796  75.793  31.310  0.00  0.00    +0.143 A 
ATOM     26  N   LIG    1      -30.364  76.357  30.204  0.00  0.00    -0.247 NA
ATOM     27  C   LIG    1      -31.132  75.538  29.456  0.00  0.00    +0.131 A 
ATOM     28  C   LIG    1      -31.335  74.208  29.779  0.00  0.00    +0.130 A 
ATOM     29  N   LIG    1      -30.773  73.632  30.866  0.00  0.00    -0.259 NA
ATOM     30  C   LIG    1      -29.995  74.456  31.624  0.00  0.00    +0.143 A 
ENDBRANCH  23  25
BRANCH  23  31
ATOM     31  O   LIG    1      -28.855  77.889  31.628  0.00  0.00    -0.491 OA
ATOM     32  H   LIG    1      -28.386  77.887  30.777  0.00  0.00    +0.294 HD
ENDBRANCH  23  31
ENDBRANCH   1  24
TORSDOF 5
ENDMDL
MODEL 5
REMARK VINA RESULT:      -5.7     18.233     21.191
REMARK  Name = pdb/CHEMBL3972530.pdb
REMARK                            x       y       z     vdW  Elec       q    Type
REMARK                         _______ _______ _______ _____ _____    ______ ____
ROOT
ATOM      1  C   LIG    1      -37.839  76.323  25.188  0.00  0.00    +0.131 A 
ATOM      2  C   LIG    1      -38.579  75.212  24.851  0.00  0.00    +0.183 A 
ATOM      3  N   LIG    1      -38.327  73.871  24.968  0.00  0.00    -0.211 NA
ATOM      4  C   LIG    1      -39.212  73.015  24.500  0.00  0.00    +0.126 A 
ATOM      5  C   LIG    1      -40.512  73.497  23.893  0.00  0.00    +0.063 A 
ATOM      6  C   LIG    1      -40.732  74.817  23.854  0.00  0.00    +0.118 A 
ATOM      7  N   LIG    1      -39.774  75.699  24.326  0.00  0.00    -0.220 N 
ATOM      8  N   LIG    1      -39.829  77.055  24.340  0.00  0.00    -0.171 NA
ATOM      9  C   LIG    1      -38.642  77.421  24.838  0.00  0.00    +0.165 A 
ENDROOT
BRANCH   4  10
ATOM     10  N   LIG    1      -38.933  71.656  24.596  0.00  0.00    -0.308 N 
ATOM     11  C   LIG    1      -38.654  70.942  25.854  0.00  0.00    +0.108 C 
ATOM     12  C   LIG    1      -38.925  69.459  25.543  0.00  0.00    +0.029 C 
ATOM     13  C   LIG    1      -39.845  69.501  24.337  0.00  0.00    +0.021 C 
ATOM     14  C   LIG    1      -39.320  70.697  23.556  0.00  0.00    +0.107 C 
BRANCH  11  15
ATOM     15  C   LIG    1      -37.236  71.146  26.335  0.00  0.00    +0.011 A 
ATOM     16  C   LIG    1      -36.989  72.027  27.394  0.00  0.00    +0.129 A 
ATOM     17  F   LIG    1      -38.012  72.674  27.972  0.00  0.00    -0.205 F 
ATOM     18  C   LIG    1      -35.698  72.269  27.859  0.00  0.00    +0.041 A 
ATOM     19  C   LIG    1      -34.619  71.614  27.266  0.00  0.00    +0.041 A 
ATOM     20  C   LIG    1      -34.852  70.722  26.226  0.00  0.00    +0.124 A 
ATOM     21  F   LIG    1      -33.817  70.092  25.655  0.00  0.00    -0.205 F 
ATOM     22  C   LIG    1      -36.141  70.477  25.763  0.00  0.00    +0.046 A 
ENDBRANCH  11  15
ENDBRANCH   4  10
BRANCH   1  24
ATOM     23  C   LIG    1      -36.276  76.273  26.930  0.00  0.00    +0.241 C 
ATOM     24  N   LIG    1      -36.526  76.439  25.666  0.00  0.00    -0.206 NA
BRANCH  23  25
ATOM     25  C   LIG    1      -34.910  76.374  27.512  0.00  0.00    +0.143 A 
ATOM     26  N   LIG    1      -34.023  77.225  26.919  0.00  0.00    -0.247 NA
ATOM     27  C   LIG    1      -32.801  77.288  27.486  0.00  0.00    +0.131 A 
ATOM     28  C   LIG    1      -32.459  76.542  28.601  0.00  0.00    +0.130 A 
ATOM     29  N   LIG    1      -33.328  75.702  29.205  0.00  0.00    -0.259 NA
ATOM     30  C   LIG    1      -34.565  75.636  28.636  0.00  0.00    +0.143 A 
ENDBRANCH  23  25
BRANCH  23  31
ATOM     31  O   LIG    1      -37.165  76.001  27.909  0.00  0.00    -0.491 OA
ATOM     32  H   LIG    1      -37.093  75.084  28.221  0.00  0.00    +0.294 HD
ENDBRANCH  23  31
ENDBRANCH   1  24
TORSDOF 5
ENDMDL
MODEL 6
REMARK VINA RESULT:      -5.7     17.862     21.911
REMARK  Name = pdb/CHEMBL3972530.pdb
REMARK                            x       y       z     vdW  Elec       q    Type
REMARK                         _______ _______ _______ _____ _____    ______ ____
ROOT
ATOM      1  C   LIG    1      -36.708  75.491  29.769  0.00  0.00    +0.131 A 
ATOM      2  C   LIG    1      -37.296  74.342  29.291  0.00  0.00    +0.183 A 
ATOM      3  N   LIG    1      -37.264  73.737  28.063  0.00  0.00    -0.211 NA
ATOM      4  C   LIG    1      -37.984  72.650  27.871  0.00  0.00    +0.126 A 
ATOM      5  C   LIG    1      -38.790  72.044  28.999  0.00  0.00    +0.063 A 
ATOM      6  C   LIG    1      -38.742  72.645  30.195  0.00  0.00    +0.118 A 
ATOM      7  N   LIG    1      -38.001  73.802  30.365  0.00  0.00    -0.220 N 
ATOM      8  N   LIG    1      -37.864  74.542  31.495  0.00  0.00    -0.171 NA
ATOM      9  C   LIG    1      -37.102  75.574  31.115  0.00  0.00    +0.165 A 
ENDROOT
BRANCH   4  10
ATOM     10  N   LIG    1      -37.969  72.060  26.611  0.00  0.00    -0.308 N 
ATOM     11  C   LIG    1      -37.557  72.739  25.371  0.00  0.00    +0.108 C 
ATOM     12  C   LIG    1      -37.211  71.606  24.389  0.00  0.00    +0.029 C 
ATOM     13  C   LIG    1      -36.925  70.418  25.289  0.00  0.00    +0.021 C 
ATOM     14  C   LIG    1      -37.922  70.607  26.422  0.00  0.00    +0.107 C 
BRANCH  11  15
ATOM     15  C   LIG    1      -38.639  73.633  24.810  0.00  0.00    +0.011 A 
ATOM     16  C   LIG    1      -38.509  75.023  24.920  0.00  0.00    +0.129 A 
ATOM     17  F   LIG    1      -37.425  75.543  25.515  0.00  0.00    -0.205 F 
ATOM     18  C   LIG    1      -39.490  75.889  24.441  0.00  0.00    +0.041 A 
ATOM     19  C   LIG    1      -40.629  75.368  23.828  0.00  0.00    +0.041 A 
ATOM     20  C   LIG    1      -40.762  73.990  23.696  0.00  0.00    +0.124 A 
ATOM     21  F   LIG    1      -41.855  73.489  23.107  0.00  0.00    -0.205 F 
ATOM     22  C   LIG    1      -39.781  73.125  24.170  0.00  0.00    +0.046 A 
ENDBRANCH  11  15
ENDBRANCH   4  10
BRANCH   1  24
ATOM     23  C   LIG    1      -34.825  76.187  28.566  0.00  0.00    +0.241 C 
ATOM     24  N   LIG    1      -35.966  76.482  29.112  0.00  0.00    -0.206 NA
BRANCH  23  25
ATOM     25  C   LIG    1      -33.982  77.180  27.846  0.00  0.00    +0.143 A 
ATOM     26  N   LIG    1      -32.916  76.715  27.132  0.00  0.00    -0.247 NA
ATOM     27  C   LIG    1      -32.185  77.651  26.491  0.00  0.00    +0.131 A 
ATOM     28  C   LIG    1      -32.491  78.999  26.547  0.00  0.00    +0.130 A 
ATOM     29  N   LIG    1      -33.548  79.475  27.242  0.00  0.00    -0.259 NA
ATOM     30  C   LIG    1      -34.290  78.533  27.891  0.00  0.00    +0.143 A 
ENDBRANCH  23  25
BRANCH  23  31
ATOM     31  O   LIG    1      -34.212  74.984  28.556  0.00  0.00    -0.491 OA
ATOM     32  H   LIG    1      -34.485  74.431  29.308  0.00  0.00    +0.294 HD
ENDBRANCH  23  31
ENDBRANCH   1  24
TORSDOF 5
ENDMDL
MODEL 7
REMARK VINA RESULT:      -5.6     18.266     20.525
REMARK  Name = pdb/CHEMBL3972530.pdb
REMARK                            x       y       z     vdW  Elec       q    Type
REMARK                         _______ _______ _______ _____ _____    ______ ____
ROOT
ATOM      1  C   LIG    1      -24.252  79.382  35.094  0.00  0.00    +0.131 A 
ATOM      2  C   LIG    1      -22.885  79.489  34.969  0.00  0.00    +0.183 A 
ATOM      3  N   LIG    1      -21.958  78.705  34.336  0.00  0.00    -0.211 NA
ATOM      4  C   LIG    1      -20.684  79.026  34.430  0.00  0.00    +0.126 A 
ATOM      5  C   LIG    1      -20.250  80.269  35.177  0.00  0.00    +0.063 A 
ATOM      6  C   LIG    1      -21.203  81.030  35.730  0.00  0.00    +0.118 A 
ATOM      7  N   LIG    1      -22.533  80.657  35.642  0.00  0.00    -0.220 N 
ATOM      8  N   LIG    1      -23.612  81.297  36.160  0.00  0.00    -0.171 NA
ATOM      9  C   LIG    1      -24.642  80.503  35.846  0.00  0.00    +0.165 A 
ENDROOT
BRANCH   4  10
ATOM     10  N   LIG    1      -19.746  78.206  33.810  0.00  0.00    -0.308 N 
ATOM     11  C   LIG    1      -19.550  78.108  32.354  0.00  0.00    +0.108 C 
ATOM     12  C   LIG    1      -18.135  77.528  32.177  0.00  0.00    +0.029 C 
ATOM     13  C   LIG    1      -17.442  77.853  33.487  0.00  0.00    +0.021 C 
ATOM     14  C   LIG    1      -18.560  77.698  34.507  0.00  0.00    +0.107 C 
BRANCH  11  15
ATOM     15  C   LIG    1      -20.584  77.230  31.687  0.00  0.00    +0.011 A 
ATOM     16  C   LIG    1      -21.079  77.586  30.426  0.00  0.00    +0.129 A 
ATOM     17  F   LIG    1      -20.626  78.696  29.825  0.00  0.00    -0.205 F 
ATOM     18  C   LIG    1      -22.050  76.824  29.780  0.00  0.00    +0.041 A 
ATOM     19  C   LIG    1      -22.541  75.671  30.392  0.00  0.00    +0.041 A 
ATOM     20  C   LIG    1      -22.045  75.296  31.636  0.00  0.00    +0.124 A 
ATOM     21  F   LIG    1      -22.515  74.190  32.225  0.00  0.00    -0.205 F 
ATOM     22  C   LIG    1      -21.072  76.054  32.280  0.00  0.00    +0.046 A 
ENDBRANCH  11  15
ENDBRANCH   4  10
BRANCH   1  24
ATOM     23  C   LIG    1      -25.107  77.916  33.481  0.00  0.00    +0.241 C 
ATOM     24  N   LIG    1      -25.132  78.364  34.701  0.00  0.00    -0.206 NA
BRANCH  23  25
ATOM     25  C   LIG    1      -26.003  76.835  32.989  0.00  0.00    +0.143 A 
ATOM     26  N   LIG    1      -27.222  77.193  32.490  0.00  0.00    -0.247 NA
ATOM     27  C   LIG    1      -27.997  76.181  32.050  0.00  0.00    +0.131 A 
ATOM     28  C   LIG    1      -27.588  74.859  32.094  0.00  0.00    +0.130 A 
ATOM     29  N   LIG    1      -26.382  74.488  32.577  0.00  0.00    -0.259 NA
ATOM     30  C   LIG    1      -25.595  75.509  33.022  0.00  0.00    +0.143 A 
ENDBRANCH  23  25
BRANCH  23  31
ATOM     31  O   LIG    1      -24.309  78.335  32.475  0.00  0.00    -0.491 OA
ATOM     32  H   LIG    1      -24.256  79.305  32.433  0.00  0.00    +0.294 HD
ENDBRANCH  23  31
ENDBRANCH   1  24
TORSDOF 5
ENDMDL
MODEL 8
REMARK VINA RESULT:      -5.5      2.280      6.061
REMARK  Name = pdb/CHEMBL3972530.pdb
REMARK                            x       y       z     vdW  Elec       q    Type
REMARK                         _______ _______ _______ _____ _____    ______ ____
ROOT
ATOM      1  C   LIG    1      -24.090  83.728  10.988  0.00  0.00    +0.131 A 
ATOM      2  C   LIG    1      -24.233  82.376  11.204  0.00  0.00    +0.183 A 
ATOM      3  N   LIG    1      -24.425  81.644  12.346  0.00  0.00    -0.211 NA
ATOM      4  C   LIG    1      -24.472  80.331  12.258  0.00  0.00    +0.126 A 
ATOM      5  C   LIG    1      -24.371  79.638  10.916  0.00  0.00    +0.063 A 
ATOM      6  C   LIG    1      -24.241  80.405   9.826  0.00  0.00    +0.118 A 
ATOM      7  N   LIG    1      -24.165  81.782   9.946  0.00  0.00    -0.220 N 
ATOM      8  N   LIG    1      -24.012  82.695   8.953  0.00  0.00    -0.171 NA
ATOM      9  C   LIG    1      -23.941  83.865   9.598  0.00  0.00    +0.165 A 
ENDROOT
BRANCH   4  10
ATOM     10  N   LIG    1      -24.635  79.594  13.427  0.00  0.00    -0.308 N 
ATOM     11  C   LIG    1      -24.594  80.158  14.787  0.00  0.00    +0.108 C 
ATOM     12  C   LIG    1      -25.319  79.127  15.671  0.00  0.00    +0.029 C 
ATOM     13  C   LIG    1      -26.179  78.348  14.693  0.00  0.00    +0.021 C 
ATOM     14  C   LIG    1      -25.305  78.290  13.449  0.00  0.00    +0.107 C 
BRANCH  11  15
ATOM     15  C   LIG    1      -23.184  80.396  15.275  0.00  0.00    +0.011 A 
ATOM     16  C   LIG    1      -22.762  81.702  15.550  0.00  0.00    +0.129 A 
ATOM     17  F   LIG    1      -23.615  82.724  15.383  0.00  0.00    -0.205 F 
ATOM     18  C   LIG    1      -21.465  81.977  15.979  0.00  0.00    +0.041 A 
ATOM     19  C   LIG    1      -20.560  80.930  16.149  0.00  0.00    +0.041 A 
ATOM     20  C   LIG    1      -20.971  79.626  15.898  0.00  0.00    +0.124 A 
ATOM     21  F   LIG    1      -20.103  78.620  16.061  0.00  0.00    -0.205 F 
ATOM     22  C   LIG    1      -22.267  79.350  15.473  0.00  0.00    +0.046 A 
ENDBRANCH  11  15
ENDBRANCH   4  10
BRANCH   1  24
ATOM     23  C   LIG    1      -22.840  85.078  12.436  0.00  0.00    +0.241 C 
ATOM     24  N   LIG    1      -23.985  84.794  11.892  0.00  0.00    -0.206 NA
BRANCH  23  25
ATOM     25  C   LIG    1      -22.646  86.196  13.398  0.00  0.00    +0.143 A 
ATOM     26  N   LIG    1      -22.731  87.472  12.921  0.00  0.00    -0.247 NA
ATOM     27  C   LIG    1      -22.555  88.452  13.831  0.00  0.00    +0.131 A 
ATOM     28  C   LIG    1      -22.308  88.190  15.167  0.00  0.00    +0.130 A 
ATOM     29  N   LIG    1      -22.230  86.933  15.657  0.00  0.00    -0.259 NA
ATOM     30  C   LIG    1      -22.407  85.939  14.741  0.00  0.00    +0.143 A 
ENDBRANCH  23  25
BRANCH  23  31
ATOM     31  O   LIG    1      -21.667  84.436  12.248  0.00  0.00    -0.491 OA
ATOM     32  H   LIG    1      -21.763  83.472  12.327  0.00  0.00    +0.294 HD
ENDBRANCH  23  31
ENDBRANCH   1  24
TORSDOF 5
ENDMDL
MODEL 9
REMARK VINA RESULT:      -5.5     18.289     21.162
REMARK  Name = pdb/CHEMBL3972530.pdb
REMARK                            x       y       z     vdW  Elec       q    Type
REMARK                         _______ _______ _______ _____ _____    ______ ____
ROOT
ATOM      1  C   LIG    1      -19.084  78.445  32.880  0.00  0.00    +0.131 A 
ATOM      2  C   LIG    1      -19.434  77.173  32.485  0.00  0.00    +0.183 A 
ATOM      3  N   LIG    1      -20.632  76.509  32.485  0.00  0.00    -0.211 NA
ATOM      4  C   LIG    1      -20.661  75.252  32.093  0.00  0.00    +0.126 A 
ATOM      5  C   LIG    1      -19.407  74.563  31.600  0.00  0.00    +0.063 A 
ATOM      6  C   LIG    1      -18.274  75.275  31.569  0.00  0.00    +0.118 A 
ATOM      7  N   LIG    1      -18.261  76.587  32.012  0.00  0.00    -0.220 N 
ATOM      8  N   LIG    1      -17.203  77.435  32.068  0.00  0.00    -0.171 NA
ATOM      9  C   LIG    1      -17.707  78.545  32.620  0.00  0.00    +0.165 A 
ENDROOT
BRANCH   4  10
ATOM     10  N   LIG    1      -21.877  74.576  32.125  0.00  0.00    -0.308 N 
ATOM     11  C   LIG    1      -22.817  74.486  30.995  0.00  0.00    +0.108 C 
ATOM     12  C   LIG    1      -23.703  73.266  31.307  0.00  0.00    +0.029 C 
ATOM     13  C   LIG    1      -22.870  72.448  32.275  0.00  0.00    +0.021 C 
ATOM     14  C   LIG    1      -22.164  73.516  33.097  0.00  0.00    +0.107 C 
BRANCH  11  15
ATOM     15  C   LIG    1      -23.651  75.735  30.832  0.00  0.00    +0.011 A 
ATOM     16  C   LIG    1      -23.203  76.756  29.984  0.00  0.00    +0.129 A 
ATOM     17  F   LIG    1      -22.045  76.609  29.324  0.00  0.00    -0.205 F 
ATOM     18  C   LIG    1      -23.923  77.937  29.818  0.00  0.00    +0.041 A 
ATOM     19  C   LIG    1      -25.124  78.114  30.503  0.00  0.00    +0.041 A 
ATOM     20  C   LIG    1      -25.590  77.101  31.334  0.00  0.00    +0.124 A 
ATOM     21  F   LIG    1      -26.744  77.269  31.992  0.00  0.00    -0.205 F 
ATOM     22  C   LIG    1      -24.874  75.919  31.497  0.00  0.00    +0.046 A 
ENDBRANCH  11  15
ENDBRANCH   4  10
BRANCH   1  24
ATOM     23  C   LIG    1      -19.980  79.424  34.808  0.00  0.00    +0.241 C 
ATOM     24  N   LIG    1      -19.832  79.444  33.518  0.00  0.00    -0.206 NA
BRANCH  23  25
ATOM     25  C   LIG    1      -20.753  80.451  35.558  0.00  0.00    +0.143 A 
ATOM     26  N   LIG    1      -22.010  80.753  35.118  0.00  0.00    -0.247 NA
ATOM     27  C   LIG    1      -22.674  81.684  35.833  0.00  0.00    +0.131 A 
ATOM     28  C   LIG    1      -22.126  82.299  36.945  0.00  0.00    +0.130 A 
ATOM     29  N   LIG    1      -20.887  82.006  37.398  0.00  0.00    -0.259 NA
ATOM     30  C   LIG    1      -20.212  81.064  36.679  0.00  0.00    +0.143 A 
ENDBRANCH  23  25
BRANCH  23  31
ATOM     31  O   LIG    1      -19.494  78.506  35.671  0.00  0.00    -0.491 OA
ATOM     32  H   LIG    1      -18.962  78.914  36.375  0.00  0.00    +0.294 HD
ENDBRANCH  23  31
ENDBRANCH   1  24
TORSDOF 5
ENDMDL
