MODEL 1
REMARK VINA RESULT:      -5.9      0.000      0.000
REMARK  Name = pdb/CHEMBL3659501.pdb
REMARK                            x       y       z     vdW  Elec       q    Type
REMARK                         _______ _______ _______ _____ _____    ______ ____
ROOT
ATOM      1  C   LIG    1      -19.980  78.901  33.370  0.00  0.00    +0.122 A 
ATOM      2  N   LIG    1      -21.097  78.510  32.713  0.00  0.00    -0.213 NA
ATOM      3  C   LIG    1      -20.872  77.765  31.607  0.00  0.00    +0.168 A 
ATOM      4  N   LIG    1      -21.791  77.265  30.698  0.00  0.00    -0.266 N 
ATOM      5  C   LIG    1      -21.054  76.568  29.760  0.00  0.00    +0.207 A 
ATOM      6  N   LIG    1      -19.759  76.608  29.981  0.00  0.00    -0.234 NA
ATOM      7  C   LIG    1      -19.634  77.364  31.115  0.00  0.00    +0.108 A 
ATOM      8  C   LIG    1      -18.493  77.773  31.804  0.00  0.00    +0.035 A 
ATOM      9  C   LIG    1      -18.688  78.555  32.947  0.00  0.00    +0.046 A 
ENDROOT
BRANCH   4  10
ATOM     10  C   LIG    1      -23.202  77.453  30.656  0.00  0.00    +0.165 A 
ATOM     11  N   LIG    1      -23.709  78.245  29.705  0.00  0.00    -0.153 NA
ATOM     12  N   LIG    1      -25.020  78.297  30.005  0.00  0.00    -0.245 N 
ATOM     13  H   LIG    1      -25.631  78.873  29.445  0.00  0.00    +0.192 HD
ATOM     14  C   LIG    1      -25.370  77.540  31.098  0.00  0.00    +0.213 A 
ATOM     15  C   LIG    1      -24.199  76.953  31.521  0.00  0.00    +0.115 A 
BRANCH  14  16
ATOM     16  O   LIG    1      -26.650  77.550  31.488  0.00  0.00    -0.474 OA
BRANCH  16  17
ATOM     17  C   LIG    1      -27.103  76.487  32.331  0.00  0.00    +0.169 C 
ATOM     18  C   LIG    1      -28.474  76.049  31.829  0.00  0.00    +0.051 C 
ATOM     19  C   LIG    1      -27.214  77.015  33.758  0.00  0.00    +0.051 C 
ENDBRANCH  16  17
ENDBRANCH  14  16
ENDBRANCH   4  10
BRANCH   1  20
ATOM     20  N   LIG    1      -20.089  79.620  34.571  0.00  0.00    -0.321 N 
ATOM     21  H   LIG    1      -20.296  80.603  34.404  0.00  0.00    +0.148 HD
BRANCH  20  22
ATOM     22  C   LIG    1      -20.934  79.057  35.636  0.00  0.00    +0.120 C 
BRANCH  22  23
ATOM     23  C   LIG    1      -22.085  80.020  35.980  0.00  0.00    +0.062 A 
ATOM     24  N   LIG    1      -23.253  79.500  36.457  0.00  0.00    -0.255 NA
ATOM     25  C   LIG    1      -24.277  80.366  36.677  0.00  0.00    +0.149 A 
ATOM     26  C   LIG    1      -24.193  81.729  36.457  0.00  0.00    +0.141 A 
ATOM     27  F   LIG    1      -25.245  82.528  36.676  0.00  0.00    -0.204 F 
ATOM     28  C   LIG    1      -22.995  82.256  36.008  0.00  0.00    +0.042 A 
ATOM     29  C   LIG    1      -21.922  81.394  35.775  0.00  0.00    +0.028 A 
ENDBRANCH  22  23
BRANCH  22  31
ATOM     30  C   LIG    1      -18.769  79.533  36.952  0.00  0.00    +0.006 C 
ATOM     31  C   LIG    1      -20.092  78.776  36.900  0.00  0.00    +0.025 C 
ENDBRANCH  22  31
ENDBRANCH  20  22
ENDBRANCH   1  20
TORSDOF 7
ENDMDL
MODEL 2
REMARK VINA RESULT:      -5.8      2.030      2.771
REMARK  Name = pdb/CHEMBL3659501.pdb
REMARK                            x       y       z     vdW  Elec       q    Type
REMARK                         _______ _______ _______ _____ _____    ______ ____
ROOT
ATOM      1  C   LIG    1      -20.651  79.026  34.048  0.00  0.00    +0.122 A 
ATOM      2  N   LIG    1      -21.519  78.461  33.175  0.00  0.00    -0.213 NA
ATOM      3  C   LIG    1      -20.942  77.897  32.089  0.00  0.00    +0.168 A 
ATOM      4  N   LIG    1      -21.552  77.296  31.000  0.00  0.00    -0.266 N 
ATOM      5  C   LIG    1      -20.525  76.876  30.176  0.00  0.00    +0.207 A 
ATOM      6  N   LIG    1      -19.332  77.183  30.635  0.00  0.00    -0.234 NA
ATOM      7  C   LIG    1      -19.580  77.832  31.812  0.00  0.00    +0.108 A 
ATOM      8  C   LIG    1      -18.700  78.417  32.722  0.00  0.00    +0.035 A 
ATOM      9  C   LIG    1      -19.262  79.020  33.852  0.00  0.00    +0.046 A 
ENDROOT
BRANCH   4  10
ATOM     10  C   LIG    1      -22.940  77.167  30.709  0.00  0.00    +0.165 A 
ATOM     11  N   LIG    1      -23.448  77.891  29.704  0.00  0.00    -0.153 NA
ATOM     12  N   LIG    1      -24.767  77.629  29.764  0.00  0.00    -0.245 N 
ATOM     13  H   LIG    1      -25.389  78.091  29.119  0.00  0.00    +0.192 HD
ATOM     14  C   LIG    1      -25.112  76.740  30.753  0.00  0.00    +0.213 A 
ATOM     15  C   LIG    1      -23.926  76.400  31.364  0.00  0.00    +0.115 A 
BRANCH  14  16
ATOM     16  O   LIG    1      -26.406  76.437  30.905  0.00  0.00    -0.474 OA
BRANCH  16  17
ATOM     17  C   LIG    1      -26.869  76.107  32.217  0.00  0.00    +0.169 C 
ATOM     18  C   LIG    1      -27.118  74.603  32.257  0.00  0.00    +0.051 C 
ATOM     19  C   LIG    1      -28.172  76.858  32.475  0.00  0.00    +0.051 C 
ENDBRANCH  16  17
ENDBRANCH  14  16
ENDBRANCH   4  10
BRANCH   1  20
ATOM     20  N   LIG    1      -21.126  79.581  35.247  0.00  0.00    -0.321 N 
ATOM     21  H   LIG    1      -20.696  79.146  36.060  0.00  0.00    +0.148 HD
BRANCH  20  22
ATOM     22  C   LIG    1      -21.152  81.048  35.363  0.00  0.00    +0.120 C 
BRANCH  22  23
ATOM     23  C   LIG    1      -20.454  81.502  36.657  0.00  0.00    +0.062 A 
ATOM     24  N   LIG    1      -19.612  80.632  37.287  0.00  0.00    -0.255 NA
ATOM     25  C   LIG    1      -19.073  81.032  38.468  0.00  0.00    +0.149 A 
ATOM     26  C   LIG    1      -19.321  82.262  39.051  0.00  0.00    +0.141 A 
ATOM     27  F   LIG    1      -18.772  82.590  40.228  0.00  0.00    -0.204 F 
ATOM     28  C   LIG    1      -20.146  83.154  38.391  0.00  0.00    +0.042 A 
ATOM     29  C   LIG    1      -20.714  82.777  37.173  0.00  0.00    +0.028 A 
ENDBRANCH  22  23
BRANCH  22  31
ATOM     30  C   LIG    1      -23.659  80.478  35.553  0.00  0.00    +0.006 C 
ATOM     31  C   LIG    1      -22.608  81.564  35.347  0.00  0.00    +0.025 C 
ENDBRANCH  22  31
ENDBRANCH  20  22
ENDBRANCH   1  20
TORSDOF 7
ENDMDL
MODEL 3
REMARK VINA RESULT:      -5.8     12.901     17.593
REMARK  Name = pdb/CHEMBL3659501.pdb
REMARK                            x       y       z     vdW  Elec       q    Type
REMARK                         _______ _______ _______ _____ _____    ______ ____
ROOT
ATOM      1  C   LIG    1      -37.647  76.017  25.345  0.00  0.00    +0.122 A 
ATOM      2  N   LIG    1      -38.124  77.261  25.109  0.00  0.00    -0.213 NA
ATOM      3  C   LIG    1      -39.344  77.298  24.525  0.00  0.00    +0.168 A 
ATOM      4  N   LIG    1      -40.070  78.402  24.108  0.00  0.00    -0.266 N 
ATOM      5  C   LIG    1      -41.249  77.903  23.585  0.00  0.00    +0.207 A 
ATOM      6  N   LIG    1      -41.315  76.590  23.611  0.00  0.00    -0.234 NA
ATOM      7  C   LIG    1      -40.130  76.205  24.175  0.00  0.00    +0.108 A 
ATOM      8  C   LIG    1      -39.625  74.930  24.427  0.00  0.00    +0.035 A 
ATOM      9  C   LIG    1      -38.360  74.853  25.021  0.00  0.00    +0.046 A 
ENDROOT
BRANCH   4  10
ATOM     10  C   LIG    1      -39.703  79.777  24.130  0.00  0.00    +0.165 A 
ATOM     11  N   LIG    1      -39.409  80.375  22.970  0.00  0.00    -0.153 NA
ATOM     12  N   LIG    1      -39.005  81.604  23.343  0.00  0.00    -0.245 N 
ATOM     13  H   LIG    1      -38.688  82.252  22.638  0.00  0.00    +0.192 HD
ATOM     14  C   LIG    1      -39.061  81.818  24.700  0.00  0.00    +0.213 A 
ATOM     15  C   LIG    1      -39.546  80.645  25.232  0.00  0.00    +0.115 A 
BRANCH  14  16
ATOM     16  O   LIG    1      -38.655  83.004  25.167  0.00  0.00    -0.474 OA
BRANCH  16  17
ATOM     17  C   LIG    1      -37.536  83.628  24.534  0.00  0.00    +0.169 C 
ATOM     18  C   LIG    1      -36.377  83.621  25.525  0.00  0.00    +0.051 C 
ATOM     19  C   LIG    1      -37.915  85.065  24.186  0.00  0.00    +0.051 C 
ENDBRANCH  16  17
ENDBRANCH  14  16
ENDBRANCH   4  10
BRANCH   1  20
ATOM     20  N   LIG    1      -36.422  75.851  26.011  0.00  0.00    -0.321 N 
ATOM     21  H   LIG    1      -35.633  76.090  25.413  0.00  0.00    +0.148 HD
BRANCH  20  22
ATOM     22  C   LIG    1      -36.285  76.434  27.354  0.00  0.00    +0.120 C 
BRANCH  22  23
ATOM     23  C   LIG    1      -34.960  77.209  27.477  0.00  0.00    +0.062 A 
ATOM     24  N   LIG    1      -35.007  78.553  27.712  0.00  0.00    -0.255 NA
ATOM     25  C   LIG    1      -33.825  79.223  27.737  0.00  0.00    +0.149 A 
ATOM     26  C   LIG    1      -32.595  78.620  27.548  0.00  0.00    +0.141 A 
ATOM     27  F   LIG    1      -31.465  79.339  27.565  0.00  0.00    -0.204 F 
ATOM     28  C   LIG    1      -32.550  77.252  27.345  0.00  0.00    +0.042 A 
ATOM     29  C   LIG    1      -33.746  76.533  27.318  0.00  0.00    +0.028 A 
ENDBRANCH  22  23
BRANCH  22  31
ATOM     30  C   LIG    1      -37.744  75.047  28.965  0.00  0.00    +0.006 C 
ATOM     31  C   LIG    1      -36.342  75.328  28.431  0.00  0.00    +0.025 C 
ENDBRANCH  22  31
ENDBRANCH  20  22
ENDBRANCH   1  20
TORSDOF 7
ENDMDL
MODEL 4
REMARK VINA RESULT:      -5.4     17.840     20.232
REMARK  Name = pdb/CHEMBL3659501.pdb
REMARK                            x       y       z     vdW  Elec       q    Type
REMARK                         _______ _______ _______ _____ _____    ______ ____
ROOT
ATOM      1  C   LIG    1      -34.828  66.980  22.761  0.00  0.00    +0.122 A 
ATOM      2  N   LIG    1      -33.913  67.033  21.765  0.00  0.00    -0.213 NA
ATOM      3  C   LIG    1      -33.851  65.924  20.993  0.00  0.00    +0.168 A 
ATOM      4  N   LIG    1      -32.992  65.647  19.942  0.00  0.00    -0.266 N 
ATOM      5  C   LIG    1      -33.344  64.391  19.486  0.00  0.00    +0.207 A 
ATOM      6  N   LIG    1      -34.324  63.844  20.172  0.00  0.00    -0.234 NA
ATOM      7  C   LIG    1      -34.633  64.780  21.121  0.00  0.00    +0.108 A 
ATOM      8  C   LIG    1      -35.572  64.742  22.151  0.00  0.00    +0.035 A 
ATOM      9  C   LIG    1      -35.656  65.868  22.976  0.00  0.00    +0.046 A 
ENDROOT
BRANCH   4  10
ATOM     10  C   LIG    1      -31.915  66.429  19.437  0.00  0.00    +0.165 A 
ATOM     11  N   LIG    1      -30.676  66.152  19.859  0.00  0.00    -0.153 NA
ATOM     12  N   LIG    1      -29.927  67.118  19.294  0.00  0.00    -0.245 N 
ATOM     13  H   LIG    1      -28.939  67.152  19.491  0.00  0.00    +0.192 HD
ATOM     14  C   LIG    1      -30.644  67.982  18.502  0.00  0.00    +0.213 A 
ATOM     15  C   LIG    1      -31.943  67.531  18.555  0.00  0.00    +0.115 A 
BRANCH  14  16
ATOM     16  O   LIG    1      -29.988  68.991  17.917  0.00  0.00    -0.474 OA
BRANCH  16  17
ATOM     17  C   LIG    1      -30.513  70.312  18.071  0.00  0.00    +0.169 C 
ATOM     18  C   LIG    1      -31.198  70.695  16.763  0.00  0.00    +0.051 C 
ATOM     19  C   LIG    1      -29.354  71.265  18.350  0.00  0.00    +0.051 C 
ENDBRANCH  16  17
ENDBRANCH  14  16
ENDBRANCH   4  10
BRANCH   1  20
ATOM     20  N   LIG    1      -35.032  68.099  23.585  0.00  0.00    -0.321 N 
ATOM     21  H   LIG    1      -34.988  68.968  23.057  0.00  0.00    +0.148 HD
BRANCH  20  22
ATOM     22  C   LIG    1      -36.181  68.076  24.504  0.00  0.00    +0.120 C 
BRANCH  22  23
ATOM     23  C   LIG    1      -37.022  69.357  24.352  0.00  0.00    +0.062 A 
ATOM     24  N   LIG    1      -36.490  70.542  24.769  0.00  0.00    -0.255 NA
ATOM     25  C   LIG    1      -37.285  71.642  24.696  0.00  0.00    +0.149 A 
ATOM     26  C   LIG    1      -38.582  71.623  24.217  0.00  0.00    +0.141 A 
ATOM     27  F   LIG    1      -39.322  72.739  24.187  0.00  0.00    -0.204 F 
ATOM     28  C   LIG    1      -39.105  70.426  23.762  0.00  0.00    +0.042 A 
ATOM     29  C   LIG    1      -38.313  69.277  23.819  0.00  0.00    +0.028 A 
ENDBRANCH  22  23
BRANCH  22  31
ATOM     30  C   LIG    1      -34.222  68.254  26.170  0.00  0.00    +0.006 C 
ATOM     31  C   LIG    1      -35.700  67.938  25.965  0.00  0.00    +0.025 C 
ENDBRANCH  22  31
ENDBRANCH  20  22
ENDBRANCH   1  20
TORSDOF 7
ENDMDL
MODEL 5
REMARK VINA RESULT:      -5.3     13.131     17.689
REMARK  Name = pdb/CHEMBL3659501.pdb
REMARK                            x       y       z     vdW  Elec       q    Type
REMARK                         _______ _______ _______ _____ _____    ______ ____
ROOT
ATOM      1  C   LIG    1      -37.991  75.434  25.075  0.00  0.00    +0.122 A 
ATOM      2  N   LIG    1      -37.953  74.086  24.952  0.00  0.00    -0.213 NA
ATOM      3  C   LIG    1      -39.071  73.535  24.426  0.00  0.00    +0.168 A 
ATOM      4  N   LIG    1      -39.363  72.195  24.226  0.00  0.00    -0.266 N 
ATOM      5  C   LIG    1      -40.621  72.164  23.656  0.00  0.00    +0.207 A 
ATOM      6  N   LIG    1      -41.155  73.357  23.506  0.00  0.00    -0.234 NA
ATOM      7  C   LIG    1      -40.208  74.212  23.998  0.00  0.00    +0.108 A 
ATOM      8  C   LIG    1      -40.230  75.601  24.130  0.00  0.00    +0.035 A 
ATOM      9  C   LIG    1      -39.095  76.204  24.681  0.00  0.00    +0.046 A 
ENDROOT
BRANCH   4  10
ATOM     10  C   LIG    1      -38.593  71.049  24.573  0.00  0.00    +0.165 A 
ATOM     11  N   LIG    1      -38.894  70.401  25.704  0.00  0.00    -0.153 NA
ATOM     12  N   LIG    1      -37.935  69.461  25.793  0.00  0.00    -0.245 N 
ATOM     13  H   LIG    1      -37.918  68.849  26.595  0.00  0.00    +0.192 HD
ATOM     14  C   LIG    1      -37.050  69.470  24.741  0.00  0.00    +0.213 A 
ATOM     15  C   LIG    1      -37.482  70.481  23.914  0.00  0.00    +0.115 A 
BRANCH  14  16
ATOM     16  O   LIG    1      -36.046  68.586  24.755  0.00  0.00    -0.474 OA
BRANCH  16  17
ATOM     17  C   LIG    1      -35.201  68.548  25.908  0.00  0.00    +0.169 C 
ATOM     18  C   LIG    1      -34.156  69.649  25.755  0.00  0.00    +0.051 C 
ATOM     19  C   LIG    1      -34.517  67.185  25.963  0.00  0.00    +0.051 C 
ENDBRANCH  16  17
ENDBRANCH  14  16
ENDBRANCH   4  10
BRANCH   1  20
ATOM     20  N   LIG    1      -36.862  76.126  25.544  0.00  0.00    -0.321 N 
ATOM     21  H   LIG    1      -36.678  76.962  24.994  0.00  0.00    +0.148 HD
BRANCH  20  22
ATOM     22  C   LIG    1      -36.768  76.391  26.988  0.00  0.00    +0.120 C 
BRANCH  22  23
ATOM     23  C   LIG    1      -35.410  77.026  27.335  0.00  0.00    +0.062 A 
ATOM     24  N   LIG    1      -35.359  78.365  27.592  0.00  0.00    -0.255 NA
ATOM     25  C   LIG    1      -34.136  78.911  27.818  0.00  0.00    +0.149 A 
ATOM     26  C   LIG    1      -32.957  78.187  27.811  0.00  0.00    +0.141 A 
ATOM     27  F   LIG    1      -31.778  78.787  28.023  0.00  0.00    -0.204 F 
ATOM     28  C   LIG    1      -33.017  76.824  27.586  0.00  0.00    +0.042 A 
ATOM     29  C   LIG    1      -34.259  76.230  27.354  0.00  0.00    +0.028 A 
ENDBRANCH  22  23
BRANCH  22  31
ATOM     30  C   LIG    1      -38.088  75.128  28.807  0.00  0.00    +0.006 C 
ATOM     31  C   LIG    1      -36.953  75.083  27.789  0.00  0.00    +0.025 C 
ENDBRANCH  22  31
ENDBRANCH  20  22
ENDBRANCH   1  20
TORSDOF 7
ENDMDL
MODEL 6
REMARK VINA RESULT:      -5.2     14.041     19.925
REMARK  Name = pdb/CHEMBL3659501.pdb
REMARK                            x       y       z     vdW  Elec       q    Type
REMARK                         _______ _______ _______ _____ _____    ______ ____
ROOT
ATOM      1  C   LIG    1      -39.357  71.951  24.324  0.00  0.00    +0.122 A 
ATOM      2  N   LIG    1      -38.726  72.953  24.981  0.00  0.00    -0.213 NA
ATOM      3  C   LIG    1      -39.314  74.165  24.864  0.00  0.00    +0.168 A 
ATOM      4  N   LIG    1      -38.889  75.386  25.363  0.00  0.00    -0.266 N 
ATOM      5  C   LIG    1      -39.843  76.307  24.975  0.00  0.00    +0.207 A 
ATOM      6  N   LIG    1      -40.811  75.781  24.256  0.00  0.00    -0.234 NA
ATOM      7  C   LIG    1      -40.482  74.457  24.166  0.00  0.00    +0.108 A 
ATOM      8  C   LIG    1      -41.121  73.413  23.496  0.00  0.00    +0.035 A 
ATOM      9  C   LIG    1      -40.534  72.147  23.587  0.00  0.00    +0.046 A 
ENDROOT
BRANCH   4  10
ATOM     10  C   LIG    1      -37.697  75.694  26.078  0.00  0.00    +0.165 A 
ATOM     11  N   LIG    1      -36.800  76.501  25.498  0.00  0.00    -0.153 NA
ATOM     12  N   LIG    1      -35.770  76.500  26.365  0.00  0.00    -0.245 N 
ATOM     13  H   LIG    1      -34.935  77.017  26.137  0.00  0.00    +0.192 HD
ATOM     14  C   LIG    1      -35.994  75.744  27.491  0.00  0.00    +0.213 A 
ATOM     15  C   LIG    1      -37.262  75.234  27.339  0.00  0.00    +0.115 A 
BRANCH  14  16
ATOM     16  O   LIG    1      -35.015  75.663  28.400  0.00  0.00    -0.474 OA
BRANCH  16  17
ATOM     17  C   LIG    1      -33.754  75.132  27.983  0.00  0.00    +0.169 C 
ATOM     18  C   LIG    1      -33.843  73.612  28.056  0.00  0.00    +0.051 C 
ATOM     19  C   LIG    1      -32.676  75.637  28.938  0.00  0.00    +0.051 C 
ENDBRANCH  16  17
ENDBRANCH  14  16
ENDBRANCH   4  10
BRANCH   1  20
ATOM     20  N   LIG    1      -38.879  70.635  24.429  0.00  0.00    -0.321 N 
ATOM     21  H   LIG    1      -39.543  69.962  24.053  0.00  0.00    +0.148 HD
BRANCH  20  22
ATOM     22  C   LIG    1      -37.507  70.363  23.973  0.00  0.00    +0.120 C 
BRANCH  22  23
ATOM     23  C   LIG    1      -37.512  69.343  22.819  0.00  0.00    +0.062 A 
ATOM     24  N   LIG    1      -36.394  68.589  22.608  0.00  0.00    -0.255 NA
ATOM     25  C   LIG    1      -36.400  67.756  21.534  0.00  0.00    +0.149 A 
ATOM     26  C   LIG    1      -37.468  67.627  20.665  0.00  0.00    +0.141 A 
ATOM     27  F   LIG    1      -37.404  66.800  19.613  0.00  0.00    -0.204 F 
ATOM     28  C   LIG    1      -38.611  68.367  20.905  0.00  0.00    +0.042 A 
ATOM     29  C   LIG    1      -38.641  69.231  22.001  0.00  0.00    +0.028 A 
ENDBRANCH  22  23
BRANCH  22  31
ATOM     30  C   LIG    1      -37.369  69.789  26.483  0.00  0.00    +0.006 C 
ATOM     31  C   LIG    1      -36.647  69.826  25.139  0.00  0.00    +0.025 C 
ENDBRANCH  22  31
ENDBRANCH  20  22
ENDBRANCH   1  20
TORSDOF 7
ENDMDL
MODEL 7
REMARK VINA RESULT:      -5.2      5.791      9.628
REMARK  Name = pdb/CHEMBL3659501.pdb
REMARK                            x       y       z     vdW  Elec       q    Type
REMARK                         _______ _______ _______ _____ _____    ______ ____
ROOT
ATOM      1  C   LIG    1      -26.074  72.585  31.519  0.00  0.00    +0.122 A 
ATOM      2  N   LIG    1      -25.437  73.758  31.295  0.00  0.00    -0.213 NA
ATOM      3  C   LIG    1      -26.142  74.860  31.642  0.00  0.00    +0.168 A 
ATOM      4  N   LIG    1      -25.797  76.192  31.487  0.00  0.00    -0.266 N 
ATOM      5  C   LIG    1      -26.851  76.919  32.006  0.00  0.00    +0.207 A 
ATOM      6  N   LIG    1      -27.836  76.166  32.446  0.00  0.00    -0.234 NA
ATOM      7  C   LIG    1      -27.413  74.887  32.207  0.00  0.00    +0.108 A 
ATOM      8  C   LIG    1      -28.054  73.669  32.434  0.00  0.00    +0.035 A 
ATOM      9  C   LIG    1      -27.359  72.510  32.076  0.00  0.00    +0.046 A 
ENDROOT
BRANCH   4  10
ATOM     10  C   LIG    1      -24.641  76.752  30.873  0.00  0.00    +0.165 A 
ATOM     11  N   LIG    1      -24.791  77.407  29.715  0.00  0.00    -0.153 NA
ATOM     12  N   LIG    1      -23.528  77.705  29.357  0.00  0.00    -0.245 N 
ATOM     13  H   LIG    1      -23.364  78.178  28.481  0.00  0.00    +0.192 HD
ATOM     14  C   LIG    1      -22.581  77.289  30.263  0.00  0.00    +0.213 A 
ATOM     15  C   LIG    1      -23.291  76.691  31.279  0.00  0.00    +0.115 A 
BRANCH  14  16
ATOM     16  O   LIG    1      -21.294  77.519  29.979  0.00  0.00    -0.474 OA
BRANCH  16  17
ATOM     17  C   LIG    1      -20.314  77.129  30.944  0.00  0.00    +0.169 C 
ATOM     18  C   LIG    1      -19.947  78.364  31.759  0.00  0.00    +0.051 C 
ATOM     19  C   LIG    1      -19.085  76.609  30.203  0.00  0.00    +0.051 C 
ENDBRANCH  16  17
ENDBRANCH  14  16
ENDBRANCH   4  10
BRANCH   1  20
ATOM     20  N   LIG    1      -25.415  71.371  31.264  0.00  0.00    -0.321 N 
ATOM     21  H   LIG    1      -25.981  70.748  30.692  0.00  0.00    +0.148 HD
BRANCH  20  22
ATOM     22  C   LIG    1      -24.022  71.430  30.795  0.00  0.00    +0.120 C 
BRANCH  22  23
ATOM     23  C   LIG    1      -23.756  70.331  29.750  0.00  0.00    +0.062 A 
ATOM     24  N   LIG    1      -24.695  70.102  28.787  0.00  0.00    -0.255 NA
ATOM     25  C   LIG    1      -24.468  69.074  27.927  0.00  0.00    +0.149 A 
ATOM     26  C   LIG    1      -23.345  68.268  27.971  0.00  0.00    +0.141 A 
ATOM     27  F   LIG    1      -23.188  67.258  27.106  0.00  0.00    -0.204 F 
ATOM     28  C   LIG    1      -22.379  68.527  28.926  0.00  0.00    +0.042 A 
ATOM     29  C   LIG    1      -22.579  69.578  29.823  0.00  0.00    +0.028 A 
ENDBRANCH  22  23
BRANCH  22  31
ATOM     30  C   LIG    1      -22.165  72.488  32.236  0.00  0.00    +0.006 C 
ATOM     31  C   LIG    1      -23.046  71.269  31.981  0.00  0.00    +0.025 C 
ENDBRANCH  22  31
ENDBRANCH  20  22
ENDBRANCH   1  20
TORSDOF 7
ENDMDL
MODEL 8
REMARK VINA RESULT:      -5.2     13.679     18.423
REMARK  Name = pdb/CHEMBL3659501.pdb
REMARK                            x       y       z     vdW  Elec       q    Type
REMARK                         _______ _______ _______ _____ _____    ______ ____
ROOT
ATOM      1  C   LIG    1      -38.684  77.549  25.190  0.00  0.00    +0.122 A 
ATOM      2  N   LIG    1      -37.618  77.129  25.911  0.00  0.00    -0.213 NA
ATOM      3  C   LIG    1      -37.322  77.898  26.984  0.00  0.00    +0.168 A 
ATOM      4  N   LIG    1      -36.271  77.769  27.877  0.00  0.00    -0.266 N 
ATOM      5  C   LIG    1      -36.423  78.795  28.790  0.00  0.00    +0.207 A 
ATOM      6  N   LIG    1      -37.455  79.570  28.535  0.00  0.00    -0.234 NA
ATOM      7  C   LIG    1      -38.008  79.032  27.406  0.00  0.00    +0.108 A 
ATOM      8  C   LIG    1      -39.106  79.450  26.654  0.00  0.00    +0.035 A 
ATOM      9  C   LIG    1      -39.434  78.685  25.530  0.00  0.00    +0.046 A 
ENDROOT
BRANCH   4  10
ATOM     10  C   LIG    1      -35.196  76.835  27.867  0.00  0.00    +0.165 A 
ATOM     11  N   LIG    1      -34.236  76.982  26.947  0.00  0.00    -0.153 NA
ATOM     12  N   LIG    1      -33.454  75.902  27.134  0.00  0.00    -0.245 N 
ATOM     13  H   LIG    1      -32.661  75.758  26.527  0.00  0.00    +0.192 HD
ATOM     14  C   LIG    1      -33.868  75.089  28.162  0.00  0.00    +0.213 A 
ATOM     15  C   LIG    1      -34.989  75.698  28.677  0.00  0.00    +0.115 A 
BRANCH  14  16
ATOM     16  O   LIG    1      -33.165  73.977  28.407  0.00  0.00    -0.474 OA
BRANCH  16  17
ATOM     17  C   LIG    1      -33.870  72.831  28.893  0.00  0.00    +0.169 C 
ATOM     18  C   LIG    1      -32.855  71.912  29.564  0.00  0.00    +0.051 C 
ATOM     19  C   LIG    1      -34.513  72.119  27.707  0.00  0.00    +0.051 C 
ENDBRANCH  16  17
ENDBRANCH  14  16
ENDBRANCH   4  10
BRANCH   1  20
ATOM     20  N   LIG    1      -39.130  76.793  24.094  0.00  0.00    -0.321 N 
ATOM     21  H   LIG    1      -38.392  76.200  23.720  0.00  0.00    +0.148 HD
BRANCH  20  22
ATOM     22  C   LIG    1      -40.399  76.063  24.232  0.00  0.00    +0.120 C 
BRANCH  22  23
ATOM     23  C   LIG    1      -40.157  74.543  24.198  0.00  0.00    +0.062 A 
ATOM     24  N   LIG    1      -38.990  74.055  24.709  0.00  0.00    -0.255 NA
ATOM     25  C   LIG    1      -38.770  72.719  24.594  0.00  0.00    +0.149 A 
ATOM     26  C   LIG    1      -39.661  71.840  24.004  0.00  0.00    +0.141 A 
ATOM     27  F   LIG    1      -39.377  70.535  23.904  0.00  0.00    -0.204 F 
ATOM     28  C   LIG    1      -40.858  72.334  23.519  0.00  0.00    +0.042 A 
ATOM     29  C   LIG    1      -41.118  73.702  23.625  0.00  0.00    +0.028 A 
ENDBRANCH  22  23
BRANCH  22  31
ATOM     30  C   LIG    1      -42.621  77.199  23.584  0.00  0.00    +0.006 C 
ATOM     31  C   LIG    1      -41.376  76.461  23.103  0.00  0.00    +0.025 C 
ENDBRANCH  22  31
ENDBRANCH  20  22
ENDBRANCH   1  20
TORSDOF 7
ENDMDL
MODEL 9
REMARK VINA RESULT:      -5.2      5.741      9.510
REMARK  Name = pdb/CHEMBL3659501.pdb
REMARK                            x       y       z     vdW  Elec       q    Type
REMARK                         _______ _______ _______ _____ _____    ______ ____
ROOT
ATOM      1  C   LIG    1      -25.359  73.472  31.319  0.00  0.00    +0.122 A 
ATOM      2  N   LIG    1      -24.361  74.352  31.067  0.00  0.00    -0.213 NA
ATOM      3  C   LIG    1      -24.688  75.650  31.261  0.00  0.00    +0.168 A 
ATOM      4  N   LIG    1      -23.917  76.779  31.040  0.00  0.00    -0.266 N 
ATOM      5  C   LIG    1      -24.707  77.854  31.400  0.00  0.00    +0.207 A 
ATOM      6  N   LIG    1      -25.910  77.504  31.800  0.00  0.00    -0.234 NA
ATOM      7  C   LIG    1      -25.914  76.140  31.700  0.00  0.00    +0.108 A 
ATOM      8  C   LIG    1      -26.931  75.221  31.956  0.00  0.00    +0.035 A 
ATOM      9  C   LIG    1      -26.631  73.869  31.755  0.00  0.00    +0.046 A 
ENDROOT
BRANCH   4  10
ATOM     10  C   LIG    1      -22.604  76.874  30.497  0.00  0.00    +0.165 A 
ATOM     11  N   LIG    1      -22.451  76.731  29.176  0.00  0.00    -0.153 NA
ATOM     12  N   LIG    1      -21.115  76.763  29.008  0.00  0.00    -0.245 N 
ATOM     13  H   LIG    1      -20.733  76.636  28.084  0.00  0.00    +0.192 HD
ATOM     14  C   LIG    1      -20.415  76.952  30.175  0.00  0.00    +0.213 A 
ATOM     15  C   LIG    1      -21.371  77.061  31.159  0.00  0.00    +0.115 A 
BRANCH  14  16
ATOM     16  O   LIG    1      -19.078  76.973  30.112  0.00  0.00    -0.474 OA
BRANCH  16  17
ATOM     17  C   LIG    1      -18.345  76.376  31.184  0.00  0.00    +0.169 C 
ATOM     18  C   LIG    1      -16.875  76.738  31.001  0.00  0.00    +0.051 C 
ATOM     19  C   LIG    1      -18.523  74.862  31.109  0.00  0.00    +0.051 C 
ENDBRANCH  16  17
ENDBRANCH  14  16
ENDBRANCH   4  10
BRANCH   1  20
ATOM     20  N   LIG    1      -25.118  72.092  31.220  0.00  0.00    -0.321 N 
ATOM     21  H   LIG    1      -25.753  71.645  30.562  0.00  0.00    +0.148 HD
BRANCH  20  22
ATOM     22  C   LIG    1      -23.729  71.649  31.026  0.00  0.00    +0.120 C 
BRANCH  22  23
ATOM     23  C   LIG    1      -23.670  70.466  30.042  0.00  0.00    +0.062 A 
ATOM     24  N   LIG    1      -22.542  69.699  30.007  0.00  0.00    -0.255 NA
ATOM     25  C   LIG    1      -22.488  68.712  29.075  0.00  0.00    +0.149 A 
ATOM     26  C   LIG    1      -23.507  68.443  28.179  0.00  0.00    +0.141 A 
ATOM     27  F   LIG    1      -23.386  67.467  27.270  0.00  0.00    -0.204 F 
ATOM     28  C   LIG    1      -24.663  69.201  28.241  0.00  0.00    +0.042 A 
ATOM     29  C   LIG    1      -24.753  70.220  29.190  0.00  0.00    +0.028 A 
ENDBRANCH  22  23
BRANCH  22  31
ATOM     30  C   LIG    1      -24.081  70.591  33.350  0.00  0.00    +0.006 C 
ATOM     31  C   LIG    1      -23.100  71.236  32.375  0.00  0.00    +0.025 C 
ENDBRANCH  22  31
ENDBRANCH  20  22
ENDBRANCH   1  20
TORSDOF 7
ENDMDL
