MODEL 1
REMARK VINA RESULT:      -7.3      0.000      0.000
REMARK  Name = pdb/CHEMBL3964965.pdb
REMARK                            x       y       z     vdW  Elec       q    Type
REMARK                         _______ _______ _______ _____ _____    ______ ____
ROOT
ATOM      1  C   LIG    1      -38.141  76.655  26.038  0.00  0.00    +0.149 A 
ATOM      2  N   LIG    1      -39.266  76.456  25.335  0.00  0.00    -0.160 NA
ATOM      3  N   LIG    1      -39.203  75.179  24.888  0.00  0.00    -0.218 N 
ATOM      4  C   LIG    1      -38.005  74.559  25.261  0.00  0.00    +0.129 A 
ATOM      5  C   LIG    1      -37.338  75.490  26.028  0.00  0.00    +0.078 A 
ENDROOT
BRANCH   3   6
ATOM      6  C   LIG    1      -40.295  74.657  24.141  0.00  0.00    +0.067 A 
ATOM      7  C   LIG    1      -41.312  75.520  23.704  0.00  0.00    +0.028 A 
ATOM      8  C   LIG    1      -42.427  75.010  23.032  0.00  0.00    +0.002 A 
ATOM      9  C   LIG    1      -42.534  73.641  22.796  0.00  0.00    +0.000 A 
ATOM     10  C   LIG    1      -41.516  72.784  23.204  0.00  0.00    +0.002 A 
ATOM     11  C   LIG    1      -40.405  73.291  23.879  0.00  0.00    +0.028 A 
ENDBRANCH   3   6
BRANCH   4  12
ATOM     12  N   LIG    1      -37.491  73.308  24.844  0.00  0.00    -0.266 N 
ATOM     13  H   LIG    1      -37.028  73.284  23.945  0.00  0.00    +0.157 HD
ATOM     14  C   LIG    1      -37.574  72.118  25.645  0.00  0.00    +0.251 C 
ATOM     15  O   LIG    1      -38.138  72.128  26.737  0.00  0.00    -0.270 OA
BRANCH  14  16
ATOM     16  C   LIG    1      -36.911  70.887  25.162  0.00  0.00    +0.056 A 
ATOM     17  C   LIG    1      -35.741  70.376  25.715  0.00  0.00    +0.054 A 
ATOM     18 CL   LIG    1      -34.734  71.268  26.782  0.00  0.00    -0.083 Cl
ATOM     19  C   LIG    1      -35.281  69.120  25.334  0.00  0.00    +0.041 A 
ATOM     20  C   LIG    1      -35.900  68.409  24.301  0.00  0.00    +0.052 A 
ATOM     21 CL   LIG    1      -35.305  66.802  24.062  0.00  0.00    -0.083 Cl
ATOM     22  C   LIG    1      -36.963  68.977  23.571  0.00  0.00    +0.022 A 
ATOM     23  C   LIG    1      -37.481  70.203  24.067  0.00  0.00    +0.026 A 
BRANCH  22  24
ATOM     24  C   LIG    1      -37.565  68.381  22.350  0.00  0.00    +0.107 A 
ATOM     25  C   LIG    1      -38.453  67.299  22.346  0.00  0.00    +0.149 A 
ATOM     26  F   LIG    1      -38.783  66.646  23.468  0.00  0.00    -0.203 F 
ATOM     27  C   LIG    1      -38.979  66.830  21.147  0.00  0.00    +0.042 A 
ATOM     28  C   LIG    1      -38.554  67.397  19.955  0.00  0.00    +0.023 A 
ATOM     29  C   LIG    1      -37.619  68.417  20.020  0.00  0.00    +0.111 A 
ATOM     30  N   LIG    1      -37.130  68.926  21.178  0.00  0.00    -0.252 NA
ENDBRANCH  22  24
ENDBRANCH  14  16
ENDBRANCH   4  12
BRANCH   1  31
ATOM     31  C   LIG    1      -37.825  77.943  26.658  0.00  0.00    +0.236 C 
ATOM     32  N   LIG    1      -36.712  78.100  27.273  0.00  0.00    -0.247 NA
BRANCH  31  33
ATOM     33  O   LIG    1      -38.768  78.893  26.503  0.00  0.00    -0.491 OA
ATOM     34  H   LIG    1      -38.451  79.668  26.029  0.00  0.00    +0.294 HD
ENDBRANCH  31  33
BRANCH  32  35
ATOM     35  C   LIG    1      -36.358  79.340  27.963  0.00  0.00    +0.168 C 
BRANCH  35  36
ATOM     36  C   LIG    1      -35.013  79.188  28.678  0.00  0.00    +0.168 C 
BRANCH  36  37
ATOM     37  N   LIG    1      -33.932  78.842  27.785  0.00  0.00    -0.250 N 
ATOM     38  N   LIG    1      -33.516  79.709  26.846  0.00  0.00    -0.066 NA
ATOM     39  N   LIG    1      -32.539  79.120  26.169  0.00  0.00    -0.138 NA
ATOM     40  C   LIG    1      -32.360  77.869  26.686  0.00  0.00    +0.156 A 
ATOM     41  C   LIG    1      -33.247  77.666  27.714  0.00  0.00    +0.130 A 
ENDBRANCH  36  37
ENDBRANCH  35  36
ENDBRANCH  32  35
ENDBRANCH   1  31
TORSDOF 9
ENDMDL
MODEL 2
REMARK VINA RESULT:      -7.1      6.634     12.387
REMARK  Name = pdb/CHEMBL3964965.pdb
REMARK                            x       y       z     vdW  Elec       q    Type
REMARK                         _______ _______ _______ _____ _____    ______ ____
ROOT
ATOM      1  C   LIG    1      -33.418  73.522  28.330  0.00  0.00    +0.149 A 
ATOM      2  N   LIG    1      -33.814  74.753  27.973  0.00  0.00    -0.160 NA
ATOM      3  N   LIG    1      -32.888  75.602  28.481  0.00  0.00    -0.218 N 
ATOM      4  C   LIG    1      -31.910  74.922  29.215  0.00  0.00    +0.129 A 
ATOM      5  C   LIG    1      -32.226  73.586  29.090  0.00  0.00    +0.078 A 
ENDROOT
BRANCH   3   6
ATOM      6  C   LIG    1      -33.016  76.995  28.220  0.00  0.00    +0.067 A 
ATOM      7  C   LIG    1      -33.857  77.777  29.026  0.00  0.00    +0.028 A 
ATOM      8  C   LIG    1      -34.047  79.132  28.737  0.00  0.00    +0.002 A 
ATOM      9  C   LIG    1      -33.404  79.710  27.645  0.00  0.00    +0.000 A 
ATOM     10  C   LIG    1      -32.549  78.945  26.858  0.00  0.00    +0.002 A 
ATOM     11  C   LIG    1      -32.361  77.592  27.143  0.00  0.00    +0.028 A 
ENDBRANCH   3   6
BRANCH   4  12
ATOM     12  N   LIG    1      -30.890  75.457  30.035  0.00  0.00    -0.266 N 
ATOM     13  H   LIG    1      -30.086  75.849  29.563  0.00  0.00    +0.157 HD
ATOM     14  C   LIG    1      -30.970  75.489  31.470  0.00  0.00    +0.251 C 
ATOM     15  O   LIG    1      -31.937  75.012  32.060  0.00  0.00    -0.270 OA
BRANCH  14  16
ATOM     16  C   LIG    1      -29.896  76.166  32.228  0.00  0.00    +0.056 A 
ATOM     17  C   LIG    1      -30.104  76.816  33.442  0.00  0.00    +0.054 A 
ATOM     18 CL   LIG    1      -31.661  77.216  34.043  0.00  0.00    -0.083 Cl
ATOM     19  C   LIG    1      -29.018  77.266  34.186  0.00  0.00    +0.041 A 
ATOM     20  C   LIG    1      -27.717  77.198  33.676  0.00  0.00    +0.052 A 
ATOM     21 CL   LIG    1      -26.472  77.649  34.789  0.00  0.00    -0.083 Cl
ATOM     22  C   LIG    1      -27.480  76.736  32.366  0.00  0.00    +0.022 A 
ATOM     23  C   LIG    1      -28.593  76.175  31.686  0.00  0.00    +0.026 A 
BRANCH  22  24
ATOM     24  C   LIG    1      -26.166  76.793  31.674  0.00  0.00    +0.107 A 
ATOM     25  C   LIG    1      -25.176  75.807  31.763  0.00  0.00    +0.149 A 
ATOM     26  F   LIG    1      -25.305  74.740  32.561  0.00  0.00    -0.203 F 
ATOM     27  C   LIG    1      -23.987  75.946  31.056  0.00  0.00    +0.042 A 
ATOM     28  C   LIG    1      -23.765  77.103  30.326  0.00  0.00    +0.023 A 
ATOM     29  C   LIG    1      -24.753  78.073  30.334  0.00  0.00    +0.111 A 
ATOM     30  N   LIG    1      -25.941  77.941  30.974  0.00  0.00    -0.252 NA
ENDBRANCH  22  24
ENDBRANCH  14  16
ENDBRANCH   4  12
BRANCH   1  31
ATOM     31  C   LIG    1      -34.191  72.325  27.992  0.00  0.00    +0.236 C 
ATOM     32  N   LIG    1      -33.821  71.180  28.434  0.00  0.00    -0.247 NA
BRANCH  31  33
ATOM     33  O   LIG    1      -35.277  72.549  27.228  0.00  0.00    -0.491 OA
ATOM     34  H   LIG    1      -35.429  73.481  27.046  0.00  0.00    +0.294 HD
ENDBRANCH  31  33
BRANCH  32  35
ATOM     35  C   LIG    1      -34.512  69.938  28.088  0.00  0.00    +0.168 C 
BRANCH  35  36
ATOM     36  C   LIG    1      -33.585  69.015  27.295  0.00  0.00    +0.168 C 
BRANCH  36  37
ATOM     37  N   LIG    1      -34.189  68.510  26.083  0.00  0.00    -0.250 N 
ATOM     38  N   LIG    1      -34.259  69.277  24.983  0.00  0.00    -0.066 NA
ATOM     39  N   LIG    1      -34.876  68.569  24.046  0.00  0.00    -0.138 NA
ATOM     40  C   LIG    1      -35.203  67.355  24.579  0.00  0.00    +0.156 A 
ATOM     41  C   LIG    1      -34.783  67.299  25.885  0.00  0.00    +0.130 A 
ENDBRANCH  36  37
ENDBRANCH  35  36
ENDBRANCH  32  35
ENDBRANCH   1  31
TORSDOF 9
ENDMDL
MODEL 3
REMARK VINA RESULT:      -6.9      1.156      1.518
REMARK  Name = pdb/CHEMBL3964965.pdb
REMARK                            x       y       z     vdW  Elec       q    Type
REMARK                         _______ _______ _______ _____ _____    ______ ____
ROOT
ATOM      1  C   LIG    1      -38.359  76.646  25.807  0.00  0.00    +0.149 A 
ATOM      2  N   LIG    1      -39.440  76.247  25.122  0.00  0.00    -0.160 NA
ATOM      3  N   LIG    1      -39.246  74.933  24.855  0.00  0.00    -0.218 N 
ATOM      4  C   LIG    1      -38.006  74.488  25.326  0.00  0.00    +0.129 A 
ATOM      5  C   LIG    1      -37.450  75.574  25.968  0.00  0.00    +0.078 A 
ENDROOT
BRANCH   3   6
ATOM      6  C   LIG    1      -40.264  74.212  24.171  0.00  0.00    +0.067 A 
ATOM      7  C   LIG    1      -40.142  72.822  24.013  0.00  0.00    +0.028 A 
ATOM      8  C   LIG    1      -41.097  72.111  23.281  0.00  0.00    +0.002 A 
ATOM      9  C   LIG    1      -42.175  72.780  22.704  0.00  0.00    +0.000 A 
ATOM     10  C   LIG    1      -42.314  74.153  22.880  0.00  0.00    +0.002 A 
ATOM     11  C   LIG    1      -41.359  74.866  23.606  0.00  0.00    +0.028 A 
ENDBRANCH   3   6
BRANCH   4  12
ATOM     12  N   LIG    1      -37.365  73.248  25.093  0.00  0.00    -0.266 N 
ATOM     13  H   LIG    1      -36.853  73.157  24.225  0.00  0.00    +0.157 HD
ATOM     14  C   LIG    1      -37.391  72.161  26.031  0.00  0.00    +0.251 C 
ATOM     15  O   LIG    1      -38.013  72.251  27.087  0.00  0.00    -0.270 OA
BRANCH  14  16
ATOM     16  C   LIG    1      -36.601  70.945  25.736  0.00  0.00    +0.056 A 
ATOM     17  C   LIG    1      -35.400  70.637  26.368  0.00  0.00    +0.054 A 
ATOM     18 CL   LIG    1      -34.510  71.766  27.306  0.00  0.00    -0.083 Cl
ATOM     19  C   LIG    1      -34.812  69.391  26.176  0.00  0.00    +0.041 A 
ATOM     20  C   LIG    1      -35.335  68.483  25.248  0.00  0.00    +0.052 A 
ATOM     21 CL   LIG    1      -34.582  66.926  25.248  0.00  0.00    -0.083 Cl
ATOM     22  C   LIG    1      -36.430  68.834  24.435  0.00  0.00    +0.022 A 
ATOM     23  C   LIG    1      -37.076  70.060  24.745  0.00  0.00    +0.026 A 
BRANCH  22  24
ATOM     24  C   LIG    1      -36.942  68.014  23.306  0.00  0.00    +0.107 A 
ATOM     25  C   LIG    1      -36.158  67.530  22.253  0.00  0.00    +0.149 A 
ATOM     26  F   LIG    1      -34.860  67.839  22.133  0.00  0.00    -0.203 F 
ATOM     27  C   LIG    1      -36.732  66.752  21.254  0.00  0.00    +0.042 A 
ATOM     28  C   LIG    1      -38.100  66.526  21.275  0.00  0.00    +0.023 A 
ATOM     29  C   LIG    1      -38.833  67.090  22.305  0.00  0.00    +0.111 A 
ATOM     30  N   LIG    1      -38.291  67.811  23.318  0.00  0.00    -0.252 NA
ENDBRANCH  22  24
ENDBRANCH  14  16
ENDBRANCH   4  12
BRANCH   1  31
ATOM     31  C   LIG    1      -38.182  78.032  26.248  0.00  0.00    +0.236 C 
ATOM     32  N   LIG    1      -37.241  78.326  27.066  0.00  0.00    -0.247 NA
BRANCH  31  33
ATOM     33  O   LIG    1      -39.052  78.912  25.716  0.00  0.00    -0.491 OA
ATOM     34  H   LIG    1      -39.082  79.749  26.188  0.00  0.00    +0.294 HD
ENDBRANCH  31  33
BRANCH  32  35
ATOM     35  C   LIG    1      -37.044  79.676  27.592  0.00  0.00    +0.168 C 
BRANCH  35  36
ATOM     36  C   LIG    1      -35.881  79.698  28.587  0.00  0.00    +0.168 C 
BRANCH  36  37
ATOM     37  N   LIG    1      -34.617  79.335  27.990  0.00  0.00    -0.250 N 
ATOM     38  N   LIG    1      -34.077  80.091  27.020  0.00  0.00    -0.066 NA
ATOM     39  N   LIG    1      -32.943  79.511  26.651  0.00  0.00    -0.138 NA
ATOM     40  C   LIG    1      -32.788  78.375  27.393  0.00  0.00    +0.156 A 
ATOM     41  C   LIG    1      -33.853  78.236  28.248  0.00  0.00    +0.130 A 
ENDBRANCH  36  37
ENDBRANCH  35  36
ENDBRANCH  32  35
ENDBRANCH   1  31
TORSDOF 9
ENDMDL
MODEL 4
REMARK VINA RESULT:      -6.8      4.774      8.404
REMARK  Name = pdb/CHEMBL3964965.pdb
REMARK                            x       y       z     vdW  Elec       q    Type
REMARK                         _______ _______ _______ _____ _____    ______ ____
ROOT
ATOM      1  C   LIG    1      -31.886  74.142  29.587  0.00  0.00    +0.149 A 
ATOM      2  N   LIG    1      -31.789  75.464  29.388  0.00  0.00    -0.160 NA
ATOM      3  N   LIG    1      -32.849  75.802  28.616  0.00  0.00    -0.218 N 
ATOM      4  C   LIG    1      -33.614  74.683  28.269  0.00  0.00    +0.129 A 
ATOM      5  C   LIG    1      -33.020  73.622  28.918  0.00  0.00    +0.078 A 
ENDROOT
BRANCH   3   6
ATOM      6  C   LIG    1      -33.045  77.170  28.275  0.00  0.00    +0.067 A 
ATOM      7  C   LIG    1      -33.971  77.939  28.997  0.00  0.00    +0.028 A 
ATOM      8  C   LIG    1      -34.226  79.262  28.627  0.00  0.00    +0.002 A 
ATOM      9  C   LIG    1      -33.562  79.823  27.537  0.00  0.00    +0.000 A 
ATOM     10  C   LIG    1      -32.624  79.073  26.835  0.00  0.00    +0.002 A 
ATOM     11  C   LIG    1      -32.372  77.750  27.200  0.00  0.00    +0.028 A 
ENDBRANCH   3   6
BRANCH   4  12
ATOM     12  N   LIG    1      -34.681  74.594  27.345  0.00  0.00    -0.266 N 
ATOM     13  H   LIG    1      -34.448  74.715  26.368  0.00  0.00    +0.157 HD
ATOM     14  C   LIG    1      -36.036  74.315  27.733  0.00  0.00    +0.251 C 
ATOM     15  O   LIG    1      -36.339  74.171  28.915  0.00  0.00    -0.270 OA
BRANCH  14  16
ATOM     16  C   LIG    1      -37.058  74.139  26.677  0.00  0.00    +0.056 A 
ATOM     17  C   LIG    1      -37.354  72.912  26.090  0.00  0.00    +0.054 A 
ATOM     18 CL   LIG    1      -36.359  71.523  26.255  0.00  0.00    -0.083 Cl
ATOM     19  C   LIG    1      -38.451  72.792  25.243  0.00  0.00    +0.041 A 
ATOM     20  C   LIG    1      -39.191  73.916  24.859  0.00  0.00    +0.052 A 
ATOM     21 CL   LIG    1      -40.612  73.572  23.935  0.00  0.00    -0.083 Cl
ATOM     22  C   LIG    1      -38.802  75.208  25.264  0.00  0.00    +0.022 A 
ATOM     23  C   LIG    1      -37.756  75.278  26.223  0.00  0.00    +0.026 A 
BRANCH  22  24
ATOM     24  C   LIG    1      -39.412  76.469  24.768  0.00  0.00    +0.107 A 
ATOM     25  C   LIG    1      -38.786  77.365  23.893  0.00  0.00    +0.149 A 
ATOM     26  F   LIG    1      -37.523  77.193  23.482  0.00  0.00    -0.203 F 
ATOM     27  C   LIG    1      -39.453  78.510  23.471  0.00  0.00    +0.042 A 
ATOM     28  C   LIG    1      -40.711  78.788  23.984  0.00  0.00    +0.023 A 
ATOM     29  C   LIG    1      -41.247  77.899  24.900  0.00  0.00    +0.111 A 
ATOM     30  N   LIG    1      -40.639  76.751  25.290  0.00  0.00    -0.252 NA
ENDBRANCH  22  24
ENDBRANCH  14  16
ENDBRANCH   4  12
BRANCH   1  31
ATOM     31  C   LIG    1      -30.889  73.392  30.354  0.00  0.00    +0.236 C 
ATOM     32  N   LIG    1      -30.578  73.770  31.538  0.00  0.00    -0.247 NA
BRANCH  31  33
ATOM     33  O   LIG    1      -30.381  72.315  29.724  0.00  0.00    -0.491 OA
ATOM     34  H   LIG    1      -30.098  72.501  28.823  0.00  0.00    +0.294 HD
ENDBRANCH  31  33
BRANCH  32  35
ATOM     35  C   LIG    1      -29.550  73.103  32.337  0.00  0.00    +0.168 C 
BRANCH  35  36
ATOM     36  C   LIG    1      -28.190  73.770  32.122  0.00  0.00    +0.168 C 
BRANCH  36  37
ATOM     37  N   LIG    1      -28.213  75.195  32.356  0.00  0.00    -0.250 N 
ATOM     38  N   LIG    1      -28.015  76.057  31.345  0.00  0.00    -0.066 NA
ATOM     39  N   LIG    1      -28.069  77.282  31.853  0.00  0.00    -0.138 NA
ATOM     40  C   LIG    1      -28.289  77.173  33.197  0.00  0.00    +0.156 A 
ATOM     41  C   LIG    1      -28.373  75.847  33.542  0.00  0.00    +0.130 A 
ENDBRANCH  36  37
ENDBRANCH  35  36
ENDBRANCH  32  35
ENDBRANCH   1  31
TORSDOF 9
ENDMDL
MODEL 5
REMARK VINA RESULT:      -6.7      3.914      5.408
REMARK  Name = pdb/CHEMBL3964965.pdb
REMARK                            x       y       z     vdW  Elec       q    Type
REMARK                         _______ _______ _______ _____ _____    ______ ____
ROOT
ATOM      1  C   LIG    1      -34.924  78.440  27.790  0.00  0.00    +0.149 A 
ATOM      2  N   LIG    1      -36.021  77.996  27.159  0.00  0.00    -0.160 NA
ATOM      3  N   LIG    1      -35.938  76.645  27.175  0.00  0.00    -0.218 N 
ATOM      4  C   LIG    1      -34.753  76.207  27.779  0.00  0.00    +0.129 A 
ATOM      5  C   LIG    1      -34.118  77.353  28.205  0.00  0.00    +0.078 A 
ENDROOT
BRANCH   3   6
ATOM      6  C   LIG    1      -37.000  75.882  26.614  0.00  0.00    +0.067 A 
ATOM      7  C   LIG    1      -37.685  74.954  27.413  0.00  0.00    +0.028 A 
ATOM      8  C   LIG    1      -38.681  74.147  26.857  0.00  0.00    +0.002 A 
ATOM      9  C   LIG    1      -38.997  74.260  25.505  0.00  0.00    +0.000 A 
ATOM     10  C   LIG    1      -38.340  75.197  24.714  0.00  0.00    +0.002 A 
ATOM     11  C   LIG    1      -37.341  76.001  25.267  0.00  0.00    +0.028 A 
ENDBRANCH   3   6
BRANCH   4  12
ATOM     12  N   LIG    1      -34.220  74.897  27.832  0.00  0.00    -0.266 N 
ATOM     13  H   LIG    1      -33.664  74.601  27.041  0.00  0.00    +0.157 HD
ATOM     14  C   LIG    1      -34.411  74.016  28.950  0.00  0.00    +0.251 C 
ATOM     15  O   LIG    1      -35.089  74.357  29.917  0.00  0.00    -0.270 OA
BRANCH  14  16
ATOM     16  C   LIG    1      -33.723  72.706  28.950  0.00  0.00    +0.056 A 
ATOM     17  C   LIG    1      -32.450  72.507  29.475  0.00  0.00    +0.054 A 
ATOM     18 CL   LIG    1      -31.381  73.790  29.873  0.00  0.00    -0.083 Cl
ATOM     19  C   LIG    1      -31.946  71.217  29.610  0.00  0.00    +0.041 A 
ATOM     20  C   LIG    1      -32.642  70.115  29.101  0.00  0.00    +0.052 A 
ATOM     21 CL   LIG    1      -31.957  68.576  29.491  0.00  0.00    -0.083 Cl
ATOM     22  C   LIG    1      -33.838  70.289  28.378  0.00  0.00    +0.022 A 
ATOM     23  C   LIG    1      -34.381  71.602  28.368  0.00  0.00    +0.026 A 
BRANCH  22  24
ATOM     24  C   LIG    1      -34.553  69.208  27.650  0.00  0.00    +0.107 A 
ATOM     25  C   LIG    1      -34.334  68.871  26.310  0.00  0.00    +0.149 A 
ATOM     26  F   LIG    1      -33.495  69.565  25.530  0.00  0.00    -0.203 F 
ATOM     27  C   LIG    1      -35.042  67.825  25.728  0.00  0.00    +0.042 A 
ATOM     28  C   LIG    1      -36.015  67.173  26.468  0.00  0.00    +0.023 A 
ATOM     29  C   LIG    1      -36.234  67.599  27.767  0.00  0.00    +0.111 A 
ATOM     30  N   LIG    1      -35.525  68.582  28.374  0.00  0.00    -0.252 NA
ENDBRANCH  22  24
ENDBRANCH  14  16
ENDBRANCH   4  12
BRANCH   1  31
ATOM     31  C   LIG    1      -34.635  79.867  27.943  0.00  0.00    +0.236 C 
ATOM     32  N   LIG    1      -35.045  80.494  28.983  0.00  0.00    -0.247 NA
BRANCH  31  33
ATOM     33  O   LIG    1      -33.917  80.411  26.941  0.00  0.00    -0.491 OA
ATOM     34  H   LIG    1      -33.497  79.756  26.377  0.00  0.00    +0.294 HD
ENDBRANCH  31  33
BRANCH  32  35
ATOM     35  C   LIG    1      -34.842  81.930  29.173  0.00  0.00    +0.168 C 
BRANCH  35  36
ATOM     36  C   LIG    1      -36.111  82.702  28.806  0.00  0.00    +0.168 C 
BRANCH  36  37
ATOM     37  N   LIG    1      -36.002  83.408  27.551  0.00  0.00    -0.250 N 
ATOM     38  N   LIG    1      -35.946  82.734  26.390  0.00  0.00    -0.066 NA
ATOM     39  N   LIG    1      -35.827  83.629  25.418  0.00  0.00    -0.138 NA
ATOM     40  C   LIG    1      -35.797  84.870  25.987  0.00  0.00    +0.156 A 
ATOM     41  C   LIG    1      -35.896  84.752  27.351  0.00  0.00    +0.130 A 
ENDBRANCH  36  37
ENDBRANCH  35  36
ENDBRANCH  32  35
ENDBRANCH   1  31
TORSDOF 9
ENDMDL
MODEL 6
REMARK VINA RESULT:      -6.7      2.331      3.813
REMARK  Name = pdb/CHEMBL3964965.pdb
REMARK                            x       y       z     vdW  Elec       q    Type
REMARK                         _______ _______ _______ _____ _____    ______ ____
ROOT
ATOM      1  C   LIG    1      -37.707  77.220  26.947  0.00  0.00    +0.149 A 
ATOM      2  N   LIG    1      -38.748  77.175  26.103  0.00  0.00    -0.160 NA
ATOM      3  N   LIG    1      -38.785  75.908  25.627  0.00  0.00    -0.218 N 
ATOM      4  C   LIG    1      -37.732  75.136  26.129  0.00  0.00    +0.129 A 
ATOM      5  C   LIG    1      -37.060  75.963  27.003  0.00  0.00    +0.078 A 
ENDROOT
BRANCH   3   6
ATOM      6  C   LIG    1      -39.828  75.539  24.732  0.00  0.00    +0.067 A 
ATOM      7  C   LIG    1      -40.484  76.529  23.985  0.00  0.00    +0.028 A 
ATOM      8  C   LIG    1      -41.558  76.191  23.157  0.00  0.00    +0.002 A 
ATOM      9  C   LIG    1      -41.984  74.867  23.072  0.00  0.00    +0.000 A 
ATOM     10  C   LIG    1      -41.320  73.877  23.791  0.00  0.00    +0.002 A 
ATOM     11  C   LIG    1      -40.251  74.214  24.621  0.00  0.00    +0.028 A 
ENDBRANCH   3   6
BRANCH   4  12
ATOM     12  N   LIG    1      -37.326  73.836  25.742  0.00  0.00    -0.266 N 
ATOM     13  H   LIG    1      -36.763  73.767  24.906  0.00  0.00    +0.157 HD
ATOM     14  C   LIG    1      -37.652  72.655  26.493  0.00  0.00    +0.251 C 
ATOM     15  O   LIG    1      -38.341  72.721  27.508  0.00  0.00    -0.270 OA
BRANCH  14  16
ATOM     16  C   LIG    1      -37.090  71.358  26.059  0.00  0.00    +0.056 A 
ATOM     17  C   LIG    1      -37.496  70.691  24.907  0.00  0.00    +0.054 A 
ATOM     18 CL   LIG    1      -38.917  71.096  24.033  0.00  0.00    -0.083 Cl
ATOM     19  C   LIG    1      -36.794  69.574  24.464  0.00  0.00    +0.041 A 
ATOM     20  C   LIG    1      -35.762  69.022  25.230  0.00  0.00    +0.052 A 
ATOM     21 CL   LIG    1      -34.891  67.738  24.465  0.00  0.00    -0.083 Cl
ATOM     22  C   LIG    1      -35.452  69.541  26.503  0.00  0.00    +0.022 A 
ATOM     23  C   LIG    1      -36.104  70.750  26.864  0.00  0.00    +0.026 A 
BRANCH  22  24
ATOM     24  C   LIG    1      -34.502  68.919  27.461  0.00  0.00    +0.107 A 
ATOM     25  C   LIG    1      -34.629  67.628  27.985  0.00  0.00    +0.149 A 
ATOM     26  F   LIG    1      -35.688  66.853  27.717  0.00  0.00    -0.203 F 
ATOM     27  C   LIG    1      -33.670  67.131  28.861  0.00  0.00    +0.042 A 
ATOM     28  C   LIG    1      -32.632  67.955  29.265  0.00  0.00    +0.023 A 
ATOM     29  C   LIG    1      -32.599  69.247  28.767  0.00  0.00    +0.111 A 
ATOM     30  N   LIG    1      -33.493  69.739  27.874  0.00  0.00    -0.252 NA
ENDBRANCH  22  24
ENDBRANCH  14  16
ENDBRANCH   4  12
BRANCH   1  31
ATOM     31  C   LIG    1      -37.318  78.449  27.642  0.00  0.00    +0.236 C 
ATOM     32  N   LIG    1      -36.112  78.875  27.557  0.00  0.00    -0.247 NA
BRANCH  31  33
ATOM     33  O   LIG    1      -38.310  79.055  28.322  0.00  0.00    -0.491 OA
ATOM     34  H   LIG    1      -38.090  79.226  29.242  0.00  0.00    +0.294 HD
ENDBRANCH  31  33
BRANCH  32  35
ATOM     35  C   LIG    1      -35.641  80.062  28.271  0.00  0.00    +0.168 C 
BRANCH  35  36
ATOM     36  C   LIG    1      -34.209  79.853  28.767  0.00  0.00    +0.168 C 
BRANCH  36  37
ATOM     37  N   LIG    1      -33.394  79.096  27.846  0.00  0.00    -0.250 N 
ATOM     38  N   LIG    1      -33.182  79.540  26.596  0.00  0.00    -0.066 NA
ATOM     39  N   LIG    1      -32.427  78.640  25.979  0.00  0.00    -0.138 NA
ATOM     40  C   LIG    1      -32.181  77.622  26.855  0.00  0.00    +0.156 A 
ATOM     41  C   LIG    1      -32.799  77.886  28.052  0.00  0.00    +0.130 A 
ENDBRANCH  36  37
ENDBRANCH  35  36
ENDBRANCH  32  35
ENDBRANCH   1  31
TORSDOF 9
ENDMDL
MODEL 7
REMARK VINA RESULT:      -6.6     17.178     20.356
REMARK  Name = pdb/CHEMBL3964965.pdb
REMARK                            x       y       z     vdW  Elec       q    Type
REMARK                         _______ _______ _______ _____ _____    ______ ____
ROOT
ATOM      1  C   LIG    1      -22.092  82.783  15.336  0.00  0.00    +0.149 A 
ATOM      2  N   LIG    1      -20.808  82.406  15.422  0.00  0.00    -0.160 NA
ATOM      3  N   LIG    1      -20.815  81.053  15.382  0.00  0.00    -0.218 N 
ATOM      4  C   LIG    1      -22.117  80.544  15.318  0.00  0.00    +0.129 A 
ATOM      5  C   LIG    1      -22.936  81.650  15.253  0.00  0.00    +0.078 A 
ENDROOT
BRANCH   3   6
ATOM      6  C   LIG    1      -19.574  80.357  15.405  0.00  0.00    +0.067 A 
ATOM      7  C   LIG    1      -19.400  79.278  16.286  0.00  0.00    +0.028 A 
ATOM      8  C   LIG    1      -18.164  78.632  16.372  0.00  0.00    +0.002 A 
ATOM      9  C   LIG    1      -17.097  79.058  15.584  0.00  0.00    +0.000 A 
ATOM     10  C   LIG    1      -17.271  80.111  14.691  0.00  0.00    +0.002 A 
ATOM     11  C   LIG    1      -18.503  80.760  14.607  0.00  0.00    +0.028 A 
ENDBRANCH   3   6
BRANCH   4  12
ATOM     12  N   LIG    1      -22.547  79.201  15.438  0.00  0.00    -0.266 N 
ATOM     13  H   LIG    1      -22.992  78.943  16.308  0.00  0.00    +0.157 HD
ATOM     14  C   LIG    1      -22.407  78.234  14.384  0.00  0.00    +0.251 C 
ATOM     15  O   LIG    1      -21.864  78.530  13.322  0.00  0.00    -0.270 OA
BRANCH  14  16
ATOM     16  C   LIG    1      -22.986  76.886  14.574  0.00  0.00    +0.056 A 
ATOM     17  C   LIG    1      -24.093  76.419  13.872  0.00  0.00    +0.054 A 
ATOM     18 CL   LIG    1      -25.132  77.439  12.961  0.00  0.00    -0.083 Cl
ATOM     19  C   LIG    1      -24.464  75.082  13.965  0.00  0.00    +0.041 A 
ATOM     20  C   LIG    1      -23.825  74.218  14.862  0.00  0.00    +0.052 A 
ATOM     21 CL   LIG    1      -24.298  72.559  14.739  0.00  0.00    -0.083 Cl
ATOM     22  C   LIG    1      -22.835  74.696  15.742  0.00  0.00    +0.022 A 
ATOM     23  C   LIG    1      -22.400  76.032  15.532  0.00  0.00    +0.026 A 
BRANCH  22  24
ATOM     24  C   LIG    1      -22.229  73.905  16.844  0.00  0.00    +0.107 A 
ATOM     25  C   LIG    1      -20.908  73.442  16.858  0.00  0.00    +0.149 A 
ATOM     26  F   LIG    1      -20.083  73.613  15.817  0.00  0.00    -0.203 F 
ATOM     27  C   LIG    1      -20.430  72.726  17.951  0.00  0.00    +0.042 A 
ATOM     28  C   LIG    1      -21.297  72.415  18.987  0.00  0.00    +0.023 A 
ATOM     29  C   LIG    1      -22.611  72.840  18.882  0.00  0.00    +0.111 A 
ATOM     30  N   LIG    1      -23.089  73.582  17.852  0.00  0.00    -0.252 NA
ENDBRANCH  22  24
ENDBRANCH  14  16
ENDBRANCH   4  12
BRANCH   1  31
ATOM     31  C   LIG    1      -22.498  84.189  15.383  0.00  0.00    +0.236 C 
ATOM     32  N   LIG    1      -22.360  84.929  14.346  0.00  0.00    -0.247 NA
BRANCH  31  33
ATOM     33  O   LIG    1      -23.020  84.589  16.559  0.00  0.00    -0.491 OA
ATOM     34  H   LIG    1      -23.978  84.675  16.540  0.00  0.00    +0.294 HD
ENDBRANCH  31  33
BRANCH  32  35
ATOM     35  C   LIG    1      -22.690  86.354  14.341  0.00  0.00    +0.168 C 
BRANCH  35  36
ATOM     36  C   LIG    1      -21.543  87.171  14.940  0.00  0.00    +0.168 C 
BRANCH  36  37
ATOM     37  N   LIG    1      -20.495  87.458  13.988  0.00  0.00    -0.250 N 
ATOM     38  N   LIG    1      -19.277  86.907  14.127  0.00  0.00    -0.066 NA
ATOM     39  N   LIG    1      -18.523  87.362  13.135  0.00  0.00    -0.138 NA
ATOM     40  C   LIG    1      -19.280  88.214  12.383  0.00  0.00    +0.156 A 
ATOM     41  C   LIG    1      -20.542  88.299  12.918  0.00  0.00    +0.130 A 
ENDBRANCH  36  37
ENDBRANCH  35  36
ENDBRANCH  32  35
ENDBRANCH   1  31
TORSDOF 9
ENDMDL
MODEL 8
REMARK VINA RESULT:      -6.6      3.992      6.270
REMARK  Name = pdb/CHEMBL3964965.pdb
REMARK                            x       y       z     vdW  Elec       q    Type
REMARK                         _______ _______ _______ _____ _____    ______ ____
ROOT
ATOM      1  C   LIG    1      -37.782  76.055  26.079  0.00  0.00    +0.149 A 
ATOM      2  N   LIG    1      -37.692  74.720  26.000  0.00  0.00    -0.160 NA
ATOM      3  N   LIG    1      -38.561  74.346  25.030  0.00  0.00    -0.218 N 
ATOM      4  C   LIG    1      -39.256  75.442  24.508  0.00  0.00    +0.129 A 
ATOM      5  C   LIG    1      -38.735  76.543  25.153  0.00  0.00    +0.078 A 
ENDROOT
BRANCH   3   6
ATOM      6  C   LIG    1      -38.652  72.970  24.680  0.00  0.00    +0.067 A 
ATOM      7  C   LIG    1      -37.521  72.147  24.799  0.00  0.00    +0.028 A 
ATOM      8  C   LIG    1      -37.577  70.811  24.392  0.00  0.00    +0.002 A 
ATOM      9  C   LIG    1      -38.756  70.291  23.862  0.00  0.00    +0.000 A 
ATOM     10  C   LIG    1      -39.888  71.095  23.766  0.00  0.00    +0.002 A 
ATOM     11  C   LIG    1      -39.833  72.431  24.169  0.00  0.00    +0.028 A 
ENDBRANCH   3   6
BRANCH   4  12
ATOM     12  N   LIG    1      -40.357  75.449  23.620  0.00  0.00    -0.266 N 
ATOM     13  H   LIG    1      -40.147  75.548  22.636  0.00  0.00    +0.157 HD
ATOM     14  C   LIG    1      -41.718  75.292  24.054  0.00  0.00    +0.251 C 
ATOM     15  O   LIG    1      -41.993  75.177  25.246  0.00  0.00    -0.270 OA
BRANCH  14  16
ATOM     16  C   LIG    1      -42.786  75.208  23.034  0.00  0.00    +0.056 A 
ATOM     17  C   LIG    1      -43.498  76.312  22.573  0.00  0.00    +0.054 A 
ATOM     18 CL   LIG    1      -43.479  77.840  23.355  0.00  0.00    -0.083 Cl
ATOM     19  C   LIG    1      -44.352  76.184  21.482  0.00  0.00    +0.041 A 
ATOM     20  C   LIG    1      -44.617  74.932  20.918  0.00  0.00    +0.052 A 
ATOM     21 CL   LIG    1      -45.572  74.968  19.476  0.00  0.00    -0.083 Cl
ATOM     22  C   LIG    1      -44.079  73.758  21.482  0.00  0.00    +0.022 A 
ATOM     23  C   LIG    1      -43.119  73.940  22.513  0.00  0.00    +0.026 A 
BRANCH  22  24
ATOM     24  C   LIG    1      -44.441  72.377  21.069  0.00  0.00    +0.107 A 
ATOM     25  C   LIG    1      -43.591  71.503  20.381  0.00  0.00    +0.149 A 
ATOM     26  F   LIG    1      -42.376  71.878  19.961  0.00  0.00    -0.203 F 
ATOM     27  C   LIG    1      -44.020  70.220  20.060  0.00  0.00    +0.042 A 
ATOM     28  C   LIG    1      -45.321  69.847  20.361  0.00  0.00    +0.023 A 
ATOM     29  C   LIG    1      -46.136  70.780  20.978  0.00  0.00    +0.111 A 
ATOM     30  N   LIG    1      -45.728  72.020  21.347  0.00  0.00    -0.252 NA
ENDBRANCH  22  24
ENDBRANCH  14  16
ENDBRANCH   4  12
BRANCH   1  31
ATOM     31  C   LIG    1      -37.012  76.833  27.051  0.00  0.00    +0.236 C 
ATOM     32  N   LIG    1      -36.324  76.232  27.950  0.00  0.00    -0.247 NA
BRANCH  31  33
ATOM     33  O   LIG    1      -37.085  78.169  26.894  0.00  0.00    -0.491 OA
ATOM     34  H   LIG    1      -36.353  78.640  27.302  0.00  0.00    +0.294 HD
ENDBRANCH  31  33
BRANCH  32  35
ATOM     35  C   LIG    1      -35.579  76.947  28.986  0.00  0.00    +0.168 C 
BRANCH  35  36
ATOM     36  C   LIG    1      -34.073  76.804  28.755  0.00  0.00    +0.168 C 
BRANCH  36  37
ATOM     37  N   LIG    1      -33.533  77.824  27.887  0.00  0.00    -0.250 N 
ATOM     38  N   LIG    1      -34.203  78.970  27.679  0.00  0.00    -0.066 NA
ATOM     39  N   LIG    1      -33.488  79.698  26.832  0.00  0.00    -0.138 NA
ATOM     40  C   LIG    1      -32.369  78.988  26.502  0.00  0.00    +0.156 A 
ATOM     41  C   LIG    1      -32.383  77.781  27.157  0.00  0.00    +0.130 A 
ENDBRANCH  36  37
ENDBRANCH  35  36
ENDBRANCH  32  35
ENDBRANCH   1  31
TORSDOF 9
ENDMDL
MODEL 9
REMARK VINA RESULT:      -6.6      5.012      7.764
REMARK  Name = pdb/CHEMBL3964965.pdb
REMARK                            x       y       z     vdW  Elec       q    Type
REMARK                         _______ _______ _______ _____ _____    ______ ____
ROOT
ATOM      1  C   LIG    1      -31.762  75.413  29.745  0.00  0.00    +0.149 A 
ATOM      2  N   LIG    1      -32.104  74.117  29.721  0.00  0.00    -0.160 NA
ATOM      3  N   LIG    1      -33.102  74.014  28.811  0.00  0.00    -0.218 N 
ATOM      4  C   LIG    1      -33.445  75.260  28.276  0.00  0.00    +0.129 A 
ATOM      5  C   LIG    1      -32.564  76.155  28.846  0.00  0.00    +0.078 A 
ENDROOT
BRANCH   3   6
ATOM      6  C   LIG    1      -33.646  72.730  28.528  0.00  0.00    +0.067 A 
ATOM      7  C   LIG    1      -33.084  71.591  29.127  0.00  0.00    +0.028 A 
ATOM      8  C   LIG    1      -33.561  70.318  28.802  0.00  0.00    +0.002 A 
ATOM      9  C   LIG    1      -34.594  70.174  27.879  0.00  0.00    +0.000 A 
ATOM     10  C   LIG    1      -35.171  71.300  27.301  0.00  0.00    +0.002 A 
ATOM     11  C   LIG    1      -34.694  72.572  27.621  0.00  0.00    +0.028 A 
ENDBRANCH   3   6
BRANCH   4  12
ATOM     12  N   LIG    1      -34.539  75.594  27.443  0.00  0.00    -0.266 N 
ATOM     13  H   LIG    1      -34.361  75.620  26.448  0.00  0.00    +0.157 HD
ATOM     14  C   LIG    1      -35.859  75.857  27.946  0.00  0.00    +0.251 C 
ATOM     15  O   LIG    1      -36.092  75.835  29.153  0.00  0.00    -0.270 OA
BRANCH  14  16
ATOM     16  C   LIG    1      -36.955  76.093  26.981  0.00  0.00    +0.056 A 
ATOM     17  C   LIG    1      -37.468  77.355  26.695  0.00  0.00    +0.054 A 
ATOM     18 CL   LIG    1      -37.149  78.743  27.652  0.00  0.00    -0.083 Cl
ATOM     19  C   LIG    1      -38.365  77.519  25.644  0.00  0.00    +0.041 A 
ATOM     20  C   LIG    1      -38.870  76.415  24.948  0.00  0.00    +0.052 A 
ATOM     21 CL   LIG    1      -39.846  76.804  23.574  0.00  0.00    -0.083 Cl
ATOM     22  C   LIG    1      -38.537  75.103  25.338  0.00  0.00    +0.022 A 
ATOM     23  C   LIG    1      -37.528  74.980  26.331  0.00  0.00    +0.026 A 
BRANCH  22  24
ATOM     24  C   LIG    1      -39.156  73.872  24.782  0.00  0.00    +0.107 A 
ATOM     25  C   LIG    1      -38.483  72.660  24.588  0.00  0.00    +0.149 A 
ATOM     26  F   LIG    1      -37.171  72.530  24.823  0.00  0.00    -0.203 F 
ATOM     27  C   LIG    1      -39.161  71.558  24.080  0.00  0.00    +0.042 A 
ATOM     28  C   LIG    1      -40.487  71.696  23.699  0.00  0.00    +0.023 A 
ATOM     29  C   LIG    1      -41.077  72.940  23.849  0.00  0.00    +0.111 A 
ATOM     30  N   LIG    1      -40.454  74.017  24.388  0.00  0.00    -0.252 NA
ENDBRANCH  22  24
ENDBRANCH  14  16
ENDBRANCH   4  12
BRANCH   1  31
ATOM     31  C   LIG    1      -30.728  75.931  30.643  0.00  0.00    +0.236 C 
ATOM     32  N   LIG    1      -30.463  75.315  31.735  0.00  0.00    -0.247 NA
BRANCH  31  33
ATOM     33  O   LIG    1      -30.109  77.048  30.213  0.00  0.00    -0.491 OA
ATOM     34  H   LIG    1      -29.352  76.869  29.647  0.00  0.00    +0.294 HD
ENDBRANCH  31  33
BRANCH  32  35
ATOM     35  C   LIG    1      -29.485  75.807  32.705  0.00  0.00    +0.168 C 
BRANCH  35  36
ATOM     36  C   LIG    1      -28.132  75.126  32.491  0.00  0.00    +0.168 C 
BRANCH  36  37
ATOM     37  N   LIG    1      -27.088  76.046  32.104  0.00  0.00    -0.250 N 
ATOM     38  N   LIG    1      -27.369  77.120  31.347  0.00  0.00    -0.066 NA
ATOM     39  N   LIG    1      -26.229  77.763  31.133  0.00  0.00    -0.138 NA
ATOM     40  C   LIG    1      -25.229  77.070  31.754  0.00  0.00    +0.156 A 
ATOM     41  C   LIG    1      -25.754  75.962  32.372  0.00  0.00    +0.130 A 
ENDBRANCH  36  37
ENDBRANCH  35  36
ENDBRANCH  32  35
ENDBRANCH   1  31
TORSDOF 9
ENDMDL
