MODEL 1
REMARK VINA RESULT:      -5.9      0.000      0.000
REMARK  Name = pdb/CHEMBL3676004.pdb
REMARK                            x       y       z     vdW  Elec       q    Type
REMARK                         _______ _______ _______ _____ _____    ______ ____
ROOT
ATOM      1  C   LIG    1      -20.131  76.933  30.553  0.00  0.00    +0.100 A 
ATOM      2  C   LIG    1      -19.651  77.546  31.695  0.00  0.00    +0.170 A 
ATOM      3  N   LIG    1      -20.303  78.134  32.752  0.00  0.00    -0.212 NA
ATOM      4  C   LIG    1      -19.581  78.653  33.722  0.00  0.00    +0.126 A 
ATOM      5  C   LIG    1      -18.068  78.645  33.672  0.00  0.00    +0.063 A 
ATOM      6  C   LIG    1      -17.486  78.046  32.627  0.00  0.00    +0.118 A 
ATOM      7  N   LIG    1      -18.261  77.487  31.625  0.00  0.00    -0.221 N 
ATOM      8  N   LIG    1      -17.835  76.862  30.504  0.00  0.00    -0.173 NA
ATOM      9  C   LIG    1      -18.961  76.547  29.858  0.00  0.00    +0.150 A 
ENDROOT
BRANCH   4  10
ATOM     10  N   LIG    1      -20.234  79.217  34.811  0.00  0.00    -0.308 N 
ATOM     11  C   LIG    1      -21.345  80.171  34.672  0.00  0.00    +0.107 C 
ATOM     12  C   LIG    1      -21.029  81.248  35.718  0.00  0.00    +0.029 C 
ATOM     13  C   LIG    1      -20.369  80.466  36.840  0.00  0.00    +0.021 C 
ATOM     14  C   LIG    1      -19.537  79.428  36.091  0.00  0.00    +0.107 C 
BRANCH  11  15
ATOM     15  C   LIG    1      -22.695  79.524  34.896  0.00  0.00    -0.006 A 
ATOM     16  C   LIG    1      -22.910  78.140  34.865  0.00  0.00    +0.046 A 
ATOM     17  C   LIG    1      -24.173  77.632  35.136  0.00  0.00    +0.142 A 
ATOM     18  F   LIG    1      -24.385  76.311  35.126  0.00  0.00    -0.204 F 
ATOM     19  C   LIG    1      -25.201  78.510  35.424  0.00  0.00    +0.149 A 
ATOM     20  N   LIG    1      -25.044  79.853  35.458  0.00  0.00    -0.260 NA
ATOM     21  C   LIG    1      -23.801  80.324  35.198  0.00  0.00    +0.116 A 
ENDBRANCH  11  15
ENDBRANCH   4  10
BRANCH   1  24
ATOM     22  N   LIG    1      -22.426  76.722  31.198  0.00  0.00    -0.300 N 
ATOM     23  H   LIG    1      -22.049  76.874  32.136  0.00  0.00    +0.150 HD
ATOM     24  C   LIG    1      -21.517  76.735  30.155  0.00  0.00    +0.250 C 
ATOM     25  O   LIG    1      -21.846  76.593  28.990  0.00  0.00    -0.270 OA
BRANCH  22  27
ATOM     26  C   LIG    1      -24.384  75.314  31.786  0.00  0.00    +0.037 C 
ATOM     27  C   LIG    1      -23.881  76.543  31.021  0.00  0.00    +0.174 C 
BRANCH  27  28
ATOM     28  C   LIG    1      -24.728  77.798  31.350  0.00  0.00    +0.407 C 
ATOM     29  F   LIG    1      -25.229  78.344  30.216  0.00  0.00    -0.169 F 
ATOM     30  F   LIG    1      -23.997  78.756  31.968  0.00  0.00    -0.169 F 
ATOM     31  F   LIG    1      -25.780  77.529  32.158  0.00  0.00    -0.169 F 
ENDBRANCH  27  28
ENDBRANCH  22  27
ENDBRANCH   1  24
TORSDOF 5
ENDMDL
MODEL 2
REMARK VINA RESULT:      -5.6      1.921      2.523
REMARK  Name = pdb/CHEMBL3676004.pdb
REMARK                            x       y       z     vdW  Elec       q    Type
REMARK                         _______ _______ _______ _____ _____    ______ ____
ROOT
ATOM      1  C   LIG    1      -22.874  76.849  30.466  0.00  0.00    +0.100 A 
ATOM      2  C   LIG    1      -21.969  77.422  31.339  0.00  0.00    +0.170 A 
ATOM      3  N   LIG    1      -22.146  78.044  32.551  0.00  0.00    -0.212 NA
ATOM      4  C   LIG    1      -21.086  78.508  33.177  0.00  0.00    +0.126 A 
ATOM      5  C   LIG    1      -19.702  78.402  32.573  0.00  0.00    +0.063 A 
ATOM      6  C   LIG    1      -19.586  77.773  31.398  0.00  0.00    +0.118 A 
ATOM      7  N   LIG    1      -20.710  77.272  30.762  0.00  0.00    -0.221 N 
ATOM      8  N   LIG    1      -20.769  76.628  29.575  0.00  0.00    -0.173 NA
ATOM      9  C   LIG    1      -22.071  76.392  29.395  0.00  0.00    +0.150 A 
ENDROOT
BRANCH   4  10
ATOM     10  N   LIG    1      -21.254  79.107  34.420  0.00  0.00    -0.308 N 
ATOM     11  C   LIG    1      -22.340  80.054  34.712  0.00  0.00    +0.107 C 
ATOM     12  C   LIG    1      -21.646  81.165  35.510  0.00  0.00    +0.029 C 
ATOM     13  C   LIG    1      -20.579  80.421  36.293  0.00  0.00    +0.021 C 
ATOM     14  C   LIG    1      -20.104  79.360  35.304  0.00  0.00    +0.107 C 
BRANCH  11  15
ATOM     15  C   LIG    1      -23.477  79.415  35.478  0.00  0.00    -0.006 A 
ATOM     16  C   LIG    1      -24.677  80.072  35.785  0.00  0.00    +0.046 A 
ATOM     17  C   LIG    1      -25.688  79.388  36.445  0.00  0.00    +0.142 A 
ATOM     18  F   LIG    1      -26.844  80.002  36.726  0.00  0.00    -0.204 F 
ATOM     19  C   LIG    1      -25.486  78.067  36.797  0.00  0.00    +0.149 A 
ATOM     20  N   LIG    1      -24.343  77.393  36.530  0.00  0.00    -0.260 NA
ATOM     21  C   LIG    1      -23.374  78.079  35.878  0.00  0.00    +0.116 A 
ENDBRANCH  11  15
ENDBRANCH   4  10
BRANCH   1  24
ATOM     22  N   LIG    1      -24.744  76.125  31.773  0.00  0.00    -0.300 N 
ATOM     23  H   LIG    1      -24.016  75.823  32.424  0.00  0.00    +0.150 HD
ATOM     24  C   LIG    1      -24.319  76.744  30.611  0.00  0.00    +0.250 C 
ATOM     25  O   LIG    1      -25.091  77.173  29.770  0.00  0.00    -0.270 OA
BRANCH  22  27
ATOM     26  C   LIG    1      -26.472  74.434  32.336  0.00  0.00    +0.037 C 
ATOM     27  C   LIG    1      -26.164  75.920  32.126  0.00  0.00    +0.174 C 
BRANCH  27  28
ATOM     28  C   LIG    1      -26.659  76.774  33.320  0.00  0.00    +0.407 C 
ATOM     29  F   LIG    1      -27.918  77.220  33.094  0.00  0.00    -0.169 F 
ATOM     30  F   LIG    1      -25.879  77.862  33.524  0.00  0.00    -0.169 F 
ATOM     31  F   LIG    1      -26.684  76.088  34.486  0.00  0.00    -0.169 F 
ENDBRANCH  27  28
ENDBRANCH  22  27
ENDBRANCH   1  24
TORSDOF 5
ENDMDL
MODEL 3
REMARK VINA RESULT:      -5.6      2.025      3.351
REMARK  Name = pdb/CHEMBL3676004.pdb
REMARK                            x       y       z     vdW  Elec       q    Type
REMARK                         _______ _______ _______ _____ _____    ______ ____
ROOT
ATOM      1  C   LIG    1      -20.485  77.115  30.784  0.00  0.00    +0.100 A 
ATOM      2  C   LIG    1      -20.279  77.822  31.954  0.00  0.00    +0.170 A 
ATOM      3  N   LIG    1      -21.164  78.367  32.852  0.00  0.00    -0.212 NA
ATOM      4  C   LIG    1      -20.681  79.002  33.898  0.00  0.00    +0.126 A 
ATOM      5  C   LIG    1      -19.191  79.171  34.102  0.00  0.00    +0.063 A 
ATOM      6  C   LIG    1      -18.375  78.606  33.204  0.00  0.00    +0.118 A 
ATOM      7  N   LIG    1      -18.900  77.924  32.119  0.00  0.00    -0.221 N 
ATOM      8  N   LIG    1      -18.222  77.313  31.122  0.00  0.00    -0.173 NA
ATOM      9  C   LIG    1      -19.178  76.844  30.316  0.00  0.00    +0.150 A 
ENDROOT
BRANCH   4  10
ATOM     10  N   LIG    1      -21.570  79.525  34.830  0.00  0.00    -0.308 N 
ATOM     11  C   LIG    1      -21.457  79.272  36.274  0.00  0.00    +0.107 C 
ATOM     12  C   LIG    1      -22.901  78.990  36.707  0.00  0.00    +0.029 C 
ATOM     13  C   LIG    1      -23.721  79.887  35.796  0.00  0.00    +0.021 C 
ATOM     14  C   LIG    1      -22.969  79.810  34.470  0.00  0.00    +0.107 C 
BRANCH  11  15
ATOM     15  C   LIG    1      -20.845  80.438  37.021  0.00  0.00    -0.006 A 
ATOM     16  C   LIG    1      -20.855  81.757  36.547  0.00  0.00    +0.046 A 
ATOM     17  C   LIG    1      -20.318  82.773  37.325  0.00  0.00    +0.142 A 
ATOM     18  F   LIG    1      -20.339  84.038  36.890  0.00  0.00    -0.204 F 
ATOM     19  C   LIG    1      -19.774  82.458  38.556  0.00  0.00    +0.149 A 
ATOM     20  N   LIG    1      -19.734  81.200  39.052  0.00  0.00    -0.260 NA
ATOM     21  C   LIG    1      -20.271  80.227  38.277  0.00  0.00    +0.116 A 
ENDBRANCH  11  15
ENDBRANCH   4  10
BRANCH   1  24
ATOM     22  N   LIG    1      -22.829  76.702  31.040  0.00  0.00    -0.300 N 
ATOM     23  H   LIG    1      -22.643  76.958  32.012  0.00  0.00    +0.150 HD
ATOM     24  C   LIG    1      -21.752  76.740  30.172  0.00  0.00    +0.250 C 
ATOM     25  O   LIG    1      -21.851  76.483  28.984  0.00  0.00    -0.270 OA
BRANCH  22  27
ATOM     26  C   LIG    1      -24.561  74.924  31.050  0.00  0.00    +0.037 C 
ATOM     27  C   LIG    1      -24.205  76.354  30.631  0.00  0.00    +0.174 C 
BRANCH  27  28
ATOM     28  C   LIG    1      -25.286  77.363  31.091  0.00  0.00    +0.407 C 
ATOM     29  F   LIG    1      -26.493  76.755  31.188  0.00  0.00    -0.169 F 
ATOM     30  F   LIG    1      -25.424  78.392  30.221  0.00  0.00    -0.169 F 
ATOM     31  F   LIG    1      -25.019  77.910  32.301  0.00  0.00    -0.169 F 
ENDBRANCH  27  28
ENDBRANCH  22  27
ENDBRANCH   1  24
TORSDOF 5
ENDMDL
MODEL 4
REMARK VINA RESULT:      -5.5      2.393      5.132
REMARK  Name = pdb/CHEMBL3676004.pdb
REMARK                            x       y       z     vdW  Elec       q    Type
REMARK                         _______ _______ _______ _____ _____    ______ ____
ROOT
ATOM      1  C   LIG    1      -18.514  78.202  33.155  0.00  0.00    +0.100 A 
ATOM      2  C   LIG    1      -19.463  77.826  32.223  0.00  0.00    +0.170 A 
ATOM      3  N   LIG    1      -20.835  77.888  32.249  0.00  0.00    -0.212 NA
ATOM      4  C   LIG    1      -21.501  77.447  31.203  0.00  0.00    +0.126 A 
ATOM      5  C   LIG    1      -20.790  76.847  30.009  0.00  0.00    +0.063 A 
ATOM      6  C   LIG    1      -19.453  76.826  30.031  0.00  0.00    +0.118 A 
ATOM      7  N   LIG    1      -18.766  77.313  31.130  0.00  0.00    -0.221 N 
ATOM      8  N   LIG    1      -17.428  77.352  31.318  0.00  0.00    -0.173 NA
ATOM      9  C   LIG    1      -17.284  77.871  32.540  0.00  0.00    +0.150 A 
ENDROOT
BRANCH   4  10
ATOM     10  N   LIG    1      -22.887  77.540  31.208  0.00  0.00    -0.308 N 
ATOM     11  C   LIG    1      -23.742  76.718  32.077  0.00  0.00    +0.107 C 
ATOM     12  C   LIG    1      -24.885  76.281  31.152  0.00  0.00    +0.029 C 
ATOM     13  C   LIG    1      -25.060  77.471  30.224  0.00  0.00    +0.021 C 
ATOM     14  C   LIG    1      -23.627  77.945  30.001  0.00  0.00    +0.107 C 
BRANCH  11  15
ATOM     15  C   LIG    1      -24.236  77.477  33.290  0.00  0.00    -0.006 A 
ATOM     16  C   LIG    1      -23.825  78.777  33.615  0.00  0.00    +0.046 A 
ATOM     17  C   LIG    1      -24.373  79.417  34.718  0.00  0.00    +0.142 A 
ATOM     18  F   LIG    1      -24.000  80.665  35.027  0.00  0.00    -0.204 F 
ATOM     19  C   LIG    1      -25.312  78.751  35.482  0.00  0.00    +0.149 A 
ATOM     20  N   LIG    1      -25.733  77.494  35.213  0.00  0.00    -0.260 NA
ATOM     21  C   LIG    1      -25.191  76.893  34.127  0.00  0.00    +0.116 A 
ENDBRANCH  11  15
ENDBRANCH   4  10
BRANCH   1  24
ATOM     22  N   LIG    1      -19.905  79.515  34.593  0.00  0.00    -0.300 N 
ATOM     23  H   LIG    1      -20.515  79.544  33.774  0.00  0.00    +0.150 HD
ATOM     24  C   LIG    1      -18.730  78.797  34.466  0.00  0.00    +0.250 C 
ATOM     25  O   LIG    1      -17.932  78.666  35.379  0.00  0.00    -0.270 OA
BRANCH  22  27
ATOM     26  C   LIG    1      -21.001  81.535  35.531  0.00  0.00    +0.037 C 
ATOM     27  C   LIG    1      -20.325  80.194  35.836  0.00  0.00    +0.174 C 
BRANCH  27  28
ATOM     28  C   LIG    1      -21.194  79.325  36.780  0.00  0.00    +0.407 C 
ATOM     29  F   LIG    1      -20.463  78.893  37.834  0.00  0.00    -0.169 F 
ATOM     30  F   LIG    1      -21.683  78.228  36.154  0.00  0.00    -0.169 F 
ATOM     31  F   LIG    1      -22.259  79.993  37.282  0.00  0.00    -0.169 F 
ENDBRANCH  27  28
ENDBRANCH  22  27
ENDBRANCH   1  24
TORSDOF 5
ENDMDL
MODEL 5
REMARK VINA RESULT:      -5.4      2.831      5.666
REMARK  Name = pdb/CHEMBL3676004.pdb
REMARK                            x       y       z     vdW  Elec       q    Type
REMARK                         _______ _______ _______ _____ _____    ______ ____
ROOT
ATOM      1  C   LIG    1      -23.999  77.925  32.103  0.00  0.00    +0.100 A 
ATOM      2  C   LIG    1      -22.858  77.452  31.483  0.00  0.00    +0.170 A 
ATOM      3  N   LIG    1      -21.554  77.385  31.910  0.00  0.00    -0.212 NA
ATOM      4  C   LIG    1      -20.654  76.879  31.094  0.00  0.00    +0.126 A 
ATOM      5  C   LIG    1      -21.021  76.414  29.702  0.00  0.00    +0.063 A 
ATOM      6  C   LIG    1      -22.308  76.488  29.344  0.00  0.00    +0.118 A 
ATOM      7  N   LIG    1      -23.247  77.004  30.222  0.00  0.00    -0.221 N 
ATOM      8  N   LIG    1      -24.574  77.161  30.014  0.00  0.00    -0.173 NA
ATOM      9  C   LIG    1      -25.016  77.729  31.140  0.00  0.00    +0.150 A 
ENDROOT
BRANCH   4  10
ATOM     10  N   LIG    1      -19.340  76.775  31.534  0.00  0.00    -0.308 N 
ATOM     11  C   LIG    1      -18.609  77.895  32.145  0.00  0.00    +0.107 C 
ATOM     12  C   LIG    1      -17.223  77.824  31.490  0.00  0.00    +0.029 C 
ATOM     13  C   LIG    1      -17.008  76.334  31.286  0.00  0.00    +0.021 C 
ATOM     14  C   LIG    1      -18.398  75.836  30.902  0.00  0.00    +0.107 C 
BRANCH  11  15
ATOM     15  C   LIG    1      -18.542  77.789  33.654  0.00  0.00    -0.006 A 
ATOM     16  C   LIG    1      -17.968  78.766  34.478  0.00  0.00    +0.046 A 
ATOM     17  C   LIG    1      -18.000  78.610  35.857  0.00  0.00    +0.142 A 
ATOM     18  F   LIG    1      -17.470  79.546  36.654  0.00  0.00    -0.204 F 
ATOM     19  C   LIG    1      -18.595  77.483  36.391  0.00  0.00    +0.149 A 
ATOM     20  N   LIG    1      -19.154  76.509  35.636  0.00  0.00    -0.260 NA
ATOM     21  C   LIG    1      -19.118  76.687  34.293  0.00  0.00    +0.116 A 
ENDBRANCH  11  15
ENDBRANCH   4  10
BRANCH   1  24
ATOM     22  N   LIG    1      -22.929  78.862  34.028  0.00  0.00    -0.300 N 
ATOM     23  H   LIG    1      -22.082  78.720  33.475  0.00  0.00    +0.150 HD
ATOM     24  C   LIG    1      -24.125  78.497  33.436  0.00  0.00    +0.250 C 
ATOM     25  O   LIG    1      -25.205  78.641  33.984  0.00  0.00    -0.270 OA
BRANCH  22  27
ATOM     26  C   LIG    1      -22.470  78.413  36.426  0.00  0.00    +0.037 C 
ATOM     27  C   LIG    1      -22.825  79.467  35.372  0.00  0.00    +0.174 C 
BRANCH  27  28
ATOM     28  C   LIG    1      -21.879  80.691  35.455  0.00  0.00    +0.407 C 
ATOM     29  F   LIG    1      -20.792  80.505  34.667  0.00  0.00    -0.169 F 
ATOM     30  F   LIG    1      -21.429  80.901  36.715  0.00  0.00    -0.169 F 
ATOM     31  F   LIG    1      -22.467  81.842  35.054  0.00  0.00    -0.169 F 
ENDBRANCH  27  28
ENDBRANCH  22  27
ENDBRANCH   1  24
TORSDOF 5
ENDMDL
MODEL 6
REMARK VINA RESULT:      -5.4      4.681      8.463
REMARK  Name = pdb/CHEMBL3676004.pdb
REMARK                            x       y       z     vdW  Elec       q    Type
REMARK                         _______ _______ _______ _____ _____    ______ ____
ROOT
ATOM      1  C   LIG    1      -24.297  76.710  30.706  0.00  0.00    +0.100 A 
ATOM      2  C   LIG    1      -24.558  75.402  31.070  0.00  0.00    +0.170 A 
ATOM      3  N   LIG    1      -23.756  74.286  31.081  0.00  0.00    -0.212 NA
ATOM      4  C   LIG    1      -24.278  73.146  31.480  0.00  0.00    +0.126 A 
ATOM      5  C   LIG    1      -25.733  73.040  31.883  0.00  0.00    +0.063 A 
ATOM      6  C   LIG    1      -26.463  74.161  31.867  0.00  0.00    +0.118 A 
ATOM      7  N   LIG    1      -25.893  75.357  31.464  0.00  0.00    -0.221 N 
ATOM      8  N   LIG    1      -26.489  76.568  31.377  0.00  0.00    -0.173 NA
ATOM      9  C   LIG    1      -25.531  77.371  30.907  0.00  0.00    +0.150 A 
ENDROOT
BRANCH   4  10
ATOM     10  N   LIG    1      -23.463  72.021  31.529  0.00  0.00    -0.308 N 
ATOM     11  C   LIG    1      -23.993  70.650  31.571  0.00  0.00    +0.107 C 
ATOM     12  C   LIG    1      -23.122  69.958  32.627  0.00  0.00    +0.029 C 
ATOM     13  C   LIG    1      -21.767  70.621  32.454  0.00  0.00    +0.021 C 
ATOM     14  C   LIG    1      -22.131  72.073  32.154  0.00  0.00    +0.107 C 
BRANCH  11  15
ATOM     15  C   LIG    1      -23.928  69.962  30.225  0.00  0.00    -0.006 A 
ATOM     16  C   LIG    1      -23.986  70.641  29.000  0.00  0.00    +0.046 A 
ATOM     17  C   LIG    1      -23.864  69.932  27.813  0.00  0.00    +0.142 A 
ATOM     18  F   LIG    1      -23.899  70.573  26.638  0.00  0.00    -0.204 F 
ATOM     19  C   LIG    1      -23.696  68.562  27.864  0.00  0.00    +0.149 A 
ATOM     20  N   LIG    1      -23.643  67.862  29.021  0.00  0.00    -0.260 NA
ATOM     21  C   LIG    1      -23.756  68.576  30.167  0.00  0.00    +0.116 A 
ENDBRANCH  11  15
ENDBRANCH   4  10
BRANCH   1  24
ATOM     22  N   LIG    1      -22.013  77.274  31.145  0.00  0.00    -0.300 N 
ATOM     23  H   LIG    1      -22.214  76.861  32.058  0.00  0.00    +0.150 HD
ATOM     24  C   LIG    1      -23.045  77.275  30.224  0.00  0.00    +0.250 C 
ATOM     25  O   LIG    1      -22.921  77.714  29.093  0.00  0.00    -0.270 OA
BRANCH  22  27
ATOM     26  C   LIG    1      -19.985  78.299  32.145  0.00  0.00    +0.037 C 
ATOM     27  C   LIG    1      -20.658  77.791  30.865  0.00  0.00    +0.174 C 
BRANCH  27  28
ATOM     28  C   LIG    1      -19.740  76.808  30.097  0.00  0.00    +0.407 C 
ATOM     29  F   LIG    1      -19.920  76.936  28.760  0.00  0.00    -0.169 F 
ATOM     30  F   LIG    1      -20.000  75.517  30.414  0.00  0.00    -0.169 F 
ATOM     31  F   LIG    1      -18.424  77.011  30.341  0.00  0.00    -0.169 F 
ENDBRANCH  27  28
ENDBRANCH  22  27
ENDBRANCH   1  24
TORSDOF 5
ENDMDL
MODEL 7
REMARK VINA RESULT:      -5.3      2.489      5.197
REMARK  Name = pdb/CHEMBL3676004.pdb
REMARK                            x       y       z     vdW  Elec       q    Type
REMARK                         _______ _______ _______ _____ _____    ______ ____
ROOT
ATOM      1  C   LIG    1      -24.064  77.266  32.669  0.00  0.00    +0.100 A 
ATOM      2  C   LIG    1      -23.861  78.196  33.672  0.00  0.00    +0.170 A 
ATOM      3  N   LIG    1      -22.717  78.810  34.121  0.00  0.00    -0.212 NA
ATOM      4  C   LIG    1      -22.816  79.668  35.114  0.00  0.00    +0.126 A 
ATOM      5  C   LIG    1      -24.144  79.953  35.782  0.00  0.00    +0.063 A 
ATOM      6  C   LIG    1      -25.227  79.338  35.295  0.00  0.00    +0.118 A 
ATOM      7  N   LIG    1      -25.108  78.453  34.236  0.00  0.00    -0.221 N 
ATOM      8  N   LIG    1      -26.092  77.743  33.639  0.00  0.00    -0.173 NA
ATOM      9  C   LIG    1      -25.457  77.021  32.711  0.00  0.00    +0.150 A 
ENDROOT
BRANCH   4  10
ATOM     10  N   LIG    1      -21.669  80.321  35.548  0.00  0.00    -0.308 N 
ATOM     11  C   LIG    1      -20.630  79.663  36.354  0.00  0.00    +0.107 C 
ATOM     12  C   LIG    1      -20.287  80.707  37.424  0.00  0.00    +0.029 C 
ATOM     13  C   LIG    1      -20.458  82.027  36.694  0.00  0.00    +0.021 C 
ATOM     14  C   LIG    1      -21.668  81.772  35.801  0.00  0.00    +0.107 C 
BRANCH  11  15
ATOM     15  C   LIG    1      -19.426  79.261  35.530  0.00  0.00    -0.006 A 
ATOM     16  C   LIG    1      -19.456  79.087  34.140  0.00  0.00    +0.046 A 
ATOM     17  C   LIG    1      -18.289  78.770  33.459  0.00  0.00    +0.142 A 
ATOM     18  F   LIG    1      -18.304  78.620  32.129  0.00  0.00    -0.204 F 
ATOM     19  C   LIG    1      -17.115  78.623  34.173  0.00  0.00    +0.149 A 
ATOM     20  N   LIG    1      -17.038  78.773  35.515  0.00  0.00    -0.260 NA
ATOM     21  C   LIG    1      -18.188  79.090  36.157  0.00  0.00    +0.116 A 
ENDBRANCH  11  15
ENDBRANCH   4  10
BRANCH   1  24
ATOM     22  N   LIG    1      -21.760  76.858  32.166  0.00  0.00    -0.300 N 
ATOM     23  H   LIG    1      -21.606  77.365  33.040  0.00  0.00    +0.150 HD
ATOM     24  C   LIG    1      -23.076  76.674  31.780  0.00  0.00    +0.250 C 
ATOM     25  O   LIG    1      -23.390  76.062  30.772  0.00  0.00    -0.270 OA
BRANCH  22  27
ATOM     26  C   LIG    1      -20.646  74.807  31.322  0.00  0.00    +0.037 C 
ATOM     27  C   LIG    1      -20.600  76.336  31.416  0.00  0.00    +0.174 C 
BRANCH  27  28
ATOM     28  C   LIG    1      -20.392  76.982  30.023  0.00  0.00    +0.407 C 
ATOM     29  F   LIG    1      -19.097  76.878  29.641  0.00  0.00    -0.169 F 
ATOM     30  F   LIG    1      -20.706  78.299  30.023  0.00  0.00    -0.169 F 
ATOM     31  F   LIG    1      -21.140  76.403  29.055  0.00  0.00    -0.169 F 
ENDBRANCH  27  28
ENDBRANCH  22  27
ENDBRANCH   1  24
TORSDOF 5
ENDMDL
MODEL 8
REMARK VINA RESULT:      -5.3     13.230     16.454
REMARK  Name = pdb/CHEMBL3676004.pdb
REMARK                            x       y       z     vdW  Elec       q    Type
REMARK                         _______ _______ _______ _____ _____    ______ ____
ROOT
ATOM      1  C   LIG    1      -37.405  71.528  24.749  0.00  0.00    +0.100 A 
ATOM      2  C   LIG    1      -36.458  71.254  25.718  0.00  0.00    +0.170 A 
ATOM      3  N   LIG    1      -36.089  71.945  26.847  0.00  0.00    -0.212 NA
ATOM      4  C   LIG    1      -35.135  71.443  27.602  0.00  0.00    +0.126 A 
ATOM      5  C   LIG    1      -34.426  70.159  27.232  0.00  0.00    +0.063 A 
ATOM      6  C   LIG    1      -34.837  69.520  26.131  0.00  0.00    +0.118 A 
ATOM      7  N   LIG    1      -35.855  70.051  25.357  0.00  0.00    -0.221 N 
ATOM      8  N   LIG    1      -36.375  69.545  24.216  0.00  0.00    -0.173 NA
ATOM      9  C   LIG    1      -37.293  70.443  23.848  0.00  0.00    +0.150 A 
ENDROOT
BRANCH   4  10
ATOM     10  N   LIG    1      -34.782  72.118  28.765  0.00  0.00    -0.308 N 
ATOM     11  C   LIG    1      -33.388  72.426  29.120  0.00  0.00    +0.107 C 
ATOM     12  C   LIG    1      -33.313  72.093  30.615  0.00  0.00    +0.029 C 
ATOM     13  C   LIG    1      -34.697  72.456  31.125  0.00  0.00    +0.021 C 
ATOM     14  C   LIG    1      -35.609  72.026  29.980  0.00  0.00    +0.107 C 
BRANCH  11  15
ATOM     15  C   LIG    1      -33.020  73.865  28.828  0.00  0.00    -0.006 A 
ATOM     16  C   LIG    1      -33.752  74.697  27.969  0.00  0.00    +0.046 A 
ATOM     17  C   LIG    1      -33.372  76.021  27.803  0.00  0.00    +0.142 A 
ATOM     18  F   LIG    1      -34.075  76.829  27.000  0.00  0.00    -0.204 F 
ATOM     19  C   LIG    1      -32.266  76.492  28.486  0.00  0.00    +0.149 A 
ATOM     20  N   LIG    1      -31.524  75.726  29.318  0.00  0.00    -0.260 NA
ATOM     21  C   LIG    1      -31.920  74.439  29.470  0.00  0.00    +0.116 A 
ENDBRANCH  11  15
ENDBRANCH   4  10
BRANCH   1  24
ATOM     22  N   LIG    1      -37.781  73.858  25.145  0.00  0.00    -0.300 N 
ATOM     23  H   LIG    1      -36.816  73.832  25.480  0.00  0.00    +0.150 HD
ATOM     24  C   LIG    1      -38.306  72.669  24.671  0.00  0.00    +0.250 C 
ATOM     25  O   LIG    1      -39.435  72.578  24.220  0.00  0.00    -0.270 OA
BRANCH  22  27
ATOM     26  C   LIG    1      -39.510  75.197  26.319  0.00  0.00    +0.037 C 
ATOM     27  C   LIG    1      -38.517  75.138  25.153  0.00  0.00    +0.174 C 
BRANCH  27  28
ATOM     28  C   LIG    1      -37.616  76.398  25.114  0.00  0.00    +0.407 C 
ATOM     29  F   LIG    1      -38.212  77.429  25.760  0.00  0.00    -0.169 F 
ATOM     30  F   LIG    1      -37.371  76.808  23.847  0.00  0.00    -0.169 F 
ATOM     31  F   LIG    1      -36.412  76.206  25.701  0.00  0.00    -0.169 F 
ENDBRANCH  27  28
ENDBRANCH  22  27
ENDBRANCH   1  24
TORSDOF 5
ENDMDL
MODEL 9
REMARK VINA RESULT:      -5.2      2.179      3.158
REMARK  Name = pdb/CHEMBL3676004.pdb
REMARK                            x       y       z     vdW  Elec       q    Type
REMARK                         _______ _______ _______ _____ _____    ______ ____
ROOT
ATOM      1  C   LIG    1      -23.180  77.137  30.751  0.00  0.00    +0.100 A 
ATOM      2  C   LIG    1      -22.081  77.486  31.513  0.00  0.00    +0.170 A 
ATOM      3  N   LIG    1      -21.970  77.848  32.834  0.00  0.00    -0.212 NA
ATOM      4  C   LIG    1      -20.776  78.138  33.305  0.00  0.00    +0.126 A 
ATOM      5  C   LIG    1      -19.550  78.116  32.419  0.00  0.00    +0.063 A 
ATOM      6  C   LIG    1      -19.714  77.741  31.145  0.00  0.00    +0.118 A 
ATOM      7  N   LIG    1      -20.974  77.420  30.670  0.00  0.00    -0.221 N 
ATOM      8  N   LIG    1      -21.313  77.039  29.417  0.00  0.00    -0.173 NA
ATOM      9  C   LIG    1      -22.639  76.887  29.469  0.00  0.00    +0.150 A 
ENDROOT
BRANCH   4  10
ATOM     10  N   LIG    1      -20.652  78.470  34.649  0.00  0.00    -0.308 N 
ATOM     11  C   LIG    1      -20.188  79.787  35.109  0.00  0.00    +0.107 C 
ATOM     12  C   LIG    1      -19.217  79.451  36.248  0.00  0.00    +0.029 C 
ATOM     13  C   LIG    1      -19.825  78.206  36.871  0.00  0.00    +0.021 C 
ATOM     14  C   LIG    1      -20.358  77.443  35.662  0.00  0.00    +0.107 C 
BRANCH  11  15
ATOM     15  C   LIG    1      -21.325  80.677  35.561  0.00  0.00    -0.006 A 
ATOM     16  C   LIG    1      -22.678  80.326  35.454  0.00  0.00    +0.046 A 
ATOM     17  C   LIG    1      -23.653  81.184  35.945  0.00  0.00    +0.142 A 
ATOM     18  F   LIG    1      -24.947  80.850  35.865  0.00  0.00    -0.204 F 
ATOM     19  C   LIG    1      -23.267  82.377  36.525  0.00  0.00    +0.149 A 
ATOM     20  N   LIG    1      -21.975  82.762  36.643  0.00  0.00    -0.260 NA
ATOM     21  C   LIG    1      -21.041  81.906  36.163  0.00  0.00    +0.116 A 
ENDBRANCH  11  15
ENDBRANCH   4  10
BRANCH   1  24
ATOM     22  N   LIG    1      -24.761  76.840  32.524  0.00  0.00    -0.300 N 
ATOM     23  H   LIG    1      -23.919  76.788  33.101  0.00  0.00    +0.150 HD
ATOM     24  C   LIG    1      -24.572  77.050  31.170  0.00  0.00    +0.250 C 
ATOM     25  O   LIG    1      -25.497  77.157  30.381  0.00  0.00    -0.270 OA
BRANCH  22  27
ATOM     26  C   LIG    1      -26.670  75.321  32.985  0.00  0.00    +0.037 C 
ATOM     27  C   LIG    1      -26.087  76.728  33.163  0.00  0.00    +0.174 C 
BRANCH  27  28
ATOM     28  C   LIG    1      -26.125  77.171  34.647  0.00  0.00    +0.407 C 
ATOM     29  F   LIG    1      -27.224  76.674  35.264  0.00  0.00    -0.169 F 
ATOM     30  F   LIG    1      -26.170  78.519  34.773  0.00  0.00    -0.169 F 
ATOM     31  F   LIG    1      -25.050  76.750  35.352  0.00  0.00    -0.169 F 
ENDBRANCH  27  28
ENDBRANCH  22  27
ENDBRANCH   1  24
TORSDOF 5
ENDMDL
