MODEL 1
REMARK VINA RESULT:      -6.3      0.000      0.000
REMARK  Name = pdb/CHEMBL3671437.pdb
REMARK                            x       y       z     vdW  Elec       q    Type
REMARK                         _______ _______ _______ _____ _____    ______ ____
ROOT
ATOM      1  C   LIG    1      -33.786  71.164  28.325  0.00  0.00    +0.042 A 
ATOM      2  C   LIG    1      -34.751  71.522  27.365  0.00  0.00    +0.038 A 
ATOM      3  C   LIG    1      -35.186  70.590  26.405  0.00  0.00    +0.052 A 
ATOM      4  C   LIG    1      -34.648  69.308  26.492  0.00  0.00    +0.134 A 
ATOM      5  N   LIG    1      -33.630  68.971  27.316  0.00  0.00    -0.261 NA
ATOM      6  C   LIG    1      -33.194  69.923  28.163  0.00  0.00    +0.122 A 
ENDROOT
BRANCH   3   7
ATOM      7  N   LIG    1      -36.132  71.006  25.429  0.00  0.00    -0.284 N 
ATOM      8  H   LIG    1      -35.751  71.302  24.538  0.00  0.00    +0.155 HD
ATOM      9  C   LIG    1      -37.521  70.983  25.560  0.00  0.00    +0.222 C 
ATOM     10  O   LIG    1      -38.116  70.597  26.563  0.00  0.00    -0.275 OA
BRANCH   9  11
ATOM     11  C   LIG    1      -38.267  71.455  24.305  0.00  0.00    +0.131 C 
BRANCH  11  12
ATOM     12  C   LIG    1      -38.849  72.856  24.377  0.00  0.00    -0.039 A 
ATOM     13  C   LIG    1      -40.165  73.100  23.957  0.00  0.00    +0.006 A 
ATOM     14  C   LIG    1      -40.759  74.348  24.158  0.00  0.00    +0.025 A 
ATOM     15  C   LIG    1      -40.043  75.371  24.770  0.00  0.00    +0.048 A 
ATOM     16  C   LIG    1      -38.719  75.165  25.157  0.00  0.00    +0.025 A 
ATOM     17  C   LIG    1      -38.126  73.910  24.962  0.00  0.00    +0.006 A 
BRANCH  15  18
ATOM     18  N   LIG    1      -40.738  76.555  25.178  0.00  0.00    -0.221 N 
ATOM     19  H   LIG    1      -41.756  76.493  25.100  0.00  0.00    +0.173 HD
BRANCH  18  20
ATOM     20  S   LIG    1      -40.229  77.977  24.385  0.00  0.00    +0.040 S 
ATOM     21  C   LIG    1      -41.700  78.980  24.463  0.00  0.00    +0.218 C 
ATOM     22  O   LIG    1      -40.043  77.581  22.992  0.00  0.00    -0.155 OA
ATOM     23  O   LIG    1      -39.192  78.636  25.121  0.00  0.00    -0.155 OA
ENDBRANCH  18  20
ENDBRANCH  15  18
ENDBRANCH  11  12
ENDBRANCH   9  11
ENDBRANCH   3   7
BRANCH   1  24
ATOM     24  C   LIG    1      -33.424  72.081  29.457  0.00  0.00    +0.197 C 
ATOM     25  O   LIG    1      -33.528  71.655  30.605  0.00  0.00    -0.287 OA
BRANCH  24  33
ATOM     26  N   LIG    1      -33.000  75.613  28.490  0.00  0.00    -0.323 N 
ATOM     27  C   LIG    1      -31.966  75.483  29.387  0.00  0.00    +0.147 A 
ATOM     28  N   LIG    1      -31.150  76.464  29.789  0.00  0.00    -0.197 NA
ATOM     29  C   LIG    1      -30.238  76.073  30.680  0.00  0.00    +0.214 A 
ATOM     30  N   LIG    1      -30.092  74.845  31.190  0.00  0.00    -0.222 NA
ATOM     31  C   LIG    1      -30.952  73.878  30.787  0.00  0.00    +0.126 A 
ATOM     32  C   LIG    1      -31.932  74.169  29.841  0.00  0.00    +0.048 A 
ATOM     33  C   LIG    1      -32.990  73.461  29.202  0.00  0.00    +0.051 A 
ATOM     34  C   LIG    1      -33.473  74.339  28.245  0.00  0.00    +0.100 A 
BRANCH  26  36
ATOM     35  C   LIG    1      -34.883  76.553  27.168  0.00  0.00    +0.036 C 
ATOM     36  C   LIG    1      -33.542  76.863  27.894  0.00  0.00    +0.064 C 
ATOM     37  C   LIG    1      -32.583  77.464  26.850  0.00  0.00    +0.036 C 
BRANCH  36  38
ATOM     38  C   LIG    1      -33.871  77.952  28.965  0.00  0.00    +0.183 C 
BRANCH  38  39
ATOM     39  O   LIG    1      -33.905  79.288  28.491  0.00  0.00    -0.393 OA
ATOM     40  H   LIG    1      -34.780  79.665  28.710  0.00  0.00    +0.209 HD
ENDBRANCH  38  39
ENDBRANCH  36  38
ENDBRANCH  26  36
BRANCH  29  41
ATOM     41  N   LIG    1      -29.332  77.030  31.088  0.00  0.00    -0.327 N 
ATOM     42  H   LIG    1      -29.823  77.895  31.274  0.00  0.00    +0.145 HD
ATOM     43  H   LIG    1      -28.568  77.067  30.429  0.00  0.00    +0.145 HD
ENDBRANCH  29  41
ENDBRANCH  24  33
ENDBRANCH   1  24
TORSDOF 11
ENDMDL
MODEL 2
REMARK VINA RESULT:      -6.2     16.958     20.102
REMARK  Name = pdb/CHEMBL3671437.pdb
REMARK                            x       y       z     vdW  Elec       q    Type
REMARK                         _______ _______ _______ _____ _____    ______ ____
ROOT
ATOM      1  C   LIG    1      -20.715  81.129  15.848  0.00  0.00    +0.042 A 
ATOM      2  C   LIG    1      -20.287  79.981  16.541  0.00  0.00    +0.038 A 
ATOM      3  C   LIG    1      -18.961  79.526  16.422  0.00  0.00    +0.052 A 
ATOM      4  C   LIG    1      -18.107  80.291  15.631  0.00  0.00    +0.134 A 
ATOM      5  N   LIG    1      -18.517  81.319  14.854  0.00  0.00    -0.261 NA
ATOM      6  C   LIG    1      -19.815  81.667  14.943  0.00  0.00    +0.122 A 
ENDROOT
BRANCH   3   7
ATOM      7  N   LIG    1      -18.584  78.338  17.107  0.00  0.00    -0.284 N 
ATOM      8  H   LIG    1      -18.973  78.217  18.034  0.00  0.00    +0.155 HD
ATOM      9  C   LIG    1      -17.791  77.307  16.600  0.00  0.00    +0.222 C 
ATOM     10  O   LIG    1      -17.302  77.299  15.473  0.00  0.00    -0.275 OA
BRANCH   9  11
ATOM     11  C   LIG    1      -17.606  76.137  17.573  0.00  0.00    +0.131 C 
BRANCH  11  12
ATOM     12  C   LIG    1      -18.551  74.964  17.377  0.00  0.00    -0.039 A 
ATOM     13  C   LIG    1      -18.661  73.969  18.359  0.00  0.00    +0.006 A 
ATOM     14  C   LIG    1      -19.634  72.971  18.258  0.00  0.00    +0.025 A 
ATOM     15  C   LIG    1      -20.500  72.949  17.170  0.00  0.00    +0.048 A 
ATOM     16  C   LIG    1      -20.381  73.903  16.160  0.00  0.00    +0.025 A 
ATOM     17  C   LIG    1      -19.410  74.908  16.265  0.00  0.00    +0.006 A 
BRANCH  15  18
ATOM     18  N   LIG    1      -21.630  72.069  17.203  0.00  0.00    -0.221 N 
ATOM     19  H   LIG    1      -21.875  71.665  16.297  0.00  0.00    +0.173 HD
BRANCH  18  20
ATOM     20  S   LIG    1      -23.037  72.756  17.879  0.00  0.00    +0.040 S 
ATOM     21  C   LIG    1      -22.787  72.457  19.618  0.00  0.00    +0.218 C 
ATOM     22  O   LIG    1      -24.125  71.886  17.437  0.00  0.00    -0.155 OA
ATOM     23  O   LIG    1      -23.077  74.172  17.663  0.00  0.00    -0.155 OA
ENDBRANCH  18  20
ENDBRANCH  15  18
ENDBRANCH  11  12
ENDBRANCH   9  11
ENDBRANCH   3   7
BRANCH   1  24
ATOM     24  C   LIG    1      -22.069  81.732  16.082  0.00  0.00    +0.197 C 
ATOM     25  O   LIG    1      -22.256  82.357  17.123  0.00  0.00    -0.287 OA
BRANCH  24  33
ATOM     26  N   LIG    1      -24.401  81.756  13.226  0.00  0.00    -0.323 N 
ATOM     27  C   LIG    1      -24.860  80.650  13.903  0.00  0.00    +0.147 A 
ATOM     28  N   LIG    1      -25.835  79.830  13.492  0.00  0.00    -0.197 NA
ATOM     29  C   LIG    1      -26.074  78.820  14.331  0.00  0.00    +0.214 A 
ATOM     30  N   LIG    1      -25.441  78.566  15.480  0.00  0.00    -0.222 NA
ATOM     31  C   LIG    1      -24.437  79.396  15.855  0.00  0.00    +0.126 A 
ATOM     32  C   LIG    1      -24.114  80.498  15.066  0.00  0.00    +0.048 A 
ATOM     33  C   LIG    1      -23.154  81.550  15.108  0.00  0.00    +0.051 A 
ATOM     34  C   LIG    1      -23.512  82.394  14.069  0.00  0.00    +0.100 A 
BRANCH  26  36
ATOM     35  C   LIG    1      -23.627  83.116  11.295  0.00  0.00    +0.036 C 
ATOM     36  C   LIG    1      -24.756  82.199  11.852  0.00  0.00    +0.064 C 
ATOM     37  C   LIG    1      -26.062  83.015  11.831  0.00  0.00    +0.036 C 
BRANCH  36  38
ATOM     38  C   LIG    1      -24.884  81.011  10.846  0.00  0.00    +0.183 C 
BRANCH  38  39
ATOM     39  O   LIG    1      -26.206  80.566  10.588  0.00  0.00    -0.393 OA
ATOM     40  H   LIG    1      -26.160  79.638  10.284  0.00  0.00    +0.209 HD
ENDBRANCH  38  39
ENDBRANCH  36  38
ENDBRANCH  26  36
BRANCH  29  41
ATOM     41  N   LIG    1      -27.109  77.975  13.988  0.00  0.00    -0.327 N 
ATOM     42  H   LIG    1      -27.955  78.516  13.867  0.00  0.00    +0.145 HD
ATOM     43  H   LIG    1      -27.143  77.207  14.644  0.00  0.00    +0.145 HD
ENDBRANCH  29  41
ENDBRANCH  24  33
ENDBRANCH   1  24
TORSDOF 11
ENDMDL
MODEL 3
REMARK VINA RESULT:      -6.2      2.471      3.569
REMARK  Name = pdb/CHEMBL3671437.pdb
REMARK                            x       y       z     vdW  Elec       q    Type
REMARK                         _______ _______ _______ _____ _____    ______ ____
ROOT
ATOM      1  C   LIG    1      -33.016  73.310  28.910  0.00  0.00    +0.042 A 
ATOM      2  C   LIG    1      -33.965  73.234  27.873  0.00  0.00    +0.038 A 
ATOM      3  C   LIG    1      -34.579  72.009  27.553  0.00  0.00    +0.052 A 
ATOM      4  C   LIG    1      -34.231  70.913  28.338  0.00  0.00    +0.134 A 
ATOM      5  N   LIG    1      -33.234  70.925  29.252  0.00  0.00    -0.261 NA
ATOM      6  C   LIG    1      -32.622  72.105  29.467  0.00  0.00    +0.122 A 
ENDROOT
BRANCH   3   7
ATOM      7  N   LIG    1      -35.500  71.970  26.470  0.00  0.00    -0.284 N 
ATOM      8  H   LIG    1      -35.096  71.870  25.546  0.00  0.00    +0.155 HD
ATOM      9  C   LIG    1      -36.892  71.990  26.568  0.00  0.00    +0.222 C 
ATOM     10  O   LIG    1      -37.512  72.052  27.626  0.00  0.00    -0.275 OA
BRANCH   9  11
ATOM     11  C   LIG    1      -37.606  71.887  25.214  0.00  0.00    +0.131 C 
BRANCH  11  12
ATOM     12  C   LIG    1      -38.565  73.019  24.890  0.00  0.00    -0.039 A 
ATOM     13  C   LIG    1      -38.169  74.355  25.059  0.00  0.00    +0.006 A 
ATOM     14  C   LIG    1      -38.986  75.401  24.623  0.00  0.00    +0.025 A 
ATOM     15  C   LIG    1      -40.211  75.128  24.024  0.00  0.00    +0.048 A 
ATOM     16  C   LIG    1      -40.644  73.809  23.885  0.00  0.00    +0.025 A 
ATOM     17  C   LIG    1      -39.822  72.759  24.316  0.00  0.00    +0.006 A 
BRANCH  15  18
ATOM     18  N   LIG    1      -40.918  76.192  23.377  0.00  0.00    -0.221 N 
ATOM     19  H   LIG    1      -40.354  77.027  23.205  0.00  0.00    +0.173 HD
BRANCH  18  20
ATOM     20  S   LIG    1      -42.350  76.669  24.171  0.00  0.00    +0.040 S 
ATOM     21  C   LIG    1      -42.362  78.426  23.870  0.00  0.00    +0.218 C 
ATOM     22  O   LIG    1      -42.074  76.470  25.591  0.00  0.00    -0.155 OA
ATOM     23  O   LIG    1      -43.504  76.095  23.545  0.00  0.00    -0.155 OA
ENDBRANCH  18  20
ENDBRANCH  15  18
ENDBRANCH  11  12
ENDBRANCH   9  11
ENDBRANCH   3   7
BRANCH   1  24
ATOM     24  C   LIG    1      -32.469  74.626  29.382  0.00  0.00    +0.197 C 
ATOM     25  O   LIG    1      -31.267  74.704  29.620  0.00  0.00    -0.287 OA
BRANCH  24  33
ATOM     26  N   LIG    1      -34.755  77.256  30.586  0.00  0.00    -0.323 N 
ATOM     27  C   LIG    1      -34.312  77.837  29.420  0.00  0.00    +0.147 A 
ATOM     28  N   LIG    1      -34.624  79.064  28.990  0.00  0.00    -0.197 NA
ATOM     29  C   LIG    1      -34.045  79.390  27.833  0.00  0.00    +0.214 A 
ATOM     30  N   LIG    1      -33.209  78.633  27.115  0.00  0.00    -0.222 NA
ATOM     31  C   LIG    1      -32.886  77.406  27.591  0.00  0.00    +0.126 A 
ATOM     32  C   LIG    1      -33.450  76.953  28.782  0.00  0.00    +0.048 A 
ATOM     33  C   LIG    1      -33.354  75.781  29.586  0.00  0.00    +0.051 A 
ATOM     34  C   LIG    1      -34.324  75.944  30.563  0.00  0.00    +0.100 A 
BRANCH  26  36
ATOM     35  C   LIG    1      -35.823  76.832  32.790  0.00  0.00    +0.036 C 
ATOM     36  C   LIG    1      -35.531  77.889  31.685  0.00  0.00    +0.064 C 
ATOM     37  C   LIG    1      -36.888  78.427  31.194  0.00  0.00    +0.036 C 
BRANCH  36  38
ATOM     38  C   LIG    1      -34.752  79.046  32.388  0.00  0.00    +0.183 C 
BRANCH  38  39
ATOM     39  O   LIG    1      -33.464  78.710  32.877  0.00  0.00    -0.393 OA
ATOM     40  H   LIG    1      -33.055  78.082  32.248  0.00  0.00    +0.209 HD
ENDBRANCH  38  39
ENDBRANCH  36  38
ENDBRANCH  26  36
BRANCH  29  41
ATOM     41  N   LIG    1      -34.376  80.624  27.311  0.00  0.00    -0.327 N 
ATOM     42  H   LIG    1      -34.848  81.169  28.020  0.00  0.00    +0.145 HD
ATOM     43  H   LIG    1      -34.858  80.494  26.433  0.00  0.00    +0.145 HD
ENDBRANCH  29  41
ENDBRANCH  24  33
ENDBRANCH   1  24
TORSDOF 11
ENDMDL
MODEL 4
REMARK VINA RESULT:      -6.2     10.942     16.185
REMARK  Name = pdb/CHEMBL3671437.pdb
REMARK                            x       y       z     vdW  Elec       q    Type
REMARK                         _______ _______ _______ _____ _____    ______ ____
ROOT
ATOM      1  C   LIG    1      -21.104  76.879  30.862  0.00  0.00    +0.042 A 
ATOM      2  C   LIG    1      -20.941  77.805  31.910  0.00  0.00    +0.038 A 
ATOM      3  C   LIG    1      -19.683  77.990  32.512  0.00  0.00    +0.052 A 
ATOM      4  C   LIG    1      -18.625  77.252  31.987  0.00  0.00    +0.134 A 
ATOM      5  N   LIG    1      -18.773  76.266  31.073  0.00  0.00    -0.261 NA
ATOM      6  C   LIG    1      -20.014  76.073  30.584  0.00  0.00    +0.122 A 
ENDROOT
BRANCH   3   7
ATOM      7  N   LIG    1      -19.573  78.905  33.595  0.00  0.00    -0.284 N 
ATOM      8  H   LIG    1      -19.362  79.864  33.347  0.00  0.00    +0.155 HD
ATOM      9  C   LIG    1      -19.791  78.620  34.944  0.00  0.00    +0.222 C 
ATOM     10  O   LIG    1      -20.107  77.515  35.376  0.00  0.00    -0.275 OA
BRANCH   9  11
ATOM     11  C   LIG    1      -19.639  79.838  35.863  0.00  0.00    +0.131 C 
BRANCH  11  12
ATOM     12  C   LIG    1      -20.840  80.766  35.927  0.00  0.00    -0.039 A 
ATOM     13  C   LIG    1      -22.034  80.427  35.273  0.00  0.00    +0.006 A 
ATOM     14  C   LIG    1      -23.187  81.196  35.450  0.00  0.00    +0.025 A 
ATOM     15  C   LIG    1      -23.159  82.317  36.273  0.00  0.00    +0.048 A 
ATOM     16  C   LIG    1      -21.973  82.697  36.899  0.00  0.00    +0.025 A 
ATOM     17  C   LIG    1      -20.818  81.922  36.727  0.00  0.00    +0.006 A 
BRANCH  15  18
ATOM     18  N   LIG    1      -24.396  82.947  36.625  0.00  0.00    -0.221 N 
ATOM     19  H   LIG    1      -24.289  83.856  37.081  0.00  0.00    +0.173 HD
BRANCH  18  20
ATOM     20  S   LIG    1      -25.427  81.986  37.586  0.00  0.00    +0.040 S 
ATOM     21  C   LIG    1      -26.327  83.224  38.499  0.00  0.00    +0.218 C 
ATOM     22  O   LIG    1      -24.537  81.310  38.526  0.00  0.00    -0.155 OA
ATOM     23  O   LIG    1      -26.356  81.256  36.776  0.00  0.00    -0.155 OA
ENDBRANCH  18  20
ENDBRANCH  15  18
ENDBRANCH  11  12
ENDBRANCH   9  11
ENDBRANCH   3   7
BRANCH   1  24
ATOM     24  C   LIG    1      -22.390  76.778  30.094  0.00  0.00    +0.197 C 
ATOM     25  O   LIG    1      -22.510  77.448  29.071  0.00  0.00    -0.287 OA
BRANCH  24  33
ATOM     26  N   LIG    1      -24.612  74.139  31.393  0.00  0.00    -0.323 N 
ATOM     27  C   LIG    1      -25.451  75.225  31.481  0.00  0.00    +0.147 A 
ATOM     28  N   LIG    1      -26.684  75.221  32.000  0.00  0.00    -0.197 NA
ATOM     29  C   LIG    1      -27.279  76.415  31.978  0.00  0.00    +0.214 A 
ATOM     30  N   LIG    1      -26.761  77.559  31.519  0.00  0.00    -0.222 NA
ATOM     31  C   LIG    1      -25.498  77.539  31.028  0.00  0.00    +0.126 A 
ATOM     32  C   LIG    1      -24.789  76.340  30.981  0.00  0.00    +0.048 A 
ATOM     33  C   LIG    1      -23.489  75.927  30.571  0.00  0.00    +0.051 A 
ATOM     34  C   LIG    1      -23.515  74.545  30.659  0.00  0.00    +0.100 A 
BRANCH  26  36
ATOM     35  C   LIG    1      -25.423  72.914  33.398  0.00  0.00    +0.036 C 
ATOM     36  C   LIG    1      -24.805  72.784  31.975  0.00  0.00    +0.064 C 
ATOM     37  C   LIG    1      -23.473  72.026  32.121  0.00  0.00    +0.036 C 
BRANCH  36  38
ATOM     38  C   LIG    1      -25.800  71.906  31.149  0.00  0.00    +0.183 C 
BRANCH  38  39
ATOM     39  O   LIG    1      -27.164  72.284  31.231  0.00  0.00    -0.393 OA
ATOM     40  H   LIG    1      -27.516  71.965  32.086  0.00  0.00    +0.209 HD
ENDBRANCH  38  39
ENDBRANCH  36  38
ENDBRANCH  26  36
BRANCH  29  41
ATOM     41  N   LIG    1      -28.575  76.460  32.448  0.00  0.00    -0.327 N 
ATOM     42  H   LIG    1      -29.032  77.286  32.084  0.00  0.00    +0.145 HD
ATOM     43  H   LIG    1      -28.570  76.340  33.450  0.00  0.00    +0.145 HD
ENDBRANCH  29  41
ENDBRANCH  24  33
ENDBRANCH   1  24
TORSDOF 11
ENDMDL
MODEL 5
REMARK VINA RESULT:      -6.1     17.164     19.377
REMARK  Name = pdb/CHEMBL3671437.pdb
REMARK                            x       y       z     vdW  Elec       q    Type
REMARK                         _______ _______ _______ _____ _____    ______ ____
ROOT
ATOM      1  C   LIG    1      -19.371  76.116  14.753  0.00  0.00    +0.042 A 
ATOM      2  C   LIG    1      -20.365  76.976  15.255  0.00  0.00    +0.038 A 
ATOM      3  C   LIG    1      -21.193  77.701  14.379  0.00  0.00    +0.052 A 
ATOM      4  C   LIG    1      -21.003  77.484  13.017  0.00  0.00    +0.134 A 
ATOM      5  N   LIG    1      -19.977  76.767  12.503  0.00  0.00    -0.261 NA
ATOM      6  C   LIG    1      -19.163  76.155  13.385  0.00  0.00    +0.122 A 
ENDROOT
BRANCH   3   7
ATOM      7  N   LIG    1      -22.157  78.590  14.930  0.00  0.00    -0.284 N 
ATOM      8  H   LIG    1      -21.859  79.552  15.046  0.00  0.00    +0.155 HD
ATOM      9  C   LIG    1      -23.476  78.279  15.261  0.00  0.00    +0.222 C 
ATOM     10  O   LIG    1      -23.982  77.169  15.119  0.00  0.00    -0.275 OA
BRANCH   9  11
ATOM     11  C   LIG    1      -24.277  79.474  15.792  0.00  0.00    +0.131 C 
BRANCH  11  12
ATOM     12  C   LIG    1      -23.663  80.840  15.537  0.00  0.00    -0.039 A 
ATOM     13  C   LIG    1      -22.715  81.369  16.426  0.00  0.00    +0.006 A 
ATOM     14  C   LIG    1      -22.035  82.552  16.123  0.00  0.00    +0.025 A 
ATOM     15  C   LIG    1      -22.301  83.225  14.936  0.00  0.00    +0.048 A 
ATOM     16  C   LIG    1      -23.270  82.741  14.058  0.00  0.00    +0.025 A 
ATOM     17  C   LIG    1      -23.947  81.551  14.358  0.00  0.00    +0.006 A 
BRANCH  15  18
ATOM     18  N   LIG    1      -21.434  84.294  14.538  0.00  0.00    -0.221 N 
ATOM     19  H   LIG    1      -20.542  84.320  15.037  0.00  0.00    +0.173 HD
BRANCH  18  20
ATOM     20  S   LIG    1      -22.141  85.843  14.628  0.00  0.00    +0.040 S 
ATOM     21  C   LIG    1      -20.720  86.901  14.430  0.00  0.00    +0.218 C 
ATOM     22  O   LIG    1      -22.589  85.968  16.013  0.00  0.00    -0.155 OA
ATOM     23  O   LIG    1      -23.032  86.070  13.530  0.00  0.00    -0.155 OA
ENDBRANCH  18  20
ENDBRANCH  15  18
ENDBRANCH  11  12
ENDBRANCH   9  11
ENDBRANCH   3   7
BRANCH   1  24
ATOM     24  C   LIG    1      -18.585  75.208  15.655  0.00  0.00    +0.197 C 
ATOM     25  O   LIG    1      -17.374  75.112  15.471  0.00  0.00    -0.287 OA
BRANCH  24  33
ATOM     26  N   LIG    1      -20.798  73.175  17.790  0.00  0.00    -0.323 N 
ATOM     27  C   LIG    1      -19.630  73.099  18.512  0.00  0.00    +0.147 A 
ATOM     28  N   LIG    1      -19.443  72.378  19.624  0.00  0.00    -0.197 NA
ATOM     29  C   LIG    1      -18.207  72.468  20.119  0.00  0.00    +0.214 A 
ATOM     30  N   LIG    1      -17.189  73.170  19.610  0.00  0.00    -0.222 NA
ATOM     31  C   LIG    1      -17.400  73.866  18.466  0.00  0.00    +0.126 A 
ATOM     32  C   LIG    1      -18.661  73.863  17.873  0.00  0.00    +0.048 A 
ATOM     33  C   LIG    1      -19.252  74.429  16.707  0.00  0.00    +0.051 A 
ATOM     34  C   LIG    1      -20.602  74.140  16.822  0.00  0.00    +0.100 A 
BRANCH  26  36
ATOM     35  C   LIG    1      -23.174  72.971  17.086  0.00  0.00    +0.036 C 
ATOM     36  C   LIG    1      -22.041  72.378  17.974  0.00  0.00    +0.064 C 
ATOM     37  C   LIG    1      -22.534  72.414  19.433  0.00  0.00    +0.036 C 
BRANCH  36  38
ATOM     38  C   LIG    1      -21.877  70.889  17.532  0.00  0.00    +0.183 C 
BRANCH  38  39
ATOM     39  O   LIG    1      -21.285  70.689  16.258  0.00  0.00    -0.393 OA
ATOM     40  H   LIG    1      -21.892  70.138  15.725  0.00  0.00    +0.209 HD
ENDBRANCH  38  39
ENDBRANCH  36  38
ENDBRANCH  26  36
BRANCH  29  41
ATOM     41  N   LIG    1      -17.971  71.791  21.298  0.00  0.00    -0.327 N 
ATOM     42  H   LIG    1      -17.986  72.447  22.067  0.00  0.00    +0.145 HD
ATOM     43  H   LIG    1      -17.143  71.221  21.194  0.00  0.00    +0.145 HD
ENDBRANCH  29  41
ENDBRANCH  24  33
ENDBRANCH   1  24
TORSDOF 11
ENDMDL
MODEL 6
REMARK VINA RESULT:      -6.0      5.472      9.324
REMARK  Name = pdb/CHEMBL3671437.pdb
REMARK                            x       y       z     vdW  Elec       q    Type
REMARK                         _______ _______ _______ _____ _____    ______ ____
ROOT
ATOM      1  C   LIG    1      -43.013  72.693  22.073  0.00  0.00    +0.042 A 
ATOM      2  C   LIG    1      -42.118  71.623  21.880  0.00  0.00    +0.038 A 
ATOM      3  C   LIG    1      -42.218  70.804  20.741  0.00  0.00    +0.052 A 
ATOM      4  C   LIG    1      -43.205  71.138  19.816  0.00  0.00    +0.134 A 
ATOM      5  N   LIG    1      -44.158  72.073  20.034  0.00  0.00    -0.261 NA
ATOM      6  C   LIG    1      -44.065  72.779  21.177  0.00  0.00    +0.122 A 
ENDROOT
BRANCH   3   7
ATOM      7  N   LIG    1      -41.320  69.709  20.606  0.00  0.00    -0.284 N 
ATOM      8  H   LIG    1      -40.464  69.897  20.097  0.00  0.00    +0.155 HD
ATOM      9  C   LIG    1      -41.477  68.438  21.160  0.00  0.00    +0.222 C 
ATOM     10  O   LIG    1      -42.437  68.094  21.844  0.00  0.00    -0.275 OA
BRANCH   9  11
ATOM     11  C   LIG    1      -40.305  67.491  20.870  0.00  0.00    +0.131 C 
BRANCH  11  12
ATOM     12  C   LIG    1      -39.062  67.708  21.717  0.00  0.00    -0.039 A 
ATOM     13  C   LIG    1      -38.532  66.658  22.480  0.00  0.00    +0.006 A 
ATOM     14  C   LIG    1      -37.309  66.803  23.141  0.00  0.00    +0.025 A 
ATOM     15  C   LIG    1      -36.607  68.000  23.055  0.00  0.00    +0.048 A 
ATOM     16  C   LIG    1      -37.136  69.072  22.337  0.00  0.00    +0.025 A 
ATOM     17  C   LIG    1      -38.359  68.924  21.669  0.00  0.00    +0.006 A 
BRANCH  15  18
ATOM     18  N   LIG    1      -35.260  68.048  23.536  0.00  0.00    -0.221 N 
ATOM     19  H   LIG    1      -34.783  67.144  23.542  0.00  0.00    +0.173 HD
BRANCH  18  20
ATOM     20  S   LIG    1      -35.089  68.751  25.081  0.00  0.00    +0.040 S 
ATOM     21  C   LIG    1      -34.313  67.431  25.995  0.00  0.00    +0.218 C 
ATOM     22  O   LIG    1      -36.455  68.885  25.582  0.00  0.00    -0.155 OA
ATOM     23  O   LIG    1      -34.191  69.866  25.045  0.00  0.00    -0.155 OA
ENDBRANCH  18  20
ENDBRANCH  15  18
ENDBRANCH  11  12
ENDBRANCH   9  11
ENDBRANCH   3   7
BRANCH   1  24
ATOM     24  C   LIG    1      -42.830  73.680  23.189  0.00  0.00    +0.197 C 
ATOM     25  O   LIG    1      -43.832  74.118  23.748  0.00  0.00    -0.287 OA
BRANCH  24  33
ATOM     26  N   LIG    1      -39.796  75.488  24.245  0.00  0.00    -0.323 N 
ATOM     27  C   LIG    1      -39.366  74.190  24.393  0.00  0.00    +0.147 A 
ATOM     28  N   LIG    1      -38.181  73.809  24.883  0.00  0.00    -0.197 NA
ATOM     29  C   LIG    1      -38.023  72.485  24.934  0.00  0.00    +0.214 A 
ATOM     30  N   LIG    1      -38.914  71.557  24.570  0.00  0.00    -0.222 NA
ATOM     31  C   LIG    1      -40.118  71.973  24.107  0.00  0.00    +0.126 A 
ATOM     32  C   LIG    1      -40.385  73.335  23.989  0.00  0.00    +0.048 A 
ATOM     33  C   LIG    1      -41.489  74.137  23.579  0.00  0.00    +0.051 A 
ATOM     34  C   LIG    1      -40.997  75.432  23.567  0.00  0.00    +0.100 A 
BRANCH  26  36
ATOM     35  C   LIG    1      -39.874  77.971  24.145  0.00  0.00    +0.036 C 
ATOM     36  C   LIG    1      -39.133  76.731  24.724  0.00  0.00    +0.064 C 
ATOM     37  C   LIG    1      -37.667  76.815  24.261  0.00  0.00    +0.036 C 
BRANCH  36  38
ATOM     38  C   LIG    1      -39.183  76.884  26.278  0.00  0.00    +0.183 C 
BRANCH  38  39
ATOM     39  O   LIG    1      -38.356  77.899  26.821  0.00  0.00    -0.393 OA
ATOM     40  H   LIG    1      -38.711  78.765  26.535  0.00  0.00    +0.209 HD
ENDBRANCH  38  39
ENDBRANCH  36  38
ENDBRANCH  26  36
BRANCH  29  41
ATOM     41  N   LIG    1      -36.797  72.033  25.377  0.00  0.00    -0.327 N 
ATOM     42  H   LIG    1      -36.088  72.718  25.149  0.00  0.00    +0.145 HD
ATOM     43  H   LIG    1      -36.650  71.091  25.045  0.00  0.00    +0.145 HD
ENDBRANCH  29  41
ENDBRANCH  24  33
ENDBRANCH   1  24
TORSDOF 11
ENDMDL
MODEL 7
REMARK VINA RESULT:      -5.9      5.663      9.197
REMARK  Name = pdb/CHEMBL3671437.pdb
REMARK                            x       y       z     vdW  Elec       q    Type
REMARK                         _______ _______ _______ _____ _____    ______ ____
ROOT
ATOM      1  C   LIG    1      -27.325  75.250  32.151  0.00  0.00    +0.042 A 
ATOM      2  C   LIG    1      -28.578  74.736  31.767  0.00  0.00    +0.038 A 
ATOM      3  C   LIG    1      -28.939  73.415  32.088  0.00  0.00    +0.052 A 
ATOM      4  C   LIG    1      -28.018  72.680  32.832  0.00  0.00    +0.134 A 
ATOM      5  N   LIG    1      -26.761  73.099  33.104  0.00  0.00    -0.261 NA
ATOM      6  C   LIG    1      -26.437  74.344  32.706  0.00  0.00    +0.122 A 
ENDROOT
BRANCH   3   7
ATOM      7  N   LIG    1      -30.197  72.923  31.644  0.00  0.00    -0.284 N 
ATOM      8  H   LIG    1      -31.009  73.260  32.149  0.00  0.00    +0.155 HD
ATOM      9  C   LIG    1      -30.418  72.084  30.552  0.00  0.00    +0.222 C 
ATOM     10  O   LIG    1      -29.532  71.648  29.822  0.00  0.00    -0.275 OA
BRANCH   9  11
ATOM     11  C   LIG    1      -31.900  71.772  30.304  0.00  0.00    +0.131 C 
BRANCH  11  12
ATOM     12  C   LIG    1      -32.693  72.865  29.607  0.00  0.00    -0.039 A 
ATOM     13  C   LIG    1      -32.203  74.178  29.563  0.00  0.00    +0.006 A 
ATOM     14  C   LIG    1      -32.847  75.154  28.798  0.00  0.00    +0.025 A 
ATOM     15  C   LIG    1      -33.992  74.832  28.077  0.00  0.00    +0.048 A 
ATOM     16  C   LIG    1      -34.521  73.543  28.140  0.00  0.00    +0.025 A 
ATOM     17  C   LIG    1      -33.871  72.563  28.902  0.00  0.00    +0.006 A 
BRANCH  15  18
ATOM     18  N   LIG    1      -34.495  75.773  27.122  0.00  0.00    -0.221 N 
ATOM     19  H   LIG    1      -33.772  76.239  26.569  0.00  0.00    +0.173 HD
BRANCH  18  20
ATOM     20  S   LIG    1      -35.514  76.971  27.783  0.00  0.00    +0.040 S 
ATOM     21  C   LIG    1      -36.998  76.755  26.820  0.00  0.00    +0.218 C 
ATOM     22  O   LIG    1      -34.911  78.238  27.379  0.00  0.00    -0.155 OA
ATOM     23  O   LIG    1      -35.819  76.690  29.154  0.00  0.00    -0.155 OA
ENDBRANCH  18  20
ENDBRANCH  15  18
ENDBRANCH  11  12
ENDBRANCH   9  11
ENDBRANCH   3   7
BRANCH   1  24
ATOM     24  C   LIG    1      -26.980  76.699  31.969  0.00  0.00    +0.197 C 
ATOM     25  O   LIG    1      -27.853  77.458  31.557  0.00  0.00    -0.287 OA
BRANCH  24  33
ATOM     26  N   LIG    1      -23.769  77.850  33.370  0.00  0.00    -0.323 N 
ATOM     27  C   LIG    1      -23.403  77.652  32.059  0.00  0.00    +0.147 A 
ATOM     28  N   LIG    1      -22.168  77.786  31.563  0.00  0.00    -0.197 NA
ATOM     29  C   LIG    1      -22.082  77.520  30.258  0.00  0.00    +0.214 A 
ATOM     30  N   LIG    1      -23.077  77.134  29.453  0.00  0.00    -0.222 NA
ATOM     31  C   LIG    1      -24.312  76.977  29.990  0.00  0.00    +0.126 A 
ATOM     32  C   LIG    1      -24.522  77.249  31.340  0.00  0.00    +0.048 A 
ATOM     33  C   LIG    1      -25.622  77.191  32.243  0.00  0.00    +0.051 A 
ATOM     34  C   LIG    1      -25.147  77.760  33.414  0.00  0.00    +0.100 A 
BRANCH  26  36
ATOM     35  C   LIG    1      -21.992  76.843  34.786  0.00  0.00    +0.036 C 
ATOM     36  C   LIG    1      -22.884  78.094  34.540  0.00  0.00    +0.064 C 
ATOM     37  C   LIG    1      -23.690  78.344  35.828  0.00  0.00    +0.036 C 
BRANCH  36  38
ATOM     38  C   LIG    1      -21.902  79.289  34.317  0.00  0.00    +0.183 C 
BRANCH  38  39
ATOM     39  O   LIG    1      -20.592  78.937  33.905  0.00  0.00    -0.393 OA
ATOM     40  H   LIG    1      -20.656  78.494  33.035  0.00  0.00    +0.209 HD
ENDBRANCH  38  39
ENDBRANCH  36  38
ENDBRANCH  26  36
BRANCH  29  41
ATOM     41  N   LIG    1      -20.842  77.697  29.679  0.00  0.00    -0.327 N 
ATOM     42  H   LIG    1      -20.278  78.287  30.276  0.00  0.00    +0.145 HD
ATOM     43  H   LIG    1      -20.963  77.992  28.721  0.00  0.00    +0.145 HD
ENDBRANCH  29  41
ENDBRANCH  24  33
ENDBRANCH   1  24
TORSDOF 11
ENDMDL
MODEL 8
REMARK VINA RESULT:      -5.9      4.131      9.152
REMARK  Name = pdb/CHEMBL3671437.pdb
REMARK                            x       y       z     vdW  Elec       q    Type
REMARK                         _______ _______ _______ _____ _____    ______ ____
ROOT
ATOM      1  C   LIG    1      -41.723  69.579  21.352  0.00  0.00    +0.042 A 
ATOM      2  C   LIG    1      -41.462  70.887  21.801  0.00  0.00    +0.038 A 
ATOM      3  C   LIG    1      -42.516  71.794  22.014  0.00  0.00    +0.052 A 
ATOM      4  C   LIG    1      -43.806  71.313  21.803  0.00  0.00    +0.134 A 
ATOM      5  N   LIG    1      -44.081  70.109  21.250  0.00  0.00    -0.261 NA
ATOM      6  C   LIG    1      -43.032  69.307  20.990  0.00  0.00    +0.122 A 
ENDROOT
BRANCH   3   7
ATOM      7  N   LIG    1      -42.203  73.118  22.428  0.00  0.00    -0.284 N 
ATOM      8  H   LIG    1      -41.931  73.761  21.694  0.00  0.00    +0.155 HD
ATOM      9  C   LIG    1      -42.299  73.623  23.725  0.00  0.00    +0.222 C 
ATOM     10  O   LIG    1      -42.669  72.971  24.698  0.00  0.00    -0.275 OA
BRANCH   9  11
ATOM     11  C   LIG    1      -41.934  75.109  23.836  0.00  0.00    +0.131 C 
BRANCH  11  12
ATOM     12  C   LIG    1      -40.468  75.406  24.106  0.00  0.00    -0.039 A 
ATOM     13  C   LIG    1      -40.006  76.730  24.133  0.00  0.00    +0.006 A 
ATOM     14  C   LIG    1      -38.697  77.021  24.527  0.00  0.00    +0.025 A 
ATOM     15  C   LIG    1      -37.833  75.993  24.889  0.00  0.00    +0.048 A 
ATOM     16  C   LIG    1      -38.258  74.666  24.828  0.00  0.00    +0.025 A 
ATOM     17  C   LIG    1      -39.573  74.375  24.439  0.00  0.00    +0.006 A 
BRANCH  15  18
ATOM     18  N   LIG    1      -36.586  76.324  25.510  0.00  0.00    -0.221 N 
ATOM     19  H   LIG    1      -35.891  75.575  25.484  0.00  0.00    +0.173 HD
BRANCH  18  20
ATOM     20  S   LIG    1      -36.725  76.867  27.121  0.00  0.00    +0.040 S 
ATOM     21  C   LIG    1      -35.168  76.345  27.814  0.00  0.00    +0.218 C 
ATOM     22  O   LIG    1      -37.767  76.029  27.708  0.00  0.00    -0.155 OA
ATOM     23  O   LIG    1      -36.791  78.296  27.181  0.00  0.00    -0.155 OA
ENDBRANCH  18  20
ENDBRANCH  15  18
ENDBRANCH  11  12
ENDBRANCH   9  11
ENDBRANCH   3   7
BRANCH   1  24
ATOM     24  C   LIG    1      -40.640  68.542  21.273  0.00  0.00    +0.197 C 
ATOM     25  O   LIG    1      -40.830  67.555  20.567  0.00  0.00    -0.287 OA
BRANCH  24  33
ATOM     26  N   LIG    1      -37.982  69.120  23.761  0.00  0.00    -0.323 N 
ATOM     27  C   LIG    1      -37.277  68.411  22.816  0.00  0.00    +0.147 A 
ATOM     28  N   LIG    1      -36.003  68.018  22.922  0.00  0.00    -0.197 NA
ATOM     29  C   LIG    1      -35.565  67.329  21.867  0.00  0.00    +0.214 A 
ATOM     30  N   LIG    1      -36.266  67.003  20.776  0.00  0.00    -0.222 NA
ATOM     31  C   LIG    1      -37.564  67.388  20.710  0.00  0.00    +0.126 A 
ATOM     32  C   LIG    1      -38.121  68.133  21.748  0.00  0.00    +0.048 A 
ATOM     33  C   LIG    1      -39.399  68.688  22.046  0.00  0.00    +0.051 A 
ATOM     34  C   LIG    1      -39.195  69.446  23.188  0.00  0.00    +0.100 A 
BRANCH  26  36
ATOM     35  C   LIG    1      -37.010  68.198  25.855  0.00  0.00    +0.036 C 
ATOM     36  C   LIG    1      -37.561  69.469  25.144  0.00  0.00    +0.064 C 
ATOM     37  C   LIG    1      -38.737  69.993  25.988  0.00  0.00    +0.036 C 
BRANCH  36  38
ATOM     38  C   LIG    1      -36.405  70.519  25.179  0.00  0.00    +0.183 C 
BRANCH  38  39
ATOM     39  O   LIG    1      -36.508  71.576  24.238  0.00  0.00    -0.393 OA
ATOM     40  H   LIG    1      -37.024  71.251  23.473  0.00  0.00    +0.209 HD
ENDBRANCH  38  39
ENDBRANCH  36  38
ENDBRANCH  26  36
BRANCH  29  41
ATOM     41  N   LIG    1      -34.239  66.947  21.895  0.00  0.00    -0.327 N 
ATOM     42  H   LIG    1      -33.723  67.485  21.211  0.00  0.00    +0.145 HD
ATOM     43  H   LIG    1      -34.182  65.941  21.827  0.00  0.00    +0.145 HD
ENDBRANCH  29  41
ENDBRANCH  24  33
ENDBRANCH   1  24
TORSDOF 11
ENDMDL
MODEL 9
REMARK VINA RESULT:      -5.9     20.183     23.227
REMARK  Name = pdb/CHEMBL3671437.pdb
REMARK                            x       y       z     vdW  Elec       q    Type
REMARK                         _______ _______ _______ _____ _____    ______ ____
ROOT
ATOM      1  C   LIG    1      -23.007  87.123  12.962  0.00  0.00    +0.042 A 
ATOM      2  C   LIG    1      -23.018  85.883  13.628  0.00  0.00    +0.038 A 
ATOM      3  C   LIG    1      -22.544  85.775  14.948  0.00  0.00    +0.052 A 
ATOM      4  C   LIG    1      -22.116  86.953  15.556  0.00  0.00    +0.134 A 
ATOM      5  N   LIG    1      -21.973  88.130  14.903  0.00  0.00    -0.261 NA
ATOM      6  C   LIG    1      -22.368  88.162  13.616  0.00  0.00    +0.122 A 
ENDROOT
BRANCH   3   7
ATOM      7  N   LIG    1      -22.534  84.495  15.568  0.00  0.00    -0.284 N 
ATOM      8  H   LIG    1      -23.134  84.389  16.377  0.00  0.00    +0.155 HD
ATOM      9  C   LIG    1      -21.835  83.370  15.130  0.00  0.00    +0.222 C 
ATOM     10  O   LIG    1      -21.117  83.344  14.134  0.00  0.00    -0.275 OA
BRANCH   9  11
ATOM     11  C   LIG    1      -22.072  82.124  15.993  0.00  0.00    +0.131 C 
BRANCH  11  12
ATOM     12  C   LIG    1      -23.143  81.171  15.490  0.00  0.00    -0.039 A 
ATOM     13  C   LIG    1      -23.332  79.926  16.108  0.00  0.00    +0.006 A 
ATOM     14  C   LIG    1      -24.408  79.109  15.752  0.00  0.00    +0.025 A 
ATOM     15  C   LIG    1      -25.302  79.521  14.769  0.00  0.00    +0.048 A 
ATOM     16  C   LIG    1      -25.109  80.736  14.111  0.00  0.00    +0.025 A 
ATOM     17  C   LIG    1      -24.033  81.558  14.473  0.00  0.00    +0.006 A 
BRANCH  15  18
ATOM     18  N   LIG    1      -26.518  78.787  14.588  0.00  0.00    -0.221 N 
ATOM     19  H   LIG    1      -26.930  78.435  15.455  0.00  0.00    +0.173 HD
BRANCH  18  20
ATOM     20  S   LIG    1      -26.399  77.489  13.489  0.00  0.00    +0.040 S 
ATOM     21  C   LIG    1      -27.959  77.596  12.633  0.00  0.00    +0.218 C 
ATOM     22  O   LIG    1      -26.439  76.290  14.322  0.00  0.00    -0.155 OA
ATOM     23  O   LIG    1      -25.347  77.707  12.542  0.00  0.00    -0.155 OA
ENDBRANCH  18  20
ENDBRANCH  15  18
ENDBRANCH  11  12
ENDBRANCH   9  11
ENDBRANCH   3   7
BRANCH   1  24
ATOM     24  C   LIG    1      -23.656  87.302  11.620  0.00  0.00    +0.197 C 
ATOM     25  O   LIG    1      -24.000  86.297  11.002  0.00  0.00    -0.287 OA
BRANCH  24  33
ATOM     26  N   LIG    1      -24.758  90.660  10.571  0.00  0.00    -0.323 N 
ATOM     27  C   LIG    1      -23.445  90.699  10.163  0.00  0.00    +0.147 A 
ATOM     28  N   LIG    1      -22.823  91.755   9.626  0.00  0.00    -0.197 NA
ATOM     29  C   LIG    1      -21.541  91.530   9.333  0.00  0.00    +0.214 A 
ATOM     30  N   LIG    1      -20.859  90.398   9.538  0.00  0.00    -0.222 NA
ATOM     31  C   LIG    1      -21.507  89.355  10.111  0.00  0.00    +0.126 A 
ATOM     32  C   LIG    1      -22.856  89.470  10.439  0.00  0.00    +0.048 A 
ATOM     33  C   LIG    1      -23.843  88.641  11.046  0.00  0.00    +0.051 A 
ATOM     34  C   LIG    1      -25.027  89.349  10.913  0.00  0.00    +0.100 A 
BRANCH  26  36
ATOM     35  C   LIG    1      -26.117  92.246   9.223  0.00  0.00    +0.036 C 
ATOM     36  C   LIG    1      -25.722  91.789  10.658  0.00  0.00    +0.064 C 
ATOM     37  C   LIG    1      -25.115  93.008  11.377  0.00  0.00    +0.036 C 
BRANCH  36  38
ATOM     38  C   LIG    1      -27.055  91.394  11.370  0.00  0.00    +0.183 C 
BRANCH  38  39
ATOM     39  O   LIG    1      -27.124  91.694  12.754  0.00  0.00    -0.393 OA
ATOM     40  H   LIG    1      -28.059  91.869  12.980  0.00  0.00    +0.209 HD
ENDBRANCH  38  39
ENDBRANCH  36  38
ENDBRANCH  26  36
BRANCH  29  41
ATOM     41  N   LIG    1      -20.863  92.566   8.724  0.00  0.00    -0.327 N 
ATOM     42  H   LIG    1      -20.925  93.392   9.305  0.00  0.00    +0.145 HD
ATOM     43  H   LIG    1      -21.177  92.651   7.768  0.00  0.00    +0.145 HD
ENDBRANCH  29  41
ENDBRANCH  24  33
ENDBRANCH   1  24
TORSDOF 11
ENDMDL
