MODEL 1
REMARK VINA RESULT:      -5.9      0.000      0.000
REMARK  Name = pdb/CHEMBL3675960.pdb
REMARK                            x       y       z     vdW  Elec       q    Type
REMARK                         _______ _______ _______ _____ _____    ______ ____
ROOT
ATOM      1  C   LIG    1      -18.870  77.999  31.786  0.00  0.00    +0.105 C 
ATOM      2  N   LIG    1      -19.795  76.863  31.574  0.00  0.00    -0.308 N 
ATOM      3  C   LIG    1      -19.022  75.633  31.416  0.00  0.00    +0.107 C 
ATOM      4  C   LIG    1      -17.718  76.101  30.802  0.00  0.00    +0.021 C 
ATOM      5  C   LIG    1      -17.460  77.435  31.482  0.00  0.00    +0.029 C 
ENDROOT
BRANCH   2   6
ATOM      6  C   LIG    1      -21.108  76.947  31.109  0.00  0.00    +0.126 A 
ATOM      7  N   LIG    1      -22.064  77.268  31.970  0.00  0.00    -0.212 NA
ATOM      8  C   LIG    1      -23.365  77.331  31.538  0.00  0.00    +0.170 A 
ATOM      9  C   LIG    1      -24.570  77.625  32.174  0.00  0.00    +0.100 A 
ATOM     10  C   LIG    1      -25.525  77.556  31.131  0.00  0.00    +0.150 A 
ATOM     11  N   LIG    1      -25.014  77.192  29.957  0.00  0.00    -0.173 NA
ATOM     12  N   LIG    1      -23.690  77.070  30.198  0.00  0.00    -0.221 N 
ATOM     13  C   LIG    1      -22.702  76.755  29.278  0.00  0.00    +0.118 A 
ATOM     14  C   LIG    1      -21.420  76.689  29.655  0.00  0.00    +0.063 A 
BRANCH   9  15
ATOM     15  C   LIG    1      -24.872  77.937  33.566  0.00  0.00    +0.249 C 
ATOM     16  N   LIG    1      -23.805  78.158  34.406  0.00  0.00    -0.308 N 
ATOM     17  H   LIG    1      -22.888  78.245  33.962  0.00  0.00    +0.149 HD
ATOM     18  O   LIG    1      -26.054  77.979  33.964  0.00  0.00    -0.270 OA
BRANCH  16  19
ATOM     19  C   LIG    1      -23.928  78.468  35.805  0.00  0.00    +0.073 C 
ATOM     20  C   LIG    1      -22.831  78.042  36.757  0.00  0.00    +0.024 C 
ATOM     21  C   LIG    1      -24.195  77.442  36.873  0.00  0.00    +0.024 C 
ENDBRANCH  16  19
ENDBRANCH   9  15
ENDBRANCH   2   6
BRANCH   1  25
ATOM     22  F   LIG    1      -17.301  78.283  36.423  0.00  0.00    -0.205 F 
ATOM     23  C   LIG    1      -18.193  78.643  35.491  0.00  0.00    +0.127 A 
ATOM     24  C   LIG    1      -18.055  78.172  34.193  0.00  0.00    +0.044 A 
ATOM     25  C   LIG    1      -18.977  78.541  33.202  0.00  0.00    -0.021 A 
ATOM     26  C   LIG    1      -20.018  79.419  33.559  0.00  0.00    +0.051 A 
ATOM     27  C   LIG    1      -20.154  79.884  34.873  0.00  0.00    +0.124 A 
ATOM     28  C   LIG    1      -19.244  79.476  35.845  0.00  0.00    +0.084 A 
BRANCH  27  29
ATOM     29  O   LIG    1      -21.231  80.703  35.100  0.00  0.00    -0.491 OA
BRANCH  29  30
ATOM     30  C   LIG    1      -21.150  81.478  36.301  0.00  0.00    +0.244 C 
BRANCH  30  31
ATOM     31  C   LIG    1      -22.430  82.306  36.460  0.00  0.00    +0.125 C 
BRANCH  31  32
ATOM     32  N   LIG    1      -23.428  81.680  37.352  0.00  0.00    -0.295 NA
ATOM     33  C   LIG    1      -24.826  81.866  36.899  0.00  0.00    +0.112 C 
ATOM     34  C   LIG    1      -25.307  83.321  36.997  0.00  0.00    +0.175 C 
ATOM     35  O   LIG    1      -25.192  83.812  38.338  0.00  0.00    -0.377 OA
ATOM     36  C   LIG    1      -23.849  83.690  38.825  0.00  0.00    +0.175 C 
ATOM     37  C   LIG    1      -23.333  82.243  38.720  0.00  0.00    +0.112 C 
ENDBRANCH  31  32
ENDBRANCH  30  31
ENDBRANCH  29  30
ENDBRANCH  27  29
ENDBRANCH   1  25
TORSDOF 8
ENDMDL
MODEL 2
REMARK VINA RESULT:      -5.8     13.967     19.172
REMARK  Name = pdb/CHEMBL3675960.pdb
REMARK                            x       y       z     vdW  Elec       q    Type
REMARK                         _______ _______ _______ _____ _____    ______ ____
ROOT
ATOM      1  C   LIG    1      -37.850  75.457  25.188  0.00  0.00    +0.105 C 
ATOM      2  N   LIG    1      -37.709  75.363  26.659  0.00  0.00    -0.308 N 
ATOM      3  C   LIG    1      -38.336  76.527  27.281  0.00  0.00    +0.107 C 
ATOM      4  C   LIG    1      -38.179  77.620  26.244  0.00  0.00    +0.021 C 
ATOM      5  C   LIG    1      -38.371  76.892  24.925  0.00  0.00    +0.029 C 
ENDROOT
BRANCH   2   6
ATOM      6  C   LIG    1      -36.757  74.610  27.347  0.00  0.00    +0.126 A 
ATOM      7  N   LIG    1      -35.611  75.191  27.677  0.00  0.00    -0.212 NA
ATOM      8  C   LIG    1      -34.651  74.460  28.332  0.00  0.00    +0.170 A 
ATOM      9  C   LIG    1      -33.373  74.763  28.801  0.00  0.00    +0.100 A 
ATOM     10  C   LIG    1      -32.952  73.563  29.422  0.00  0.00    +0.150 A 
ATOM     11  N   LIG    1      -33.825  72.564  29.313  0.00  0.00    -0.173 NA
ATOM     12  N   LIG    1      -34.874  73.114  28.662  0.00  0.00    -0.221 N 
ATOM     13  C   LIG    1      -36.074  72.496  28.345  0.00  0.00    +0.118 A 
ATOM     14  C   LIG    1      -37.039  73.173  27.713  0.00  0.00    +0.063 A 
BRANCH   9  15
ATOM     15  C   LIG    1      -32.584  75.986  28.719  0.00  0.00    +0.249 C 
ATOM     16  N   LIG    1      -33.120  77.034  28.007  0.00  0.00    -0.308 N 
ATOM     17  H   LIG    1      -34.098  76.937  27.724  0.00  0.00    +0.149 HD
ATOM     18  O   LIG    1      -31.462  76.054  29.262  0.00  0.00    -0.270 OA
BRANCH  16  19
ATOM     19  C   LIG    1      -32.470  78.302  27.822  0.00  0.00    +0.073 C 
ATOM     20  C   LIG    1      -33.300  79.515  27.459  0.00  0.00    +0.024 C 
ATOM     21  C   LIG    1      -32.302  78.975  26.486  0.00  0.00    +0.024 C 
ENDBRANCH  16  19
ENDBRANCH   9  15
ENDBRANCH   2   6
BRANCH   1  25
ATOM     22  F   LIG    1      -42.190  74.076  23.373  0.00  0.00    -0.205 F 
ATOM     23  C   LIG    1      -40.959  73.740  23.782  0.00  0.00    +0.127 A 
ATOM     24  C   LIG    1      -40.092  74.729  24.226  0.00  0.00    +0.044 A 
ATOM     25  C   LIG    1      -38.799  74.397  24.654  0.00  0.00    -0.021 A 
ATOM     26  C   LIG    1      -38.405  73.048  24.591  0.00  0.00    +0.051 A 
ATOM     27  C   LIG    1      -39.288  72.055  24.148  0.00  0.00    +0.124 A 
ATOM     28  C   LIG    1      -40.578  72.407  23.760  0.00  0.00    +0.084 A 
BRANCH  27  29
ATOM     29  O   LIG    1      -38.796  70.775  24.170  0.00  0.00    -0.491 OA
BRANCH  29  30
ATOM     30  C   LIG    1      -38.808  70.152  25.459  0.00  0.00    +0.244 C 
BRANCH  30  31
ATOM     31  C   LIG    1      -37.366  69.890  25.911  0.00  0.00    +0.125 C 
BRANCH  31  32
ATOM     32  N   LIG    1      -36.996  68.460  25.895  0.00  0.00    -0.295 NA
ATOM     33  C   LIG    1      -35.596  68.206  26.308  0.00  0.00    +0.112 C 
ATOM     34  C   LIG    1      -34.562  68.726  25.298  0.00  0.00    +0.175 C 
ATOM     35  O   LIG    1      -34.769  68.145  24.005  0.00  0.00    -0.377 OA
ATOM     36  C   LIG    1      -36.101  68.385  23.532  0.00  0.00    +0.175 C 
ATOM     37  C   LIG    1      -37.161  67.892  24.535  0.00  0.00    +0.112 C 
ENDBRANCH  31  32
ENDBRANCH  30  31
ENDBRANCH  29  30
ENDBRANCH  27  29
ENDBRANCH   1  25
TORSDOF 8
ENDMDL
MODEL 3
REMARK VINA RESULT:      -5.7      3.146      6.785
REMARK  Name = pdb/CHEMBL3675960.pdb
REMARK                            x       y       z     vdW  Elec       q    Type
REMARK                         _______ _______ _______ _____ _____    ______ ____
ROOT
ATOM      1  C   LIG    1      -22.290  80.039  34.695  0.00  0.00    +0.105 C 
ATOM      2  N   LIG    1      -20.901  79.546  34.833  0.00  0.00    -0.308 N 
ATOM      3  C   LIG    1      -20.257  80.221  35.957  0.00  0.00    +0.107 C 
ATOM      4  C   LIG    1      -20.939  81.573  36.007  0.00  0.00    +0.021 C 
ATOM      5  C   LIG    1      -22.380  81.261  35.643  0.00  0.00    +0.029 C 
ENDROOT
BRANCH   2   6
ATOM      6  C   LIG    1      -20.141  78.940  33.832  0.00  0.00    +0.126 A 
ATOM      7  N   LIG    1      -20.771  78.420  32.787  0.00  0.00    -0.212 NA
ATOM      8  C   LIG    1      -20.043  77.798  31.804  0.00  0.00    +0.170 A 
ATOM      9  C   LIG    1      -20.392  77.161  30.614  0.00  0.00    +0.100 A 
ATOM     10  C   LIG    1      -19.146  76.785  30.057  0.00  0.00    +0.150 A 
ATOM     11  N   LIG    1      -18.101  77.080  30.827  0.00  0.00    -0.173 NA
ATOM     12  N   LIG    1      -18.644  77.716  31.889  0.00  0.00    -0.221 N 
ATOM     13  C   LIG    1      -17.966  78.273  32.962  0.00  0.00    +0.118 A 
ATOM     14  C   LIG    1      -18.636  78.895  33.939  0.00  0.00    +0.063 A 
BRANCH   9  15
ATOM     15  C   LIG    1      -21.692  76.898  30.009  0.00  0.00    +0.249 C 
ATOM     16  N   LIG    1      -22.805  77.148  30.779  0.00  0.00    -0.308 N 
ATOM     17  H   LIG    1      -22.647  77.648  31.657  0.00  0.00    +0.149 HD
ATOM     18  O   LIG    1      -21.772  76.448  28.848  0.00  0.00    -0.270 OA
BRANCH  16  19
ATOM     19  C   LIG    1      -24.157  76.935  30.338  0.00  0.00    +0.073 C 
ATOM     20  C   LIG    1      -25.255  77.839  30.856  0.00  0.00    +0.024 C 
ATOM     21  C   LIG    1      -25.251  76.388  31.215  0.00  0.00    +0.024 C 
ENDBRANCH  16  19
ENDBRANCH   9  15
ENDBRANCH   2   6
BRANCH   1  25
ATOM     22  F   LIG    1      -26.618  77.811  34.108  0.00  0.00    -0.205 F 
ATOM     23  C   LIG    1      -25.451  77.894  34.760  0.00  0.00    +0.127 A 
ATOM     24  C   LIG    1      -24.526  78.859  34.387  0.00  0.00    +0.044 A 
ATOM     25  C   LIG    1      -23.298  78.960  35.056  0.00  0.00    -0.021 A 
ATOM     26  C   LIG    1      -23.026  78.040  36.086  0.00  0.00    +0.051 A 
ATOM     27  C   LIG    1      -23.968  77.073  36.460  0.00  0.00    +0.124 A 
ATOM     28  C   LIG    1      -25.194  77.017  35.802  0.00  0.00    +0.084 A 
BRANCH  27  29
ATOM     29  O   LIG    1      -23.598  76.262  37.502  0.00  0.00    -0.491 OA
BRANCH  29  30
ATOM     30  C   LIG    1      -22.324  75.628  37.344  0.00  0.00    +0.244 C 
BRANCH  30  31
ATOM     31  C   LIG    1      -22.502  74.309  36.582  0.00  0.00    +0.125 C 
BRANCH  31  32
ATOM     32  N   LIG    1      -21.437  74.054  35.590  0.00  0.00    -0.295 NA
ATOM     33  C   LIG    1      -21.274  75.145  34.602  0.00  0.00    +0.112 C 
ATOM     34  C   LIG    1      -22.464  75.271  33.638  0.00  0.00    +0.175 C 
ATOM     35  O   LIG    1      -22.688  74.045  32.933  0.00  0.00    -0.377 OA
ATOM     36  C   LIG    1      -22.886  72.950  33.838  0.00  0.00    +0.175 C 
ATOM     37  C   LIG    1      -21.716  72.812  34.831  0.00  0.00    +0.112 C 
ENDBRANCH  31  32
ENDBRANCH  30  31
ENDBRANCH  29  30
ENDBRANCH  27  29
ENDBRANCH   1  25
TORSDOF 8
ENDMDL
MODEL 4
REMARK VINA RESULT:      -5.7     16.311     21.421
REMARK  Name = pdb/CHEMBL3675960.pdb
REMARK                            x       y       z     vdW  Elec       q    Type
REMARK                         _______ _______ _______ _____ _____    ______ ____
ROOT
ATOM      1  C   LIG    1      -38.487  69.874  25.207  0.00  0.00    +0.105 C 
ATOM      2  N   LIG    1      -37.890  71.190  25.526  0.00  0.00    -0.308 N 
ATOM      3  C   LIG    1      -37.021  71.058  26.693  0.00  0.00    +0.107 C 
ATOM      4  C   LIG    1      -37.649  69.931  27.486  0.00  0.00    +0.021 C 
ATOM      5  C   LIG    1      -38.140  68.970  26.417  0.00  0.00    +0.029 C 
ENDROOT
BRANCH   2   6
ATOM      6  C   LIG    1      -38.394  72.435  25.147  0.00  0.00    +0.126 A 
ATOM      7  N   LIG    1      -37.809  73.526  25.625  0.00  0.00    -0.212 NA
ATOM      8  C   LIG    1      -38.306  74.759  25.284  0.00  0.00    +0.170 A 
ATOM      9  C   LIG    1      -37.936  76.062  25.612  0.00  0.00    +0.100 A 
ATOM     10  C   LIG    1      -38.844  76.863  24.879  0.00  0.00    +0.150 A 
ATOM     11  N   LIG    1      -39.751  76.164  24.201  0.00  0.00    -0.173 NA
ATOM     12  N   LIG    1      -39.415  74.876  24.432  0.00  0.00    -0.221 N 
ATOM     13  C   LIG    1      -40.025  73.748  23.905  0.00  0.00    +0.118 A 
ATOM     14  C   LIG    1      -39.569  72.527  24.205  0.00  0.00    +0.063 A 
BRANCH   9  15
ATOM     15  C   LIG    1      -36.886  76.573  26.487  0.00  0.00    +0.249 C 
ATOM     16  N   LIG    1      -35.917  75.684  26.892  0.00  0.00    -0.308 N 
ATOM     17  H   LIG    1      -35.913  74.774  26.425  0.00  0.00    +0.149 HD
ATOM     18  O   LIG    1      -36.894  77.764  26.856  0.00  0.00    -0.270 OA
BRANCH  16  19
ATOM     19  C   LIG    1      -34.821  76.022  27.758  0.00  0.00    +0.073 C 
ATOM     20  C   LIG    1      -33.495  76.426  27.151  0.00  0.00    +0.024 C 
ATOM     21  C   LIG    1      -33.599  75.163  27.942  0.00  0.00    +0.024 C 
ENDBRANCH  16  19
ENDBRANCH   9  15
ENDBRANCH   2   6
BRANCH   1  25
ATOM     22  F   LIG    1      -39.004  68.632  20.492  0.00  0.00    -0.205 F 
ATOM     23  C   LIG    1      -38.229  68.693  21.583  0.00  0.00    +0.127 A 
ATOM     24  C   LIG    1      -38.735  69.243  22.752  0.00  0.00    +0.044 A 
ATOM     25  C   LIG    1      -37.937  69.319  23.903  0.00  0.00    -0.021 A 
ATOM     26  C   LIG    1      -36.612  68.851  23.824  0.00  0.00    +0.051 A 
ATOM     27  C   LIG    1      -36.111  68.292  22.642  0.00  0.00    +0.124 A 
ATOM     28  C   LIG    1      -36.935  68.198  21.523  0.00  0.00    +0.084 A 
BRANCH  27  29
ATOM     29  O   LIG    1      -34.818  67.839  22.705  0.00  0.00    -0.491 OA
BRANCH  29  30
ATOM     30  C   LIG    1      -34.637  66.485  22.276  0.00  0.00    +0.244 C 
BRANCH  30  31
ATOM     31  C   LIG    1      -33.690  66.456  21.070  0.00  0.00    +0.125 C 
BRANCH  31  32
ATOM     32  N   LIG    1      -34.008  65.389  20.098  0.00  0.00    -0.295 NA
ATOM     33  C   LIG    1      -32.866  65.019  19.230  0.00  0.00    +0.112 C 
ATOM     34  C   LIG    1      -32.475  66.127  18.240  0.00  0.00    +0.175 C 
ATOM     35  O   LIG    1      -33.583  66.489  17.408  0.00  0.00    -0.377 OA
ATOM     36  C   LIG    1      -34.715  66.890  18.192  0.00  0.00    +0.175 C 
ATOM     37  C   LIG    1      -35.118  65.805  19.209  0.00  0.00    +0.112 C 
ENDBRANCH  31  32
ENDBRANCH  30  31
ENDBRANCH  29  30
ENDBRANCH  27  29
ENDBRANCH   1  25
TORSDOF 8
ENDMDL
MODEL 5
REMARK VINA RESULT:      -5.7     13.705     17.905
REMARK  Name = pdb/CHEMBL3675960.pdb
REMARK                            x       y       z     vdW  Elec       q    Type
REMARK                         _______ _______ _______ _____ _____    ______ ____
ROOT
ATOM      1  C   LIG    1      -37.813  73.927  27.258  0.00  0.00    +0.105 C 
ATOM      2  N   LIG    1      -37.885  73.891  25.780  0.00  0.00    -0.308 N 
ATOM      3  C   LIG    1      -37.721  75.245  25.254  0.00  0.00    +0.107 C 
ATOM      4  C   LIG    1      -38.287  76.128  26.347  0.00  0.00    +0.021 C 
ATOM      5  C   LIG    1      -37.862  75.430  27.628  0.00  0.00    +0.029 C 
ENDROOT
BRANCH   2   6
ATOM      6  C   LIG    1      -38.481  72.892  25.010  0.00  0.00    +0.126 A 
ATOM      7  N   LIG    1      -37.768  71.816  24.708  0.00  0.00    -0.212 NA
ATOM      8  C   LIG    1      -38.328  70.834  23.930  0.00  0.00    +0.170 A 
ATOM      9  C   LIG    1      -37.857  69.615  23.442  0.00  0.00    +0.100 A 
ATOM     10  C   LIG    1      -38.969  69.080  22.748  0.00  0.00    +0.150 A 
ATOM     11  N   LIG    1      -40.028  69.886  22.725  0.00  0.00    -0.173 NA
ATOM     12  N   LIG    1      -39.646  70.953  23.462  0.00  0.00    -0.221 N 
ATOM     13  C   LIG    1      -40.415  72.060  23.785  0.00  0.00    +0.118 A 
ATOM     14  C   LIG    1      -39.911  73.037  24.546  0.00  0.00    +0.063 A 
BRANCH   9  15
ATOM     15  C   LIG    1      -36.556  68.969  23.564  0.00  0.00    +0.249 C 
ATOM     16  N   LIG    1      -35.915  69.070  24.777  0.00  0.00    -0.308 N 
ATOM     17  H   LIG    1      -36.465  69.451  25.551  0.00  0.00    +0.149 HD
ATOM     18  O   LIG    1      -36.052  68.370  22.592  0.00  0.00    -0.270 OA
BRANCH  16  19
ATOM     19  C   LIG    1      -34.627  68.499  25.061  0.00  0.00    +0.073 C 
ATOM     20  C   LIG    1      -34.540  67.260  25.926  0.00  0.00    +0.024 C 
ATOM     21  C   LIG    1      -33.963  68.550  26.411  0.00  0.00    +0.024 C 
ENDBRANCH  16  19
ENDBRANCH   9  15
ENDBRANCH   2   6
BRANCH   1  25
ATOM     22  F   LIG    1      -35.420  70.044  29.058  0.00  0.00    -0.205 F 
ATOM     23  C   LIG    1      -35.398  71.328  28.676  0.00  0.00    +0.127 A 
ATOM     24  C   LIG    1      -36.552  71.912  28.174  0.00  0.00    +0.044 A 
ATOM     25  C   LIG    1      -36.548  73.254  27.766  0.00  0.00    -0.021 A 
ATOM     26  C   LIG    1      -35.340  73.970  27.853  0.00  0.00    +0.051 A 
ATOM     27  C   LIG    1      -34.181  73.375  28.367  0.00  0.00    +0.124 A 
ATOM     28  C   LIG    1      -34.221  72.051  28.797  0.00  0.00    +0.084 A 
BRANCH  27  29
ATOM     29  O   LIG    1      -33.080  74.189  28.435  0.00  0.00    -0.491 OA
BRANCH  29  30
ATOM     30  C   LIG    1      -33.163  75.226  29.420  0.00  0.00    +0.244 C 
BRANCH  30  31
ATOM     31  C   LIG    1      -32.726  76.557  28.795  0.00  0.00    +0.125 C 
BRANCH  31  32
ATOM     32  N   LIG    1      -33.300  76.794  27.455  0.00  0.00    -0.295 NA
ATOM     33  C   LIG    1      -32.430  77.606  26.573  0.00  0.00    +0.112 C 
ATOM     34  C   LIG    1      -32.299  79.067  27.031  0.00  0.00    +0.175 C 
ATOM     35  O   LIG    1      -33.582  79.697  27.114  0.00  0.00    -0.377 OA
ATOM     36  C   LIG    1      -34.465  78.974  27.983  0.00  0.00    +0.175 C 
ATOM     37  C   LIG    1      -34.600  77.499  27.559  0.00  0.00    +0.112 C 
ENDBRANCH  31  32
ENDBRANCH  30  31
ENDBRANCH  29  30
ENDBRANCH  27  29
ENDBRANCH   1  25
TORSDOF 8
ENDMDL
MODEL 6
REMARK VINA RESULT:      -5.5     13.484     18.621
REMARK  Name = pdb/CHEMBL3675960.pdb
REMARK                            x       y       z     vdW  Elec       q    Type
REMARK                         _______ _______ _______ _____ _____    ______ ____
ROOT
ATOM      1  C   LIG    1      -35.557  71.415  28.974  0.00  0.00    +0.105 C 
ATOM      2  N   LIG    1      -34.097  71.566  29.166  0.00  0.00    -0.308 N 
ATOM      3  C   LIG    1      -33.576  70.392  29.863  0.00  0.00    +0.107 C 
ATOM      4  C   LIG    1      -34.741  69.930  30.714  0.00  0.00    +0.021 C 
ATOM      5  C   LIG    1      -35.953  70.190  29.836  0.00  0.00    +0.029 C 
ENDROOT
BRANCH   2   6
ATOM      6  C   LIG    1      -33.388  72.767  29.160  0.00  0.00    +0.126 A 
ATOM      7  N   LIG    1      -33.965  73.840  28.636  0.00  0.00    -0.212 NA
ATOM      8  C   LIG    1      -33.274  75.025  28.598  0.00  0.00    +0.170 A 
ATOM      9  C   LIG    1      -33.585  76.298  28.122  0.00  0.00    +0.100 A 
ATOM     10  C   LIG    1      -32.438  77.064  28.440  0.00  0.00    +0.150 A 
ATOM     11  N   LIG    1      -31.458  76.359  28.999  0.00  0.00    -0.173 NA
ATOM     12  N   LIG    1      -31.972  75.114  29.114  0.00  0.00    -0.221 N 
ATOM     13  C   LIG    1      -31.360  74.009  29.685  0.00  0.00    +0.118 A 
ATOM     14  C   LIG    1      -32.000  72.837  29.750  0.00  0.00    +0.063 A 
BRANCH   9  15
ATOM     15  C   LIG    1      -34.773  76.810  27.448  0.00  0.00    +0.249 C 
ATOM     16  N   LIG    1      -35.696  75.886  27.014  0.00  0.00    -0.308 N 
ATOM     17  H   LIG    1      -35.562  74.924  27.335  0.00  0.00    +0.149 HD
ATOM     18  O   LIG    1      -34.920  78.035  27.265  0.00  0.00    -0.270 OA
BRANCH  16  19
ATOM     19  C   LIG    1      -36.913  76.221  26.327  0.00  0.00    +0.073 C 
ATOM     20  C   LIG    1      -38.112  75.306  26.454  0.00  0.00    +0.024 C 
ATOM     21  C   LIG    1      -37.438  75.473  25.131  0.00  0.00    +0.024 C 
ENDBRANCH  16  19
ENDBRANCH   9  15
ENDBRANCH   2   6
BRANCH   1  25
ATOM     22  F   LIG    1      -38.400  72.247  25.067  0.00  0.00    -0.205 F 
ATOM     23  C   LIG    1      -37.339  71.628  25.601  0.00  0.00    +0.127 A 
ATOM     24  C   LIG    1      -37.013  71.854  26.931  0.00  0.00    +0.044 A 
ATOM     25  C   LIG    1      -35.904  71.218  27.508  0.00  0.00    -0.021 A 
ATOM     26  C   LIG    1      -35.125  70.376  26.692  0.00  0.00    +0.051 A 
ATOM     27  C   LIG    1      -35.465  70.148  25.353  0.00  0.00    +0.124 A 
ATOM     28  C   LIG    1      -36.591  70.766  24.815  0.00  0.00    +0.084 A 
BRANCH  27  29
ATOM     29  O   LIG    1      -34.648  69.278  24.677  0.00  0.00    -0.491 OA
BRANCH  29  30
ATOM     30  C   LIG    1      -35.006  67.897  24.808  0.00  0.00    +0.244 C 
BRANCH  30  31
ATOM     31  C   LIG    1      -34.928  67.218  23.436  0.00  0.00    +0.125 C 
BRANCH  31  32
ATOM     32  N   LIG    1      -36.205  66.614  23.005  0.00  0.00    -0.295 NA
ATOM     33  C   LIG    1      -36.132  65.954  21.681  0.00  0.00    +0.112 C 
ATOM     34  C   LIG    1      -35.939  66.943  20.521  0.00  0.00    +0.175 C 
ATOM     35  O   LIG    1      -36.994  67.912  20.491  0.00  0.00    -0.377 OA
ATOM     36  C   LIG    1      -37.097  68.611  21.739  0.00  0.00    +0.175 C 
ATOM     37  C   LIG    1      -37.270  67.642  22.923  0.00  0.00    +0.112 C 
ENDBRANCH  31  32
ENDBRANCH  30  31
ENDBRANCH  29  30
ENDBRANCH  27  29
ENDBRANCH   1  25
TORSDOF 8
ENDMDL
MODEL 7
REMARK VINA RESULT:      -5.5      2.450      5.233
REMARK  Name = pdb/CHEMBL3675960.pdb
REMARK                            x       y       z     vdW  Elec       q    Type
REMARK                         _______ _______ _______ _____ _____    ______ ____
ROOT
ATOM      1  C   LIG    1      -24.023  78.099  35.189  0.00  0.00    +0.105 C 
ATOM      2  N   LIG    1      -24.739  77.959  33.901  0.00  0.00    -0.308 N 
ATOM      3  C   LIG    1      -26.148  77.673  34.160  0.00  0.00    +0.107 C 
ATOM      4  C   LIG    1      -26.130  76.927  35.478  0.00  0.00    +0.021 C 
ATOM      5  C   LIG    1      -25.027  77.615  36.264  0.00  0.00    +0.029 C 
ENDROOT
BRANCH   2   6
ATOM      6  C   LIG    1      -24.162  77.652  32.668  0.00  0.00    +0.126 A 
ATOM      7  N   LIG    1      -22.839  77.652  32.572  0.00  0.00    -0.212 NA
ATOM      8  C   LIG    1      -22.253  77.378  31.362  0.00  0.00    +0.170 A 
ATOM      9  C   LIG    1      -20.927  77.307  30.937  0.00  0.00    +0.100 A 
ATOM     10  C   LIG    1      -21.032  76.931  29.576  0.00  0.00    +0.150 A 
ATOM     11  N   LIG    1      -22.285  76.835  29.139  0.00  0.00    -0.173 NA
ATOM     12  N   LIG    1      -23.036  77.090  30.233  0.00  0.00    -0.221 N 
ATOM     13  C   LIG    1      -24.419  77.063  30.319  0.00  0.00    +0.118 A 
ATOM     14  C   LIG    1      -25.031  77.318  31.481  0.00  0.00    +0.063 A 
BRANCH   9  15
ATOM     15  C   LIG    1      -19.675  77.544  31.646  0.00  0.00    +0.249 C 
ATOM     16  N   LIG    1      -19.763  77.995  32.943  0.00  0.00    -0.308 N 
ATOM     17  H   LIG    1      -20.694  77.979  33.367  0.00  0.00    +0.149 HD
ATOM     18  O   LIG    1      -18.580  77.357  31.078  0.00  0.00    -0.270 OA
BRANCH  16  19
ATOM     19  C   LIG    1      -18.628  78.285  33.776  0.00  0.00    +0.073 C 
ATOM     20  C   LIG    1      -18.384  77.447  35.012  0.00  0.00    +0.024 C 
ATOM     21  C   LIG    1      -18.727  78.894  35.149  0.00  0.00    +0.024 C 
ENDBRANCH  16  19
ENDBRANCH   9  15
ENDBRANCH   2   6
BRANCH   1  25
ATOM     22  F   LIG    1      -20.644  81.650  35.043  0.00  0.00    -0.205 F 
ATOM     23  C   LIG    1      -21.886  81.262  35.361  0.00  0.00    +0.127 A 
ATOM     24  C   LIG    1      -22.284  79.958  35.100  0.00  0.00    +0.044 A 
ATOM     25  C   LIG    1      -23.581  79.534  35.423  0.00  0.00    -0.021 A 
ATOM     26  C   LIG    1      -24.465  80.474  35.986  0.00  0.00    +0.051 A 
ATOM     27  C   LIG    1      -24.054  81.786  36.252  0.00  0.00    +0.124 A 
ATOM     28  C   LIG    1      -22.750  82.171  35.953  0.00  0.00    +0.084 A 
BRANCH  27  29
ATOM     29  O   LIG    1      -24.996  82.593  36.836  0.00  0.00    -0.491 OA
BRANCH  29  30
ATOM     30  C   LIG    1      -26.158  81.905  37.316  0.00  0.00    +0.244 C 
BRANCH  30  31
ATOM     31  C   LIG    1      -27.281  82.918  37.569  0.00  0.00    +0.125 C 
BRANCH  31  32
ATOM     32  N   LIG    1      -27.863  83.472  36.329  0.00  0.00    -0.295 NA
ATOM     33  C   LIG    1      -27.447  84.866  36.050  0.00  0.00    +0.112 C 
ATOM     34  C   LIG    1      -28.021  85.880  37.051  0.00  0.00    +0.175 C 
ATOM     35  O   LIG    1      -29.452  85.827  37.074  0.00  0.00    -0.377 OA
ATOM     36  C   LIG    1      -29.920  84.505  37.372  0.00  0.00    +0.175 C 
ATOM     37  C   LIG    1      -29.344  83.461  36.396  0.00  0.00    +0.112 C 
ENDBRANCH  31  32
ENDBRANCH  30  31
ENDBRANCH  29  30
ENDBRANCH  27  29
ENDBRANCH   1  25
TORSDOF 8
ENDMDL
MODEL 8
REMARK VINA RESULT:      -5.4     14.449     18.875
REMARK  Name = pdb/CHEMBL3675960.pdb
REMARK                            x       y       z     vdW  Elec       q    Type
REMARK                         _______ _______ _______ _____ _____    ______ ____
ROOT
ATOM      1  C   LIG    1      -40.941  77.829  23.915  0.00  0.00    +0.105 C 
ATOM      2  N   LIG    1      -40.868  78.987  24.834  0.00  0.00    -0.308 N 
ATOM      3  C   LIG    1      -42.056  79.005  25.686  0.00  0.00    +0.107 C 
ATOM      4  C   LIG    1      -43.127  78.369  24.825  0.00  0.00    +0.021 C 
ATOM      5  C   LIG    1      -42.382  77.282  24.069  0.00  0.00    +0.029 C 
ENDROOT
BRANCH   2   6
ATOM      6  C   LIG    1      -40.107  80.141  24.644  0.00  0.00    +0.126 A 
ATOM      7  N   LIG    1      -39.423  80.624  25.673  0.00  0.00    -0.212 NA
ATOM      8  C   LIG    1      -38.688  81.772  25.512  0.00  0.00    +0.170 A 
ATOM      9  C   LIG    1      -37.886  82.521  26.372  0.00  0.00    +0.100 A 
ATOM     10  C   LIG    1      -37.389  83.559  25.547  0.00  0.00    +0.150 A 
ATOM     11  N   LIG    1      -37.866  83.534  24.305  0.00  0.00    -0.173 NA
ATOM     12  N   LIG    1      -38.647  82.431  24.274  0.00  0.00    -0.221 N 
ATOM     13  C   LIG    1      -39.338  81.930  23.182  0.00  0.00    +0.118 A 
ATOM     14  C   LIG    1      -40.061  80.810  23.292  0.00  0.00    +0.063 A 
BRANCH   9  15
ATOM     15  C   LIG    1      -37.575  82.355  27.787  0.00  0.00    +0.249 C 
ATOM     16  N   LIG    1      -36.334  82.769  28.211  0.00  0.00    -0.308 N 
ATOM     17  H   LIG    1      -35.781  83.307  27.539  0.00  0.00    +0.149 HD
ATOM     18  O   LIG    1      -38.407  81.840  28.562  0.00  0.00    -0.270 OA
BRANCH  16  19
ATOM     19  C   LIG    1      -35.868  82.668  29.567  0.00  0.00    +0.073 C 
ATOM     20  C   LIG    1      -34.461  83.117  29.902  0.00  0.00    +0.024 C 
ATOM     21  C   LIG    1      -34.835  81.676  30.030  0.00  0.00    +0.024 C 
ENDBRANCH  16  19
ENDBRANCH   9  15
ENDBRANCH   2   6
BRANCH   1  25
ATOM     22  F   LIG    1      -39.437  73.174  24.233  0.00  0.00    -0.205 F 
ATOM     23  C   LIG    1      -39.185  74.475  24.427  0.00  0.00    +0.127 A 
ATOM     24  C   LIG    1      -40.139  75.417  24.067  0.00  0.00    +0.044 A 
ATOM     25  C   LIG    1      -39.893  76.784  24.259  0.00  0.00    -0.021 A 
ATOM     26  C   LIG    1      -38.648  77.165  24.795  0.00  0.00    +0.051 A 
ATOM     27  C   LIG    1      -37.694  76.208  25.161  0.00  0.00    +0.124 A 
ATOM     28  C   LIG    1      -37.977  74.855  24.991  0.00  0.00    +0.084 A 
BRANCH  27  29
ATOM     29  O   LIG    1      -36.538  76.706  25.706  0.00  0.00    -0.491 OA
BRANCH  29  30
ATOM     30  C   LIG    1      -36.413  76.514  27.120  0.00  0.00    +0.244 C 
BRANCH  30  31
ATOM     31  C   LIG    1      -34.967  76.133  27.456  0.00  0.00    +0.125 C 
BRANCH  31  32
ATOM     32  N   LIG    1      -34.474  76.741  28.710  0.00  0.00    -0.295 NA
ATOM     33  C   LIG    1      -34.586  78.218  28.736  0.00  0.00    +0.112 C 
ATOM     34  C   LIG    1      -33.636  78.914  27.750  0.00  0.00    +0.175 C 
ATOM     35  O   LIG    1      -32.273  78.555  28.007  0.00  0.00    -0.377 OA
ATOM     36  C   LIG    1      -32.091  77.133  27.964  0.00  0.00    +0.175 C 
ATOM     37  C   LIG    1      -33.047  76.405  28.929  0.00  0.00    +0.112 C 
ENDBRANCH  31  32
ENDBRANCH  30  31
ENDBRANCH  29  30
ENDBRANCH  27  29
ENDBRANCH   1  25
TORSDOF 8
ENDMDL
MODEL 9
REMARK VINA RESULT:      -5.4     14.714     19.761
REMARK  Name = pdb/CHEMBL3675960.pdb
REMARK                            x       y       z     vdW  Elec       q    Type
REMARK                         _______ _______ _______ _____ _____    ______ ____
ROOT
ATOM      1  C   LIG    1      -38.875  73.806  24.670  0.00  0.00    +0.105 C 
ATOM      2  N   LIG    1      -39.336  74.837  25.628  0.00  0.00    -0.308 N 
ATOM      3  C   LIG    1      -40.794  74.920  25.585  0.00  0.00    +0.107 C 
ATOM      4  C   LIG    1      -41.137  74.531  24.161  0.00  0.00    +0.021 C 
ATOM      5  C   LIG    1      -40.128  73.443  23.835  0.00  0.00    +0.029 C 
ENDROOT
BRANCH   2   6
ATOM      6  C   LIG    1      -38.574  75.892  26.130  0.00  0.00    +0.126 A 
ATOM      7  N   LIG    1      -37.333  75.643  26.527  0.00  0.00    -0.212 NA
ATOM      8  C   LIG    1      -36.576  76.662  27.047  0.00  0.00    +0.170 A 
ATOM      9  C   LIG    1      -35.276  76.729  27.547  0.00  0.00    +0.100 A 
ATOM     10  C   LIG    1      -35.112  78.096  27.873  0.00  0.00    +0.150 A 
ATOM     11  N   LIG    1      -36.203  78.832  27.675  0.00  0.00    -0.173 NA
ATOM     12  N   LIG    1      -37.096  77.962  27.153  0.00  0.00    -0.221 N 
ATOM     13  C   LIG    1      -38.383  78.247  26.722  0.00  0.00    +0.118 A 
ATOM     14  C   LIG    1      -39.153  77.284  26.203  0.00  0.00    +0.063 A 
BRANCH   9  15
ATOM     15  C   LIG    1      -34.261  75.697  27.728  0.00  0.00    +0.249 C 
ATOM     16  N   LIG    1      -34.688  74.389  27.734  0.00  0.00    -0.308 N 
ATOM     17  H   LIG    1      -35.659  74.227  27.452  0.00  0.00    +0.149 HD
ATOM     18  O   LIG    1      -33.063  76.008  27.887  0.00  0.00    -0.270 OA
BRANCH  16  19
ATOM     19  C   LIG    1      -33.821  73.256  27.909  0.00  0.00    +0.073 C 
ATOM     20  C   LIG    1      -34.393  71.963  28.449  0.00  0.00    +0.024 C 
ATOM     21  C   LIG    1      -33.389  72.727  29.250  0.00  0.00    +0.024 C 
ENDBRANCH  16  19
ENDBRANCH   9  15
ENDBRANCH   2   6
BRANCH   1  25
ATOM     22  F   LIG    1      -38.749  70.709  28.469  0.00  0.00    -0.205 F 
ATOM     23  C   LIG    1      -38.244  71.099  27.292  0.00  0.00    +0.127 A 
ATOM     24  C   LIG    1      -38.812  72.178  26.627  0.00  0.00    +0.044 A 
ATOM     25  C   LIG    1      -38.300  72.599  25.392  0.00  0.00    -0.021 A 
ATOM     26  C   LIG    1      -37.223  71.880  24.841  0.00  0.00    +0.051 A 
ATOM     27  C   LIG    1      -36.652  70.796  25.520  0.00  0.00    +0.124 A 
ATOM     28  C   LIG    1      -37.158  70.420  26.762  0.00  0.00    +0.084 A 
BRANCH  27  29
ATOM     29  O   LIG    1      -35.585  70.204  24.895  0.00  0.00    -0.491 OA
BRANCH  29  30
ATOM     30  C   LIG    1      -34.991  69.122  25.623  0.00  0.00    +0.244 C 
BRANCH  30  31
ATOM     31  C   LIG    1      -34.785  67.929  24.683  0.00  0.00    +0.125 C 
BRANCH  31  32
ATOM     32  N   LIG    1      -35.524  68.049  23.409  0.00  0.00    -0.295 NA
ATOM     33  C   LIG    1      -36.911  67.534  23.479  0.00  0.00    +0.112 C 
ATOM     34  C   LIG    1      -36.983  66.008  23.647  0.00  0.00    +0.175 C 
ATOM     35  O   LIG    1      -36.300  65.340  22.580  0.00  0.00    -0.377 OA
ATOM     36  C   LIG    1      -34.936  65.773  22.480  0.00  0.00    +0.175 C 
ATOM     37  C   LIG    1      -34.832  67.303  22.331  0.00  0.00    +0.112 C 
ENDBRANCH  31  32
ENDBRANCH  30  31
ENDBRANCH  29  30
ENDBRANCH  27  29
ENDBRANCH   1  25
TORSDOF 8
ENDMDL
