MODEL 1
REMARK VINA RESULT:      -5.0      0.000      0.000
REMARK  Name = pdb/CHEMBL3675952.pdb
REMARK                            x       y       z     vdW  Elec       q    Type
REMARK                         _______ _______ _______ _____ _____    ______ ____
ROOT
ATOM      1  C   LIG    1      -21.108  79.504  35.912  0.00  0.00    +0.105 C 
ATOM      2  N   LIG    1      -22.304  80.188  35.380  0.00  0.00    -0.308 N 
ATOM      3  C   LIG    1      -22.122  81.637  35.429  0.00  0.00    +0.107 C 
ATOM      4  C   LIG    1      -21.033  81.830  36.479  0.00  0.00    +0.021 C 
ATOM      5  C   LIG    1      -20.128  80.634  36.253  0.00  0.00    +0.029 C 
ENDROOT
BRANCH   2   6
ATOM      6  C   LIG    1      -23.488  79.574  34.982  0.00  0.00    +0.126 A 
ATOM      7  N   LIG    1      -23.530  78.877  33.859  0.00  0.00    -0.212 NA
ATOM      8  C   LIG    1      -24.702  78.220  33.546  0.00  0.00    +0.170 A 
ATOM      9  C   LIG    1      -25.129  77.503  32.435  0.00  0.00    +0.100 A 
ATOM     10  C   LIG    1      -26.408  77.024  32.792  0.00  0.00    +0.150 A 
ATOM     11  N   LIG    1      -26.813  77.442  33.984  0.00  0.00    -0.173 NA
ATOM     12  N   LIG    1      -25.798  78.219  34.418  0.00  0.00    -0.221 N 
ATOM     13  C   LIG    1      -25.790  78.999  35.556  0.00  0.00    +0.118 A 
ATOM     14  C   LIG    1      -24.711  79.717  35.864  0.00  0.00    +0.063 A 
BRANCH   9  15
ATOM     15  C   LIG    1      -24.493  77.261  31.160  0.00  0.00    +0.249 C 
ATOM     16  N   LIG    1      -23.133  77.093  31.175  0.00  0.00    -0.308 N 
ATOM     17  H   LIG    1      -22.663  77.122  32.084  0.00  0.00    +0.149 HD
ATOM     18  O   LIG    1      -25.155  77.253  30.111  0.00  0.00    -0.270 OA
BRANCH  16  19
ATOM     19  C   LIG    1      -22.383  76.926  29.973  0.00  0.00    +0.073 C 
ATOM     20  C   LIG    1      -21.122  76.103  29.987  0.00  0.00    +0.024 C 
ATOM     21  C   LIG    1      -21.053  77.585  29.763  0.00  0.00    +0.024 C 
ENDBRANCH  16  19
ENDBRANCH   9  15
ENDBRANCH   2   6
BRANCH   1  24
ATOM     22  C   LIG    1      -19.974  76.262  34.179  0.00  0.00    +0.124 A 
ATOM     23  C   LIG    1      -20.580  77.145  35.088  0.00  0.00    +0.051 A 
ATOM     24  C   LIG    1      -20.459  78.545  34.927  0.00  0.00    -0.021 A 
ATOM     25  C   LIG    1      -19.696  79.032  33.856  0.00  0.00    +0.044 A 
ATOM     26  C   LIG    1      -19.116  78.153  32.958  0.00  0.00    +0.127 A 
ATOM     27  F   LIG    1      -18.408  78.627  31.927  0.00  0.00    -0.205 F 
ATOM     28  C   LIG    1      -19.244  76.784  33.113  0.00  0.00    +0.084 A 
BRANCH  22  29
ATOM     29  O   LIG    1      -20.101  74.916  34.429  0.00  0.00    -0.490 OA
BRANCH  29  30
ATOM     30  C   LIG    1      -20.729  74.151  33.386  0.00  0.00    +0.257 C 
BRANCH  30  31
ATOM     31  C   LIG    1      -22.174  73.834  33.758  0.00  0.00    +0.200 C 
BRANCH  31  33
ATOM     32  C   LIG    1      -24.148  73.812  32.465  0.00  0.00    +0.194 C 
ATOM     33  O   LIG    1      -23.065  74.603  32.944  0.00  0.00    -0.380 OA
ENDBRANCH  31  33
ENDBRANCH  30  31
ENDBRANCH  29  30
ENDBRANCH  22  29
ENDBRANCH   1  24
TORSDOF 8
ENDMDL
MODEL 2
REMARK VINA RESULT:      -4.9      2.980      5.247
REMARK  Name = pdb/CHEMBL3675952.pdb
REMARK                            x       y       z     vdW  Elec       q    Type
REMARK                         _______ _______ _______ _____ _____    ______ ____
ROOT
ATOM      1  C   LIG    1      -22.434  80.423  34.886  0.00  0.00    +0.105 C 
ATOM      2  N   LIG    1      -21.002  80.198  35.173  0.00  0.00    -0.308 N 
ATOM      3  C   LIG    1      -20.558  81.074  36.255  0.00  0.00    +0.107 C 
ATOM      4  C   LIG    1      -21.591  82.197  36.258  0.00  0.00    +0.021 C 
ATOM      5  C   LIG    1      -22.878  81.475  35.911  0.00  0.00    +0.029 C 
ENDROOT
BRANCH   2   6
ATOM      6  C   LIG    1      -20.148  79.359  34.462  0.00  0.00    +0.126 A 
ATOM      7  N   LIG    1      -20.463  78.976  33.236  0.00  0.00    -0.212 NA
ATOM      8  C   LIG    1      -19.550  78.209  32.541  0.00  0.00    +0.170 A 
ATOM      9  C   LIG    1      -19.583  77.562  31.313  0.00  0.00    +0.100 A 
ATOM     10  C   LIG    1      -18.287  77.022  31.160  0.00  0.00    +0.150 A 
ATOM     11  N   LIG    1      -17.503  77.231  32.210  0.00  0.00    -0.173 NA
ATOM     12  N   LIG    1      -18.292  77.903  33.075  0.00  0.00    -0.221 N 
ATOM     13  C   LIG    1      -17.983  78.238  34.378  0.00  0.00    +0.118 A 
ATOM     14  C   LIG    1      -18.861  78.908  35.120  0.00  0.00    +0.063 A 
BRANCH   9  15
ATOM     15  C   LIG    1      -20.652  77.404  30.352  0.00  0.00    +0.249 C 
ATOM     16  N   LIG    1      -21.909  77.752  30.771  0.00  0.00    -0.308 N 
ATOM     17  H   LIG    1      -22.006  78.122  31.720  0.00  0.00    +0.149 HD
ATOM     18  O   LIG    1      -20.428  76.937  29.225  0.00  0.00    -0.270 OA
BRANCH  16  19
ATOM     19  C   LIG    1      -23.055  77.568  29.940  0.00  0.00    +0.073 C 
ATOM     20  C   LIG    1      -24.392  78.100  30.384  0.00  0.00    +0.024 C 
ATOM     21  C   LIG    1      -24.160  76.621  30.302  0.00  0.00    +0.024 C 
ENDBRANCH  16  19
ENDBRANCH   9  15
ENDBRANCH   2   6
BRANCH   1  24
ATOM     22  C   LIG    1      -25.140  77.762  34.258  0.00  0.00    +0.124 A 
ATOM     23  C   LIG    1      -24.344  78.912  34.120  0.00  0.00    +0.051 A 
ATOM     24  C   LIG    1      -23.292  79.177  35.028  0.00  0.00    -0.021 A 
ATOM     25  C   LIG    1      -23.079  78.280  36.085  0.00  0.00    +0.044 A 
ATOM     26  C   LIG    1      -23.859  77.143  36.201  0.00  0.00    +0.127 A 
ATOM     27  F   LIG    1      -23.634  76.283  37.200  0.00  0.00    -0.205 F 
ATOM     28  C   LIG    1      -24.882  76.883  35.307  0.00  0.00    +0.084 A 
BRANCH  22  29
ATOM     29  O   LIG    1      -26.170  77.599  33.363  0.00  0.00    -0.490 OA
BRANCH  29  30
ATOM     30  C   LIG    1      -26.550  76.237  33.100  0.00  0.00    +0.257 C 
BRANCH  30  31
ATOM     31  C   LIG    1      -27.429  76.162  31.856  0.00  0.00    +0.200 C 
BRANCH  31  33
ATOM     32  C   LIG    1      -29.731  76.456  31.426  0.00  0.00    +0.194 C 
ATOM     33  O   LIG    1      -28.562  77.023  32.010  0.00  0.00    -0.380 OA
ENDBRANCH  31  33
ENDBRANCH  30  31
ENDBRANCH  29  30
ENDBRANCH  22  29
ENDBRANCH   1  24
TORSDOF 8
ENDMDL
MODEL 3
REMARK VINA RESULT:      -4.8      2.584      4.760
REMARK  Name = pdb/CHEMBL3675952.pdb
REMARK                            x       y       z     vdW  Elec       q    Type
REMARK                         _______ _______ _______ _____ _____    ______ ____
ROOT
ATOM      1  C   LIG    1      -22.278  80.121  34.717  0.00  0.00    +0.105 C 
ATOM      2  N   LIG    1      -20.840  79.797  34.798  0.00  0.00    -0.308 N 
ATOM      3  C   LIG    1      -20.215  80.537  35.892  0.00  0.00    +0.107 C 
ATOM      4  C   LIG    1      -21.167  81.704  36.129  0.00  0.00    +0.021 C 
ATOM      5  C   LIG    1      -22.530  81.086  35.883  0.00  0.00    +0.029 C 
ENDROOT
BRANCH   2   6
ATOM      6  C   LIG    1      -20.132  78.991  33.910  0.00  0.00    +0.126 A 
ATOM      7  N   LIG    1      -20.686  78.610  32.772  0.00  0.00    -0.212 NA
ATOM      8  C   LIG    1      -19.920  77.879  31.889  0.00  0.00    +0.170 A 
ATOM      9  C   LIG    1      -20.193  77.243  30.685  0.00  0.00    +0.100 A 
ATOM     10  C   LIG    1      -18.944  76.744  30.255  0.00  0.00    +0.150 A 
ATOM     11  N   LIG    1      -17.963  76.966  31.120  0.00  0.00    -0.173 NA
ATOM     12  N   LIG    1      -18.570  77.605  32.142  0.00  0.00    -0.221 N 
ATOM     13  C   LIG    1      -18.003  77.936  33.355  0.00  0.00    +0.118 A 
ATOM     14  C   LIG    1      -18.723  78.572  34.276  0.00  0.00    +0.063 A 
BRANCH   9  15
ATOM     15  C   LIG    1      -21.435  77.063  29.967  0.00  0.00    +0.249 C 
ATOM     16  N   LIG    1      -22.566  77.552  30.566  0.00  0.00    -0.308 N 
ATOM     17  H   LIG    1      -22.456  78.033  31.463  0.00  0.00    +0.149 HD
ATOM     18  O   LIG    1      -21.461  76.456  28.885  0.00  0.00    -0.270 OA
BRANCH  16  19
ATOM     19  C   LIG    1      -23.860  77.367  29.994  0.00  0.00    +0.073 C 
ATOM     20  C   LIG    1      -25.035  78.132  30.542  0.00  0.00    +0.024 C 
ATOM     21  C   LIG    1      -24.957  76.644  30.716  0.00  0.00    +0.024 C 
ENDBRANCH  16  19
ENDBRANCH   9  15
ENDBRANCH   2   6
BRANCH   1  24
ATOM     22  C   LIG    1      -23.673  76.699  35.787  0.00  0.00    +0.124 A 
ATOM     23  C   LIG    1      -22.831  77.818  35.672  0.00  0.00    +0.051 A 
ATOM     24  C   LIG    1      -23.189  78.912  34.849  0.00  0.00    -0.021 A 
ATOM     25  C   LIG    1      -24.391  78.841  34.129  0.00  0.00    +0.044 A 
ATOM     26  C   LIG    1      -25.219  77.741  34.262  0.00  0.00    +0.127 A 
ATOM     27  F   LIG    1      -26.373  77.693  33.588  0.00  0.00    -0.205 F 
ATOM     28  C   LIG    1      -24.870  76.677  35.074  0.00  0.00    +0.084 A 
BRANCH  22  29
ATOM     29  O   LIG    1      -23.234  75.659  36.571  0.00  0.00    -0.490 OA
BRANCH  29  30
ATOM     30  C   LIG    1      -21.859  75.282  36.382  0.00  0.00    +0.257 C 
BRANCH  30  31
ATOM     31  C   LIG    1      -21.769  73.880  35.788  0.00  0.00    +0.200 C 
BRANCH  31  33
ATOM     32  C   LIG    1      -20.406  75.175  34.363  0.00  0.00    +0.194 C 
ATOM     33  O   LIG    1      -20.795  73.858  34.741  0.00  0.00    -0.380 OA
ENDBRANCH  31  33
ENDBRANCH  30  31
ENDBRANCH  29  30
ENDBRANCH  22  29
ENDBRANCH   1  24
TORSDOF 8
ENDMDL
MODEL 4
REMARK VINA RESULT:      -4.7      3.416      6.077
REMARK  Name = pdb/CHEMBL3675952.pdb
REMARK                            x       y       z     vdW  Elec       q    Type
REMARK                         _______ _______ _______ _____ _____    ______ ____
ROOT
ATOM      1  C   LIG    1      -23.873  77.221  36.240  0.00  0.00    +0.105 C 
ATOM      2  N   LIG    1      -24.968  76.785  35.351  0.00  0.00    -0.308 N 
ATOM      3  C   LIG    1      -25.976  76.050  36.112  0.00  0.00    +0.107 C 
ATOM      4  C   LIG    1      -25.224  75.589  37.356  0.00  0.00    +0.021 C 
ATOM      5  C   LIG    1      -24.291  76.750  37.639  0.00  0.00    +0.029 C 
ENDROOT
BRANCH   2   6
ATOM      6  C   LIG    1      -25.012  76.944  33.969  0.00  0.00    +0.126 A 
ATOM      7  N   LIG    1      -23.890  76.998  33.271  0.00  0.00    -0.212 NA
ATOM      8  C   LIG    1      -23.983  77.076  31.897  0.00  0.00    +0.170 A 
ATOM      9  C   LIG    1      -23.049  77.248  30.883  0.00  0.00    +0.100 A 
ATOM     10  C   LIG    1      -23.799  77.157  29.690  0.00  0.00    +0.150 A 
ATOM     11  N   LIG    1      -25.101  77.012  29.897  0.00  0.00    -0.173 NA
ATOM     12  N   LIG    1      -25.219  77.022  31.241  0.00  0.00    -0.221 N 
ATOM     13  C   LIG    1      -26.396  77.036  31.961  0.00  0.00    +0.118 A 
ATOM     14  C   LIG    1      -26.363  77.043  33.292  0.00  0.00    +0.063 A 
BRANCH   9  15
ATOM     15  C   LIG    1      -21.625  77.489  30.936  0.00  0.00    +0.249 C 
ATOM     16  N   LIG    1      -21.113  77.876  32.147  0.00  0.00    -0.308 N 
ATOM     17  H   LIG    1      -21.762  77.943  32.936  0.00  0.00    +0.149 HD
ATOM     18  O   LIG    1      -20.925  77.388  29.917  0.00  0.00    -0.270 OA
BRANCH  16  19
ATOM     19  C   LIG    1      -19.737  78.218  32.307  0.00  0.00    +0.073 C 
ATOM     20  C   LIG    1      -19.059  77.988  33.631  0.00  0.00    +0.024 C 
ATOM     21  C   LIG    1      -19.295  79.385  33.138  0.00  0.00    +0.024 C 
ENDBRANCH  16  19
ENDBRANCH   9  15
ENDBRANCH   2   6
BRANCH   1  24
ATOM     22  C   LIG    1      -24.524  81.007  36.457  0.00  0.00    +0.124 A 
ATOM     23  C   LIG    1      -24.731  79.617  36.452  0.00  0.00    +0.051 A 
ATOM     24  C   LIG    1      -23.652  78.725  36.252  0.00  0.00    -0.021 A 
ATOM     25  C   LIG    1      -22.374  79.260  36.029  0.00  0.00    +0.044 A 
ATOM     26  C   LIG    1      -22.180  80.629  36.050  0.00  0.00    +0.127 A 
ATOM     27  F   LIG    1      -20.955  81.129  35.858  0.00  0.00    -0.205 F 
ATOM     28  C   LIG    1      -23.236  81.499  36.255  0.00  0.00    +0.084 A 
BRANCH  22  29
ATOM     29  O   LIG    1      -25.630  81.807  36.614  0.00  0.00    -0.490 OA
BRANCH  29  30
ATOM     30  C   LIG    1      -25.357  83.205  36.811  0.00  0.00    +0.257 C 
BRANCH  30  31
ATOM     31  C   LIG    1      -26.658  84.003  36.823  0.00  0.00    +0.200 C 
BRANCH  31  33
ATOM     32  C   LIG    1      -27.827  85.480  35.403  0.00  0.00    +0.194 C 
ATOM     33  O   LIG    1      -26.554  85.113  35.927  0.00  0.00    -0.380 OA
ENDBRANCH  31  33
ENDBRANCH  30  31
ENDBRANCH  29  30
ENDBRANCH  22  29
ENDBRANCH   1  24
TORSDOF 8
ENDMDL
MODEL 5
REMARK VINA RESULT:      -4.6     18.551     21.614
REMARK  Name = pdb/CHEMBL3675952.pdb
REMARK                            x       y       z     vdW  Elec       q    Type
REMARK                         _______ _______ _______ _____ _____    ______ ____
ROOT
ATOM      1  C   LIG    1      -21.588  86.231  14.099  0.00  0.00    +0.105 C 
ATOM      2  N   LIG    1      -22.475  86.402  12.931  0.00  0.00    -0.308 N 
ATOM      3  C   LIG    1      -22.780  87.817  12.729  0.00  0.00    +0.107 C 
ATOM      4  C   LIG    1      -22.505  88.444  14.092  0.00  0.00    +0.021 C 
ATOM      5  C   LIG    1      -21.309  87.657  14.593  0.00  0.00    +0.029 C 
ENDROOT
BRANCH   2   6
ATOM      6  C   LIG    1      -23.041  85.378  12.176  0.00  0.00    +0.126 A 
ATOM      7  N   LIG    1      -23.572  84.326  12.777  0.00  0.00    -0.212 NA
ATOM      8  C   LIG    1      -24.191  83.375  11.993  0.00  0.00    +0.170 A 
ATOM      9  C   LIG    1      -24.748  82.131  12.260  0.00  0.00    +0.100 A 
ATOM     10  C   LIG    1      -25.288  81.711  11.025  0.00  0.00    +0.150 A 
ATOM     11  N   LIG    1      -25.048  82.556  10.031  0.00  0.00    -0.173 NA
ATOM     12  N   LIG    1      -24.329  83.541  10.610  0.00  0.00    -0.221 N 
ATOM     13  C   LIG    1      -23.718  84.598   9.966  0.00  0.00    +0.118 A 
ATOM     14  C   LIG    1      -23.038  85.503  10.667  0.00  0.00    +0.063 A 
BRANCH   9  15
ATOM     15  C   LIG    1      -24.799  81.356  13.480  0.00  0.00    +0.249 C 
ATOM     16  N   LIG    1      -23.780  81.553  14.374  0.00  0.00    -0.308 N 
ATOM     17  H   LIG    1      -23.070  82.250  14.136  0.00  0.00    +0.149 HD
ATOM     18  O   LIG    1      -25.704  80.528  13.669  0.00  0.00    -0.270 OA
BRANCH  16  19
ATOM     19  C   LIG    1      -23.678  80.791  15.577  0.00  0.00    +0.073 C 
ATOM     20  C   LIG    1      -22.386  80.784  16.348  0.00  0.00    +0.024 C 
ATOM     21  C   LIG    1      -22.859  79.538  15.661  0.00  0.00    +0.024 C 
ENDBRANCH  16  19
ENDBRANCH   9  15
ENDBRANCH   2   6
BRANCH   1  24
ATOM     22  C   LIG    1      -18.905  83.505  13.690  0.00  0.00    +0.124 A 
ATOM     23  C   LIG    1      -20.122  84.144  13.981  0.00  0.00    +0.051 A 
ATOM     24  C   LIG    1      -20.276  85.535  13.778  0.00  0.00    -0.021 A 
ATOM     25  C   LIG    1      -19.177  86.268  13.306  0.00  0.00    +0.044 A 
ATOM     26  C   LIG    1      -17.989  85.626  13.007  0.00  0.00    +0.127 A 
ATOM     27  F   LIG    1      -16.953  86.329  12.537  0.00  0.00    -0.205 F 
ATOM     28  C   LIG    1      -17.844  84.263  13.199  0.00  0.00    +0.084 A 
BRANCH  22  29
ATOM     29  O   LIG    1      -18.821  82.159  13.956  0.00  0.00    -0.490 OA
BRANCH  29  30
ATOM     30  C   LIG    1      -18.991  81.293  12.820  0.00  0.00    +0.257 C 
BRANCH  30  31
ATOM     31  C   LIG    1      -20.255  80.455  12.978  0.00  0.00    +0.200 C 
BRANCH  31  33
ATOM     32  C   LIG    1      -21.159  81.651  11.155  0.00  0.00    +0.194 C 
ATOM     33  O   LIG    1      -21.384  81.181  12.481  0.00  0.00    -0.380 OA
ENDBRANCH  31  33
ENDBRANCH  30  31
ENDBRANCH  29  30
ENDBRANCH  22  29
ENDBRANCH   1  24
TORSDOF 8
ENDMDL
MODEL 6
REMARK VINA RESULT:      -4.6      2.783      5.747
REMARK  Name = pdb/CHEMBL3675952.pdb
REMARK                            x       y       z     vdW  Elec       q    Type
REMARK                         _______ _______ _______ _____ _____    ______ ____
ROOT
ATOM      1  C   LIG    1      -19.134  78.412  32.181  0.00  0.00    +0.105 C 
ATOM      2  N   LIG    1      -19.756  77.302  31.431  0.00  0.00    -0.308 N 
ATOM      3  C   LIG    1      -18.732  76.371  30.962  0.00  0.00    +0.107 C 
ATOM      4  C   LIG    1      -17.454  77.202  30.977  0.00  0.00    +0.021 C 
ATOM      5  C   LIG    1      -17.636  78.082  32.198  0.00  0.00    +0.029 C 
ENDROOT
BRANCH   2   6
ATOM      6  C   LIG    1      -21.106  77.188  31.109  0.00  0.00    +0.126 A 
ATOM      7  N   LIG    1      -22.030  77.487  32.007  0.00  0.00    -0.212 NA
ATOM      8  C   LIG    1      -23.353  77.435  31.619  0.00  0.00    +0.170 A 
ATOM      9  C   LIG    1      -24.555  77.579  32.299  0.00  0.00    +0.100 A 
ATOM     10  C   LIG    1      -25.544  77.491  31.296  0.00  0.00    +0.150 A 
ATOM     11  N   LIG    1      -25.049  77.243  30.090  0.00  0.00    -0.173 NA
ATOM     12  N   LIG    1      -23.719  77.150  30.298  0.00  0.00    -0.221 N 
ATOM     13  C   LIG    1      -22.769  76.769  29.373  0.00  0.00    +0.118 A 
ATOM     14  C   LIG    1      -21.483  76.724  29.718  0.00  0.00    +0.063 A 
BRANCH   9  15
ATOM     15  C   LIG    1      -24.834  77.762  33.706  0.00  0.00    +0.249 C 
ATOM     16  N   LIG    1      -23.863  77.349  34.582  0.00  0.00    -0.308 N 
ATOM     17  H   LIG    1      -23.000  76.967  34.186  0.00  0.00    +0.149 HD
ATOM     18  O   LIG    1      -25.919  78.229  34.084  0.00  0.00    -0.270 OA
BRANCH  16  19
ATOM     19  C   LIG    1      -24.053  77.405  35.995  0.00  0.00    +0.073 C 
ATOM     20  C   LIG    1      -23.341  76.421  36.884  0.00  0.00    +0.024 C 
ATOM     21  C   LIG    1      -24.833  76.362  36.737  0.00  0.00    +0.024 C 
ENDBRANCH  16  19
ENDBRANCH   9  15
ENDBRANCH   2   6
BRANCH   1  24
ATOM     22  C   LIG    1      -20.697  79.884  35.373  0.00  0.00    +0.124 A 
ATOM     23  C   LIG    1      -20.234  79.756  34.053  0.00  0.00    +0.051 A 
ATOM     24  C   LIG    1      -19.643  78.551  33.607  0.00  0.00    -0.021 A 
ATOM     25  C   LIG    1      -19.504  77.496  34.520  0.00  0.00    +0.044 A 
ATOM     26  C   LIG    1      -19.978  77.628  35.813  0.00  0.00    +0.127 A 
ATOM     27  F   LIG    1      -19.861  76.608  36.671  0.00  0.00    -0.205 F 
ATOM     28  C   LIG    1      -20.563  78.805  36.244  0.00  0.00    +0.084 A 
BRANCH  22  29
ATOM     29  O   LIG    1      -21.218  81.101  35.742  0.00  0.00    -0.490 OA
BRANCH  29  30
ATOM     30  C   LIG    1      -22.620  81.280  35.474  0.00  0.00    +0.257 C 
BRANCH  30  31
ATOM     31  C   LIG    1      -23.152  82.500  36.220  0.00  0.00    +0.200 C 
BRANCH  31  33
ATOM     32  C   LIG    1      -22.538  83.113  38.414  0.00  0.00    +0.194 C 
ATOM     33  O   LIG    1      -23.280  82.199  37.613  0.00  0.00    -0.380 OA
ENDBRANCH  31  33
ENDBRANCH  30  31
ENDBRANCH  29  30
ENDBRANCH  22  29
ENDBRANCH   1  24
TORSDOF 8
ENDMDL
MODEL 7
REMARK VINA RESULT:      -4.5     19.371     22.797
REMARK  Name = pdb/CHEMBL3675952.pdb
REMARK                            x       y       z     vdW  Elec       q    Type
REMARK                         _______ _______ _______ _____ _____    ______ ____
ROOT
ATOM      1  C   LIG    1      -19.527  86.322  12.249  0.00  0.00    +0.105 C 
ATOM      2  N   LIG    1      -19.679  84.857  12.132  0.00  0.00    -0.308 N 
ATOM      3  C   LIG    1      -18.469  84.183  12.597  0.00  0.00    +0.107 C 
ATOM      4  C   LIG    1      -17.393  85.260  12.494  0.00  0.00    +0.021 C 
ATOM      5  C   LIG    1      -18.141  86.523  12.875  0.00  0.00    +0.029 C 
ENDROOT
BRANCH   2   6
ATOM      6  C   LIG    1      -20.764  84.191  11.568  0.00  0.00    +0.126 A 
ATOM      7  N   LIG    1      -21.690  83.655  12.345  0.00  0.00    -0.212 NA
ATOM      8  C   LIG    1      -22.786  83.074  11.741  0.00  0.00    +0.170 A 
ATOM      9  C   LIG    1      -23.868  82.347  12.221  0.00  0.00    +0.100 A 
ATOM     10  C   LIG    1      -24.673  82.115  11.084  0.00  0.00    +0.150 A 
ATOM     11  N   LIG    1      -24.141  82.578   9.960  0.00  0.00    -0.173 NA
ATOM     12  N   LIG    1      -22.964  83.110  10.353  0.00  0.00    -0.221 N 
ATOM     13  C   LIG    1      -21.971  83.603   9.531  0.00  0.00    +0.118 A 
ATOM     14  C   LIG    1      -20.856  84.103  10.060  0.00  0.00    +0.063 A 
BRANCH   9  15
ATOM     15  C   LIG    1      -24.180  81.873  13.551  0.00  0.00    +0.249 C 
ATOM     16  N   LIG    1      -23.132  81.782  14.429  0.00  0.00    -0.308 N 
ATOM     17  H   LIG    1      -22.210  82.078  14.099  0.00  0.00    +0.149 HD
ATOM     18  O   LIG    1      -25.334  81.531  13.850  0.00  0.00    -0.270 OA
BRANCH  16  19
ATOM     19  C   LIG    1      -23.298  81.255  15.745  0.00  0.00    +0.073 C 
ATOM     20  C   LIG    1      -22.403  81.729  16.858  0.00  0.00    +0.024 C 
ATOM     21  C   LIG    1      -22.304  80.317  16.362  0.00  0.00    +0.024 C 
ENDBRANCH  16  19
ENDBRANCH   9  15
ENDBRANCH   2   6
BRANCH   1  24
ATOM     22  C   LIG    1      -22.594  88.363  13.353  0.00  0.00    +0.124 A 
ATOM     23  C   LIG    1      -21.623  87.748  12.545  0.00  0.00    +0.051 A 
ATOM     24  C   LIG    1      -20.582  86.983  13.119  0.00  0.00    -0.021 A 
ATOM     25  C   LIG    1      -20.523  86.876  14.516  0.00  0.00    +0.044 A 
ATOM     26  C   LIG    1      -21.493  87.473  15.302  0.00  0.00    +0.127 A 
ATOM     27  F   LIG    1      -21.441  87.347  16.632  0.00  0.00    -0.205 F 
ATOM     28  C   LIG    1      -22.516  88.214  14.736  0.00  0.00    +0.084 A 
BRANCH  22  29
ATOM     29  O   LIG    1      -23.548  89.126  12.722  0.00  0.00    -0.490 OA
BRANCH  29  30
ATOM     30  C   LIG    1      -23.229  89.524  11.377  0.00  0.00    +0.257 C 
BRANCH  30  31
ATOM     31  C   LIG    1      -24.258  90.526  10.863  0.00  0.00    +0.200 C 
BRANCH  31  33
ATOM     32  C   LIG    1      -25.992  91.502  12.131  0.00  0.00    +0.194 C 
ATOM     33  O   LIG    1      -25.513  90.311  11.515  0.00  0.00    -0.380 OA
ENDBRANCH  31  33
ENDBRANCH  30  31
ENDBRANCH  29  30
ENDBRANCH  22  29
ENDBRANCH   1  24
TORSDOF 8
ENDMDL
MODEL 8
REMARK VINA RESULT:      -4.5     13.857     17.558
REMARK  Name = pdb/CHEMBL3675952.pdb
REMARK                            x       y       z     vdW  Elec       q    Type
REMARK                         _______ _______ _______ _____ _____    ______ ____
ROOT
ATOM      1  C   LIG    1      -38.370  76.576  24.920  0.00  0.00    +0.105 C 
ATOM      2  N   LIG    1      -38.656  77.078  26.279  0.00  0.00    -0.308 N 
ATOM      3  C   LIG    1      -39.460  78.296  26.210  0.00  0.00    +0.107 C 
ATOM      4  C   LIG    1      -39.208  78.816  24.799  0.00  0.00    +0.021 C 
ATOM      5  C   LIG    1      -39.103  77.543  23.981  0.00  0.00    +0.029 C 
ENDROOT
BRANCH   2   6
ATOM      6  C   LIG    1      -38.158  76.550  27.467  0.00  0.00    +0.126 A 
ATOM      7  N   LIG    1      -36.887  76.724  27.789  0.00  0.00    -0.212 NA
ATOM      8  C   LIG    1      -36.457  76.252  29.012  0.00  0.00    +0.170 A 
ATOM      9  C   LIG    1      -35.211  76.168  29.620  0.00  0.00    +0.100 A 
ATOM     10  C   LIG    1      -35.478  75.656  30.909  0.00  0.00    +0.150 A 
ATOM     11  N   LIG    1      -36.758  75.365  31.104  0.00  0.00    -0.173 NA
ATOM     12  N   LIG    1      -37.344  75.673  29.928  0.00  0.00    -0.221 N 
ATOM     13  C   LIG    1      -38.654  75.424  29.574  0.00  0.00    +0.118 A 
ATOM     14  C   LIG    1      -39.100  75.787  28.373  0.00  0.00    +0.063 A 
BRANCH   9  15
ATOM     15  C   LIG    1      -33.890  76.488  29.127  0.00  0.00    +0.249 C 
ATOM     16  N   LIG    1      -33.756  77.679  28.463  0.00  0.00    -0.308 N 
ATOM     17  H   LIG    1      -34.586  78.273  28.384  0.00  0.00    +0.149 HD
ATOM     18  O   LIG    1      -32.949  75.692  29.268  0.00  0.00    -0.270 OA
BRANCH  16  19
ATOM     19  C   LIG    1      -32.521  78.069  27.862  0.00  0.00    +0.073 C 
ATOM     20  C   LIG    1      -32.510  79.148  26.812  0.00  0.00    +0.024 C 
ATOM     21  C   LIG    1      -32.184  77.733  26.441  0.00  0.00    +0.024 C 
ENDBRANCH  16  19
ENDBRANCH   9  15
ENDBRANCH   2   6
BRANCH   1  24
ATOM     22  C   LIG    1      -38.513  72.733  24.794  0.00  0.00    +0.124 A 
ATOM     23  C   LIG    1      -38.062  74.043  25.029  0.00  0.00    +0.051 A 
ATOM     24  C   LIG    1      -38.857  75.157  24.673  0.00  0.00    -0.021 A 
ATOM     25  C   LIG    1      -40.093  74.926  24.052  0.00  0.00    +0.044 A 
ATOM     26  C   LIG    1      -40.533  73.632  23.839  0.00  0.00    +0.127 A 
ATOM     27  F   LIG    1      -41.723  73.421  23.266  0.00  0.00    -0.205 F 
ATOM     28  C   LIG    1      -39.757  72.544  24.197  0.00  0.00    +0.084 A 
BRANCH  22  29
ATOM     29  O   LIG    1      -37.663  71.706  25.129  0.00  0.00    -0.490 OA
BRANCH  29  30
ATOM     30  C   LIG    1      -38.134  70.386  24.805  0.00  0.00    +0.257 C 
BRANCH  30  31
ATOM     31  C   LIG    1      -37.266  69.766  23.714  0.00  0.00    +0.200 C 
BRANCH  31  33
ATOM     32  C   LIG    1      -37.311  68.818  21.554  0.00  0.00    +0.194 C 
ATOM     33  O   LIG    1      -38.063  69.492  22.557  0.00  0.00    -0.380 OA
ENDBRANCH  31  33
ENDBRANCH  30  31
ENDBRANCH  29  30
ENDBRANCH  22  29
ENDBRANCH   1  24
TORSDOF 8
ENDMDL
MODEL 9
REMARK VINA RESULT:      -4.5     18.349     20.843
REMARK  Name = pdb/CHEMBL3675952.pdb
REMARK                            x       y       z     vdW  Elec       q    Type
REMARK                         _______ _______ _______ _____ _____    ______ ____
ROOT
ATOM      1  C   LIG    1      -19.077  81.666  14.280  0.00  0.00    +0.105 C 
ATOM      2  N   LIG    1      -19.354  82.536  13.119  0.00  0.00    -0.308 N 
ATOM      3  C   LIG    1      -18.842  81.925  11.894  0.00  0.00    +0.107 C 
ATOM      4  C   LIG    1      -17.791  80.939  12.394  0.00  0.00    +0.021 C 
ATOM      5  C   LIG    1      -18.395  80.425  13.687  0.00  0.00    +0.029 C 
ENDROOT
BRANCH   2   6
ATOM      6  C   LIG    1      -19.923  83.806  13.167  0.00  0.00    +0.126 A 
ATOM      7  N   LIG    1      -21.206  83.969  12.891  0.00  0.00    -0.212 NA
ATOM      8  C   LIG    1      -21.743  85.232  13.028  0.00  0.00    +0.170 A 
ATOM      9  C   LIG    1      -22.986  85.779  12.737  0.00  0.00    +0.100 A 
ATOM     10  C   LIG    1      -22.904  87.112  13.195  0.00  0.00    +0.150 A 
ATOM     11  N   LIG    1      -21.708  87.432  13.673  0.00  0.00    -0.173 NA
ATOM     12  N   LIG    1      -20.985  86.303  13.516  0.00  0.00    -0.221 N 
ATOM     13  C   LIG    1      -19.631  86.160  13.739  0.00  0.00    +0.118 A 
ATOM     14  C   LIG    1      -19.045  84.980  13.545  0.00  0.00    +0.063 A 
BRANCH   9  15
ATOM     15  C   LIG    1      -24.150  85.206  12.098  0.00  0.00    +0.249 C 
ATOM     16  N   LIG    1      -24.406  83.885  12.364  0.00  0.00    -0.308 N 
ATOM     17  H   LIG    1      -23.778  83.403  13.012  0.00  0.00    +0.149 HD
ATOM     18  O   LIG    1      -24.844  85.877  11.320  0.00  0.00    -0.270 OA
BRANCH  16  19
ATOM     19  C   LIG    1      -25.479  83.187  11.733  0.00  0.00    +0.073 C 
ATOM     20  C   LIG    1      -25.522  81.683  11.783  0.00  0.00    +0.024 C 
ATOM     21  C   LIG    1      -25.283  82.387  10.480  0.00  0.00    +0.024 C 
ENDBRANCH  16  19
ENDBRANCH   9  15
ENDBRANCH   2   6
BRANCH   1  24
ATOM     22  C   LIG    1      -22.059  79.593  15.549  0.00  0.00    +0.124 A 
ATOM     23  C   LIG    1      -20.905  79.975  14.844  0.00  0.00    +0.051 A 
ATOM     24  C   LIG    1      -20.321  81.247  15.046  0.00  0.00    -0.021 A 
ATOM     25  C   LIG    1      -20.937  82.130  15.944  0.00  0.00    +0.044 A 
ATOM     26  C   LIG    1      -22.064  81.739  16.644  0.00  0.00    +0.127 A 
ATOM     27  F   LIG    1      -22.631  82.580  17.515  0.00  0.00    -0.205 F 
ATOM     28  C   LIG    1      -22.628  80.490  16.452  0.00  0.00    +0.084 A 
BRANCH  22  29
ATOM     29  O   LIG    1      -22.591  78.358  15.265  0.00  0.00    -0.490 OA
BRANCH  29  30
ATOM     30  C   LIG    1      -22.978  78.153  13.895  0.00  0.00    +0.257 C 
BRANCH  30  31
ATOM     31  C   LIG    1      -24.490  77.986  13.790  0.00  0.00    +0.200 C 
BRANCH  31  33
ATOM     32  C   LIG    1      -25.993  79.006  15.296  0.00  0.00    +0.194 C 
ATOM     33  O   LIG    1      -25.066  77.943  15.099  0.00  0.00    -0.380 OA
ENDBRANCH  31  33
ENDBRANCH  30  31
ENDBRANCH  29  30
ENDBRANCH  22  29
ENDBRANCH   1  24
TORSDOF 8
ENDMDL
