MODEL 1
REMARK VINA RESULT:      -6.9      0.000      0.000
REMARK  Name = pdb/CHEMBL3943397.pdb
REMARK                            x       y       z     vdW  Elec       q    Type
REMARK                         _______ _______ _______ _____ _____    ______ ____
ROOT
ATOM      1  C   LIG    1      -35.342  69.153  24.984  0.00  0.00    +0.131 C 
ATOM      2  N   LIG    1      -36.422  69.941  24.821  0.00  0.00    -0.141 NA
ATOM      3  N   LIG    1      -36.178  71.026  25.613  0.00  0.00    -0.201 N 
ATOM      4  C   LIG    1      -34.866  71.023  26.068  0.00  0.00    +0.185 C 
ATOM      5  C   LIG    1      -34.349  69.775  25.790  0.00  0.00    +0.056 C 
ENDROOT
BRANCH   3   6
ATOM      6  C   LIG    1      -37.219  71.931  25.963  0.00  0.00    +0.052 A 
ATOM      7  C   LIG    1      -37.758  71.947  27.259  0.00  0.00    +0.025 A 
ATOM      8  C   LIG    1      -38.790  72.837  27.577  0.00  0.00    +0.002 A 
ATOM      9  C   LIG    1      -39.280  73.714  26.611  0.00  0.00    +0.000 A 
ATOM     10  C   LIG    1      -38.758  73.688  25.319  0.00  0.00    +0.002 A 
ATOM     11  C   LIG    1      -37.741  72.789  24.987  0.00  0.00    +0.025 A 
ENDBRANCH   3   6
BRANCH   4  12
ATOM     12  N   LIG    1      -34.124  72.052  26.637  0.00  0.00    -0.282 N 
ATOM     13  H   LIG    1      -33.832  72.818  26.031  0.00  0.00    +0.152 HD
ATOM     14  C   LIG    1      -34.089  72.217  28.067  0.00  0.00    +0.247 C 
ATOM     15  O   LIG    1      -34.745  71.478  28.778  0.00  0.00    -0.270 OA
BRANCH  14  16
ATOM     16  C   LIG    1      -33.210  73.287  28.620  0.00  0.00    +0.056 A 
ATOM     17  C   LIG    1      -32.120  73.035  29.458  0.00  0.00    +0.056 A 
ATOM     18 CL   LIG    1      -31.508  71.451  29.775  0.00  0.00    -0.083 Cl
ATOM     19  C   LIG    1      -31.449  74.096  30.063  0.00  0.00    +0.059 A 
ATOM     20  C   LIG    1      -31.825  75.411  29.795  0.00  0.00    +0.134 A 
ATOM     21  F   LIG    1      -31.184  76.370  30.476  0.00  0.00    -0.205 F 
ATOM     22  C   LIG    1      -32.842  75.726  28.882  0.00  0.00    +0.039 A 
ATOM     23  C   LIG    1      -33.539  74.630  28.316  0.00  0.00    +0.027 A 
BRANCH  22  24
ATOM     24  C   LIG    1      -33.198  77.123  28.533  0.00  0.00    +0.109 A 
ATOM     25  C   LIG    1      -32.635  77.836  27.469  0.00  0.00    +0.149 A 
ATOM     26  F   LIG    1      -31.727  77.292  26.647  0.00  0.00    -0.203 F 
ATOM     27  C   LIG    1      -33.045  79.139  27.205  0.00  0.00    +0.042 A 
ATOM     28  C   LIG    1      -34.026  79.714  28.001  0.00  0.00    +0.023 A 
ATOM     29  C   LIG    1      -34.555  78.952  29.030  0.00  0.00    +0.111 A 
ATOM     30  N   LIG    1      -34.169  77.682  29.311  0.00  0.00    -0.252 NA
ENDBRANCH  22  24
ENDBRANCH  14  16
ENDBRANCH   4  12
BRANCH   1  31
ATOM     31  C   LIG    1      -35.238  67.875  24.280  0.00  0.00    +0.233 C 
ATOM     32  N   LIG    1      -34.813  67.811  23.074  0.00  0.00    -0.243 NA
BRANCH  31  33
ATOM     33  O   LIG    1      -35.661  66.803  24.990  0.00  0.00    -0.491 OA
ATOM     34  H   LIG    1      -36.624  66.889  25.137  0.00  0.00    +0.294 HD
ENDBRANCH  31  33
BRANCH  32  35
ATOM     35  C   LIG    1      -34.821  66.473  22.457  0.00  0.00    +0.202 C 
BRANCH  35  36
ATOM     36  C   LIG    1      -34.294  66.474  21.035  0.00  0.00    +0.085 A 
ATOM     37  N   LIG    1      -32.985  66.764  20.834  0.00  0.00    -0.152 NA
ATOM     38  N   LIG    1      -32.465  66.773  19.569  0.00  0.00    -0.157 NA
ATOM     39  C   LIG    1      -33.267  66.507  18.521  0.00  0.00    +0.135 A 
ATOM     40  C   LIG    1      -34.611  66.235  18.671  0.00  0.00    +0.023 A 
ATOM     41  C   LIG    1      -35.139  66.226  19.958  0.00  0.00    +0.028 A 
ENDBRANCH  35  36
ENDBRANCH  32  35
ENDBRANCH   1  31
TORSDOF 8
ENDMDL
MODEL 2
REMARK VINA RESULT:      -6.8      8.923     16.224
REMARK  Name = pdb/CHEMBL3943397.pdb
REMARK                            x       y       z     vdW  Elec       q    Type
REMARK                         _______ _______ _______ _____ _____    ______ ____
ROOT
ATOM      1  C   LIG    1      -31.343  86.771  31.415  0.00  0.00    +0.131 C 
ATOM      2  N   LIG    1      -32.431  87.557  31.290  0.00  0.00    -0.141 NA
ATOM      3  N   LIG    1      -33.202  86.930  30.354  0.00  0.00    -0.201 N 
ATOM      4  C   LIG    1      -32.716  85.658  30.081  0.00  0.00    +0.185 C 
ATOM      5  C   LIG    1      -31.460  85.581  30.646  0.00  0.00    +0.056 C 
ENDROOT
BRANCH   3   6
ATOM      6  C   LIG    1      -34.277  87.608  29.714  0.00  0.00    +0.052 A 
ATOM      7  C   LIG    1      -35.595  87.478  30.181  0.00  0.00    +0.025 A 
ATOM      8  C   LIG    1      -36.638  88.144  29.528  0.00  0.00    +0.002 A 
ATOM      9  C   LIG    1      -36.371  88.944  28.417  0.00  0.00    +0.000 A 
ATOM     10  C   LIG    1      -35.066  89.060  27.942  0.00  0.00    +0.002 A 
ATOM     11  C   LIG    1      -34.021  88.382  28.577  0.00  0.00    +0.025 A 
ENDBRANCH   3   6
BRANCH   4  12
ATOM     12  N   LIG    1      -33.335  84.593  29.437  0.00  0.00    -0.282 N 
ATOM     13  H   LIG    1      -32.878  84.208  28.611  0.00  0.00    +0.152 HD
ATOM     14  C   LIG    1      -34.361  83.836  30.107  0.00  0.00    +0.247 C 
ATOM     15  O   LIG    1      -34.657  84.104  31.256  0.00  0.00    -0.270 OA
BRANCH  14  16
ATOM     16  C   LIG    1      -35.044  82.760  29.334  0.00  0.00    +0.056 A 
ATOM     17  C   LIG    1      -36.412  82.766  29.043  0.00  0.00    +0.056 A 
ATOM     18 CL   LIG    1      -37.441  84.122  29.335  0.00  0.00    -0.083 Cl
ATOM     19  C   LIG    1      -37.003  81.648  28.460  0.00  0.00    +0.059 A 
ATOM     20  C   LIG    1      -36.228  80.542  28.114  0.00  0.00    +0.134 A 
ATOM     21  F   LIG    1      -36.883  79.477  27.632  0.00  0.00    -0.205 F 
ATOM     22  C   LIG    1      -34.836  80.521  28.286  0.00  0.00    +0.039 A 
ATOM     23  C   LIG    1      -34.266  81.651  28.923  0.00  0.00    +0.027 A 
BRANCH  22  24
ATOM     24  C   LIG    1      -33.995  79.380  27.852  0.00  0.00    +0.109 A 
ATOM     25  C   LIG    1      -34.014  78.115  28.450  0.00  0.00    +0.149 A 
ATOM     26  F   LIG    1      -34.832  77.821  29.470  0.00  0.00    -0.203 F 
ATOM     27  C   LIG    1      -33.200  77.097  27.961  0.00  0.00    +0.042 A 
ATOM     28  C   LIG    1      -32.384  77.350  26.869  0.00  0.00    +0.023 A 
ATOM     29  C   LIG    1      -32.419  78.617  26.312  0.00  0.00    +0.111 A 
ATOM     30  N   LIG    1      -33.199  79.628  26.772  0.00  0.00    -0.252 NA
ENDBRANCH  22  24
ENDBRANCH  14  16
ENDBRANCH   4  12
BRANCH   1  31
ATOM     31  C   LIG    1      -30.272  87.123  32.345  0.00  0.00    +0.233 C 
ATOM     32  N   LIG    1      -30.430  87.025  33.612  0.00  0.00    -0.243 NA
BRANCH  31  33
ATOM     33  O   LIG    1      -29.144  87.588  31.758  0.00  0.00    -0.491 OA
ATOM     34  H   LIG    1      -29.044  88.534  31.986  0.00  0.00    +0.294 HD
ENDBRANCH  31  33
BRANCH  32  35
ATOM     35  C   LIG    1      -29.297  87.475  34.441  0.00  0.00    +0.202 C 
BRANCH  35  36
ATOM     36  C   LIG    1      -28.616  86.338  35.178  0.00  0.00    +0.085 A 
ATOM     37  N   LIG    1      -27.263  86.339  35.254  0.00  0.00    -0.152 NA
ATOM     38  N   LIG    1      -26.605  85.337  35.912  0.00  0.00    -0.157 NA
ATOM     39  C   LIG    1      -27.312  84.338  36.472  0.00  0.00    +0.135 A 
ATOM     40  C   LIG    1      -28.688  84.276  36.397  0.00  0.00    +0.023 A 
ATOM     41  C   LIG    1      -29.356  85.295  35.728  0.00  0.00    +0.028 A 
ENDBRANCH  35  36
ENDBRANCH  32  35
ENDBRANCH   1  31
TORSDOF 8
ENDMDL
MODEL 3
REMARK VINA RESULT:      -6.8     15.557     20.079
REMARK  Name = pdb/CHEMBL3943397.pdb
REMARK                            x       y       z     vdW  Elec       q    Type
REMARK                         _______ _______ _______ _____ _____    ______ ____
ROOT
ATOM      1  C   LIG    1      -24.695  82.857  37.533  0.00  0.00    +0.131 C 
ATOM      2  N   LIG    1      -23.590  83.453  38.023  0.00  0.00    -0.141 NA
ATOM      3  N   LIG    1      -22.608  82.513  37.896  0.00  0.00    -0.201 N 
ATOM      4  C   LIG    1      -23.042  81.444  37.122  0.00  0.00    +0.185 C 
ATOM      5  C   LIG    1      -24.408  81.576  36.987  0.00  0.00    +0.056 C 
ENDROOT
BRANCH   3   6
ATOM      6  C   LIG    1      -21.373  82.641  38.591  0.00  0.00    +0.052 A 
ATOM      7  C   LIG    1      -20.418  83.594  38.201  0.00  0.00    +0.025 A 
ATOM      8  C   LIG    1      -19.205  83.693  38.892  0.00  0.00    +0.002 A 
ATOM      9  C   LIG    1      -18.945  82.852  39.973  0.00  0.00    +0.000 A 
ATOM     10  C   LIG    1      -19.884  81.894  40.350  0.00  0.00    +0.002 A 
ATOM     11  C   LIG    1      -21.090  81.775  39.653  0.00  0.00    +0.025 A 
ENDBRANCH   3   6
BRANCH   4  12
ATOM     12  N   LIG    1      -22.303  80.439  36.508  0.00  0.00    -0.282 N 
ATOM     13  H   LIG    1      -22.651  79.483  36.579  0.00  0.00    +0.152 HD
ATOM     14  C   LIG    1      -21.312  80.768  35.516  0.00  0.00    +0.247 C 
ATOM     15  O   LIG    1      -21.151  81.928  35.184  0.00  0.00    -0.270 OA
BRANCH  14  16
ATOM     16  C   LIG    1      -20.496  79.654  34.955  0.00  0.00    +0.056 A 
ATOM     17  C   LIG    1      -19.279  79.236  35.501  0.00  0.00    +0.056 A 
ATOM     18 CL   LIG    1      -18.677  79.793  37.021  0.00  0.00    -0.083 Cl
ATOM     19  C   LIG    1      -18.499  78.299  34.826  0.00  0.00    +0.059 A 
ATOM     20  C   LIG    1      -18.951  77.735  33.634  0.00  0.00    +0.134 A 
ATOM     21  F   LIG    1      -18.110  76.904  33.006  0.00  0.00    -0.205 F 
ATOM     22  C   LIG    1      -20.210  78.039  33.093  0.00  0.00    +0.039 A 
ATOM     23  C   LIG    1      -20.963  79.028  33.774  0.00  0.00    +0.027 A 
BRANCH  22  24
ATOM     24  C   LIG    1      -20.730  77.388  31.867  0.00  0.00    +0.109 A 
ATOM     25  C   LIG    1      -21.810  76.497  31.846  0.00  0.00    +0.149 A 
ATOM     26  F   LIG    1      -22.490  76.175  32.956  0.00  0.00    -0.203 F 
ATOM     27  C   LIG    1      -22.242  75.949  30.643  0.00  0.00    +0.042 A 
ATOM     28  C   LIG    1      -21.598  76.306  29.467  0.00  0.00    +0.023 A 
ATOM     29  C   LIG    1      -20.545  77.202  29.551  0.00  0.00    +0.111 A 
ATOM     30  N   LIG    1      -20.102  77.747  30.712  0.00  0.00    -0.252 NA
ENDBRANCH  22  24
ENDBRANCH  14  16
ENDBRANCH   4  12
BRANCH   1  31
ATOM     31  C   LIG    1      -25.973  83.567  37.501  0.00  0.00    +0.233 C 
ATOM     32  N   LIG    1      -26.857  83.307  36.613  0.00  0.00    -0.243 NA
BRANCH  31  33
ATOM     33  O   LIG    1      -26.111  84.526  38.447  0.00  0.00    -0.491 OA
ATOM     34  H   LIG    1      -26.877  85.086  38.211  0.00  0.00    +0.294 HD
ENDBRANCH  31  33
BRANCH  32  35
ATOM     35  C   LIG    1      -28.073  84.139  36.649  0.00  0.00    +0.202 C 
BRANCH  35  36
ATOM     36  C   LIG    1      -27.985  85.356  35.748  0.00  0.00    +0.085 A 
ATOM     37  N   LIG    1      -26.860  86.110  35.793  0.00  0.00    -0.152 NA
ATOM     38  N   LIG    1      -26.734  87.214  34.996  0.00  0.00    -0.157 NA
ATOM     39  C   LIG    1      -27.745  87.556  34.175  0.00  0.00    +0.135 A 
ATOM     40  C   LIG    1      -28.921  86.838  34.114  0.00  0.00    +0.023 A 
ATOM     41  C   LIG    1      -29.048  85.716  34.925  0.00  0.00    +0.028 A 
ENDBRANCH  35  36
ENDBRANCH  32  35
ENDBRANCH   1  31
TORSDOF 8
ENDMDL
MODEL 4
REMARK VINA RESULT:      -6.8      5.480      9.265
REMARK  Name = pdb/CHEMBL3943397.pdb
REMARK                            x       y       z     vdW  Elec       q    Type
REMARK                         _______ _______ _______ _____ _____    ______ ____
ROOT
ATOM      1  C   LIG    1      -31.970  74.377  29.975  0.00  0.00    +0.131 C 
ATOM      2  N   LIG    1      -32.203  75.704  29.991  0.00  0.00    -0.141 NA
ATOM      3  N   LIG    1      -33.015  75.923  28.915  0.00  0.00    -0.201 N 
ATOM      4  C   LIG    1      -33.471  74.723  28.385  0.00  0.00    +0.185 C 
ATOM      5  C   LIG    1      -32.718  73.720  28.960  0.00  0.00    +0.056 C 
ENDROOT
BRANCH   3   6
ATOM      6  C   LIG    1      -33.222  77.235  28.405  0.00  0.00    +0.052 A 
ATOM      7  C   LIG    1      -32.373  77.772  27.424  0.00  0.00    +0.025 A 
ATOM      8  C   LIG    1      -32.589  79.070  26.946  0.00  0.00    +0.002 A 
ATOM      9  C   LIG    1      -33.651  79.828  27.435  0.00  0.00    +0.000 A 
ATOM     10  C   LIG    1      -34.484  79.303  28.421  0.00  0.00    +0.002 A 
ATOM     11  C   LIG    1      -34.264  78.016  28.919  0.00  0.00    +0.025 A 
ENDBRANCH   3   6
BRANCH   4  12
ATOM     12  N   LIG    1      -34.519  74.486  27.502  0.00  0.00    -0.282 N 
ATOM     13  H   LIG    1      -34.292  74.081  26.594  0.00  0.00    +0.152 HD
ATOM     14  C   LIG    1      -35.878  74.462  27.978  0.00  0.00    +0.247 C 
ATOM     15  O   LIG    1      -36.106  74.609  29.164  0.00  0.00    -0.270 OA
BRANCH  14  16
ATOM     16  C   LIG    1      -36.962  74.286  26.970  0.00  0.00    +0.056 A 
ATOM     17  C   LIG    1      -37.313  73.049  26.420  0.00  0.00    +0.056 A 
ATOM     18 CL   LIG    1      -36.704  71.542  27.002  0.00  0.00    -0.083 Cl
ATOM     19  C   LIG    1      -38.224  72.991  25.367  0.00  0.00    +0.059 A 
ATOM     20  C   LIG    1      -38.827  74.154  24.893  0.00  0.00    +0.134 A 
ATOM     21  F   LIG    1      -39.628  74.023  23.827  0.00  0.00    -0.205 F 
ATOM     22  C   LIG    1      -38.592  75.409  25.474  0.00  0.00    +0.039 A 
ATOM     23  C   LIG    1      -37.628  75.449  26.512  0.00  0.00    +0.027 A 
BRANCH  22  24
ATOM     24  C   LIG    1      -39.287  76.640  25.025  0.00  0.00    +0.109 A 
ATOM     25  C   LIG    1      -38.793  77.510  24.047  0.00  0.00    +0.149 A 
ATOM     26  F   LIG    1      -37.639  77.281  23.406  0.00  0.00    -0.203 F 
ATOM     27  C   LIG    1      -39.526  78.634  23.677  0.00  0.00    +0.042 A 
ATOM     28  C   LIG    1      -40.753  78.870  24.279  0.00  0.00    +0.023 A 
ATOM     29  C   LIG    1      -41.194  77.965  25.229  0.00  0.00    +0.111 A 
ATOM     30  N   LIG    1      -40.497  76.865  25.612  0.00  0.00    -0.252 NA
ENDBRANCH  22  24
ENDBRANCH  14  16
ENDBRANCH   4  12
BRANCH   1  31
ATOM     31  C   LIG    1      -31.125  73.756  30.994  0.00  0.00    +0.233 C 
ATOM     32  N   LIG    1      -30.016  74.285  31.353  0.00  0.00    -0.243 NA
BRANCH  31  33
ATOM     33  O   LIG    1      -31.595  72.582  31.479  0.00  0.00    -0.491 OA
ATOM     34  H   LIG    1      -31.396  71.878  30.830  0.00  0.00    +0.294 HD
ENDBRANCH  31  33
BRANCH  32  35
ATOM     35  C   LIG    1      -29.228  73.525  32.339  0.00  0.00    +0.202 C 
BRANCH  35  36
ATOM     36  C   LIG    1      -27.802  73.271  31.888  0.00  0.00    +0.085 A 
ATOM     37  N   LIG    1      -27.517  72.087  31.293  0.00  0.00    -0.152 NA
ATOM     38  N   LIG    1      -26.246  71.815  30.866  0.00  0.00    -0.157 NA
ATOM     39  C   LIG    1      -25.274  72.727  31.058  0.00  0.00    +0.135 A 
ATOM     40  C   LIG    1      -25.508  73.934  31.685  0.00  0.00    +0.023 A 
ATOM     41  C   LIG    1      -26.800  74.209  32.118  0.00  0.00    +0.028 A 
ENDBRANCH  35  36
ENDBRANCH  32  35
ENDBRANCH   1  31
TORSDOF 8
ENDMDL
MODEL 5
REMARK VINA RESULT:      -6.6      3.508      5.033
REMARK  Name = pdb/CHEMBL3943397.pdb
REMARK                            x       y       z     vdW  Elec       q    Type
REMARK                         _______ _______ _______ _____ _____    ______ ____
ROOT
ATOM      1  C   LIG    1      -39.022  72.644  24.451  0.00  0.00    +0.131 C 
ATOM      2  N   LIG    1      -39.783  73.596  23.878  0.00  0.00    -0.141 NA
ATOM      3  N   LIG    1      -39.411  74.754  24.499  0.00  0.00    -0.201 N 
ATOM      4  C   LIG    1      -38.272  74.559  25.270  0.00  0.00    +0.185 C 
ATOM      5  C   LIG    1      -38.079  73.196  25.361  0.00  0.00    +0.056 C 
ENDROOT
BRANCH   3   6
ATOM      6  C   LIG    1      -40.207  75.929  24.402  0.00  0.00    +0.052 A 
ATOM      7  C   LIG    1      -41.525  75.953  24.885  0.00  0.00    +0.025 A 
ATOM      8  C   LIG    1      -42.293  77.117  24.768  0.00  0.00    +0.002 A 
ATOM      9  C   LIG    1      -41.749  78.258  24.179  0.00  0.00    +0.000 A 
ATOM     10  C   LIG    1      -40.447  78.231  23.683  0.00  0.00    +0.002 A 
ATOM     11  C   LIG    1      -39.680  77.066  23.778  0.00  0.00    +0.025 A 
ENDBRANCH   3   6
BRANCH   4  12
ATOM     12  N   LIG    1      -37.404  75.496  25.818  0.00  0.00    -0.282 N 
ATOM     13  H   LIG    1      -36.696  75.902  25.206  0.00  0.00    +0.152 HD
ATOM     14  C   LIG    1      -37.719  76.133  27.071  0.00  0.00    +0.247 C 
ATOM     15  O   LIG    1      -38.769  75.880  27.630  0.00  0.00    -0.270 OA
BRANCH  14  16
ATOM     16  C   LIG    1      -36.709  77.067  27.647  0.00  0.00    +0.056 A 
ATOM     17  C   LIG    1      -36.814  78.459  27.573  0.00  0.00    +0.056 A 
ATOM     18 CL   LIG    1      -38.227  79.280  27.017  0.00  0.00    -0.083 Cl
ATOM     19  C   LIG    1      -35.751  79.258  27.991  0.00  0.00    +0.059 A 
ATOM     20  C   LIG    1      -34.605  78.679  28.533  0.00  0.00    +0.134 A 
ATOM     21  F   LIG    1      -33.598  79.508  28.836  0.00  0.00    -0.205 F 
ATOM     22  C   LIG    1      -34.488  77.294  28.727  0.00  0.00    +0.039 A 
ATOM     23  C   LIG    1      -35.561  76.501  28.252  0.00  0.00    +0.027 A 
BRANCH  22  24
ATOM     24  C   LIG    1      -33.304  76.675  29.371  0.00  0.00    +0.109 A 
ATOM     25  C   LIG    1      -32.048  76.559  28.765  0.00  0.00    +0.149 A 
ATOM     26  F   LIG    1      -31.804  77.032  27.535  0.00  0.00    -0.203 F 
ATOM     27  C   LIG    1      -30.989  75.979  29.455  0.00  0.00    +0.042 A 
ATOM     28  C   LIG    1      -31.191  75.532  30.753  0.00  0.00    +0.023 A 
ATOM     29  C   LIG    1      -32.452  75.687  31.303  0.00  0.00    +0.111 A 
ATOM     30  N   LIG    1      -33.503  76.244  30.650  0.00  0.00    -0.252 NA
ENDBRANCH  22  24
ENDBRANCH  14  16
ENDBRANCH   4  12
BRANCH   1  31
ATOM     31  C   LIG    1      -39.139  71.246  24.037  0.00  0.00    +0.233 C 
ATOM     32  N   LIG    1      -38.118  70.475  24.001  0.00  0.00    -0.243 NA
BRANCH  31  33
ATOM     33  O   LIG    1      -40.385  70.869  23.667  0.00  0.00    -0.491 OA
ATOM     34  H   LIG    1      -40.954  70.859  24.461  0.00  0.00    +0.294 HD
ENDBRANCH  31  33
BRANCH  32  35
ATOM     35  C   LIG    1      -38.358  69.109  23.502  0.00  0.00    +0.202 C 
BRANCH  35  36
ATOM     36  C   LIG    1      -37.079  68.375  23.145  0.00  0.00    +0.085 A 
ATOM     37  N   LIG    1      -35.919  68.796  23.704  0.00  0.00    -0.152 NA
ATOM     38  N   LIG    1      -34.741  68.163  23.415  0.00  0.00    -0.157 NA
ATOM     39  C   LIG    1      -34.741  67.127  22.555  0.00  0.00    +0.135 A 
ATOM     40  C   LIG    1      -35.891  66.681  21.937  0.00  0.00    +0.023 A 
ATOM     41  C   LIG    1      -37.088  67.325  22.232  0.00  0.00    +0.028 A 
ENDBRANCH  35  36
ENDBRANCH  32  35
ENDBRANCH   1  31
TORSDOF 8
ENDMDL
MODEL 6
REMARK VINA RESULT:      -6.6      7.196     12.105
REMARK  Name = pdb/CHEMBL3943397.pdb
REMARK                            x       y       z     vdW  Elec       q    Type
REMARK                         _______ _______ _______ _____ _____    ______ ____
ROOT
ATOM      1  C   LIG    1      -38.211  76.395  26.040  0.00  0.00    +0.131 C 
ATOM      2  N   LIG    1      -38.101  75.148  25.542  0.00  0.00    -0.141 NA
ATOM      3  N   LIG    1      -39.213  74.991  24.764  0.00  0.00    -0.201 N 
ATOM      4  C   LIG    1      -39.873  76.200  24.592  0.00  0.00    +0.185 C 
ATOM      5  C   LIG    1      -39.330  77.085  25.500  0.00  0.00    +0.056 C 
ENDROOT
BRANCH   3   6
ATOM      6  C   LIG    1      -39.626  73.702  24.324  0.00  0.00    +0.052 A 
ATOM      7  C   LIG    1      -38.818  72.573  24.533  0.00  0.00    +0.025 A 
ATOM      8  C   LIG    1      -39.240  71.317  24.080  0.00  0.00    +0.002 A 
ATOM      9  C   LIG    1      -40.465  71.184  23.429  0.00  0.00    +0.000 A 
ATOM     10  C   LIG    1      -41.260  72.306  23.206  0.00  0.00    +0.002 A 
ATOM     11  C   LIG    1      -40.838  73.567  23.637  0.00  0.00    +0.025 A 
ENDBRANCH   3   6
BRANCH   4  12
ATOM     12  N   LIG    1      -40.849  76.552  23.666  0.00  0.00    -0.282 N 
ATOM     13  H   LIG    1      -40.615  76.469  22.677  0.00  0.00    +0.152 HD
ATOM     14  C   LIG    1      -42.226  76.666  24.069  0.00  0.00    +0.247 C 
ATOM     15  O   LIG    1      -42.543  76.414  25.217  0.00  0.00    -0.270 OA
BRANCH  14  16
ATOM     16  C   LIG    1      -43.211  77.127  23.050  0.00  0.00    +0.056 A 
ATOM     17  C   LIG    1      -43.663  78.447  22.952  0.00  0.00    +0.056 A 
ATOM     18 CL   LIG    1      -42.972  79.757  23.839  0.00  0.00    -0.083 Cl
ATOM     19  C   LIG    1      -44.703  78.762  22.080  0.00  0.00    +0.059 A 
ATOM     20  C   LIG    1      -45.261  77.779  21.265  0.00  0.00    +0.134 A 
ATOM     21  F   LIG    1      -46.308  78.144  20.514  0.00  0.00    -0.205 F 
ATOM     22  C   LIG    1      -44.778  76.462  21.245  0.00  0.00    +0.039 A 
ATOM     23  C   LIG    1      -43.752  76.156  22.173  0.00  0.00    +0.027 A 
BRANCH  22  24
ATOM     24  C   LIG    1      -45.314  75.428  20.327  0.00  0.00    +0.109 A 
ATOM     25  C   LIG    1      -45.094  75.412  18.945  0.00  0.00    +0.149 A 
ATOM     26  F   LIG    1      -44.343  76.337  18.332  0.00  0.00    -0.203 F 
ATOM     27  C   LIG    1      -45.624  74.389  18.164  0.00  0.00    +0.042 A 
ATOM     28  C   LIG    1      -46.357  73.383  18.774  0.00  0.00    +0.023 A 
ATOM     29  C   LIG    1      -46.529  73.446  20.147  0.00  0.00    +0.111 A 
ATOM     30  N   LIG    1      -46.028  74.435  20.931  0.00  0.00    -0.252 NA
ENDBRANCH  22  24
ENDBRANCH  14  16
ENDBRANCH   4  12
BRANCH   1  31
ATOM     31  C   LIG    1      -37.186  76.933  26.934  0.00  0.00    +0.233 C 
ATOM     32  N   LIG    1      -36.274  76.184  27.429  0.00  0.00    -0.243 NA
BRANCH  31  33
ATOM     33  O   LIG    1      -37.316  78.252  27.214  0.00  0.00    -0.491 OA
ATOM     34  H   LIG    1      -36.498  78.709  26.934  0.00  0.00    +0.294 HD
ENDBRANCH  31  33
BRANCH  32  35
ATOM     35  C   LIG    1      -35.343  76.835  28.368  0.00  0.00    +0.202 C 
BRANCH  35  36
ATOM     36  C   LIG    1      -34.226  77.587  27.670  0.00  0.00    +0.085 A 
ATOM     37  N   LIG    1      -34.347  78.929  27.523  0.00  0.00    -0.152 NA
ATOM     38  N   LIG    1      -33.363  79.649  26.903  0.00  0.00    -0.157 NA
ATOM     39  C   LIG    1      -32.279  79.012  26.424  0.00  0.00    +0.135 A 
ATOM     40  C   LIG    1      -32.123  77.644  26.522  0.00  0.00    +0.023 A 
ATOM     41  C   LIG    1      -33.123  76.913  27.153  0.00  0.00    +0.028 A 
ENDBRANCH  35  36
ENDBRANCH  32  35
ENDBRANCH   1  31
TORSDOF 8
ENDMDL
MODEL 7
REMARK VINA RESULT:      -6.6     13.565     17.619
REMARK  Name = pdb/CHEMBL3943397.pdb
REMARK                            x       y       z     vdW  Elec       q    Type
REMARK                         _______ _______ _______ _____ _____    ______ ____
ROOT
ATOM      1  C   LIG    1      -32.141  86.103  30.678  0.00  0.00    +0.131 C 
ATOM      2  N   LIG    1      -32.699  87.328  30.722  0.00  0.00    -0.141 NA
ATOM      3  N   LIG    1      -33.305  87.474  29.507  0.00  0.00    -0.201 N 
ATOM      4  C   LIG    1      -33.327  86.270  28.816  0.00  0.00    +0.185 C 
ATOM      5  C   LIG    1      -32.478  85.411  29.482  0.00  0.00    +0.056 C 
ENDROOT
BRANCH   3   6
ATOM      6  C   LIG    1      -33.727  88.752  29.045  0.00  0.00    +0.052 A 
ATOM      7  C   LIG    1      -32.808  89.798  28.868  0.00  0.00    +0.025 A 
ATOM      8  C   LIG    1      -33.248  91.050  28.423  0.00  0.00    +0.002 A 
ATOM      9  C   LIG    1      -34.599  91.259  28.148  0.00  0.00    +0.000 A 
ATOM     10  C   LIG    1      -35.515  90.227  28.340  0.00  0.00    +0.002 A 
ATOM     11  C   LIG    1      -35.087  88.979  28.802  0.00  0.00    +0.025 A 
ENDBRANCH   3   6
BRANCH   4  12
ATOM     12  N   LIG    1      -34.080  85.899  27.708  0.00  0.00    -0.282 N 
ATOM     13  H   LIG    1      -33.585  85.729  26.833  0.00  0.00    +0.152 HD
ATOM     14  C   LIG    1      -35.428  85.418  27.873  0.00  0.00    +0.247 C 
ATOM     15  O   LIG    1      -35.893  85.297  28.991  0.00  0.00    -0.270 OA
BRANCH  14  16
ATOM     16  C   LIG    1      -36.211  85.115  26.642  0.00  0.00    +0.056 A 
ATOM     17  C   LIG    1      -36.522  83.818  26.223  0.00  0.00    +0.056 A 
ATOM     18 CL   LIG    1      -36.245  82.414  27.189  0.00  0.00    -0.083 Cl
ATOM     19  C   LIG    1      -37.116  83.613  24.979  0.00  0.00    +0.059 A 
ATOM     20  C   LIG    1      -37.451  84.698  24.172  0.00  0.00    +0.134 A 
ATOM     21  F   LIG    1      -37.944  84.415  22.959  0.00  0.00    -0.205 F 
ATOM     22  C   LIG    1      -37.258  86.025  24.585  0.00  0.00    +0.039 A 
ATOM     23  C   LIG    1      -36.611  86.206  25.833  0.00  0.00    +0.027 A 
BRANCH  22  24
ATOM     24  C   LIG    1      -37.681  87.186  23.765  0.00  0.00    +0.109 A 
ATOM     25  C   LIG    1      -39.007  87.460  23.411  0.00  0.00    +0.149 A 
ATOM     26  F   LIG    1      -40.026  86.688  23.816  0.00  0.00    -0.203 F 
ATOM     27  C   LIG    1      -39.311  88.586  22.653  0.00  0.00    +0.042 A 
ATOM     28  C   LIG    1      -38.287  89.438  22.267  0.00  0.00    +0.023 A 
ATOM     29  C   LIG    1      -36.997  89.122  22.660  0.00  0.00    +0.111 A 
ATOM     30  N   LIG    1      -36.673  88.027  23.394  0.00  0.00    -0.252 NA
ENDBRANCH  22  24
ENDBRANCH  14  16
ENDBRANCH   4  12
BRANCH   1  31
ATOM     31  C   LIG    1      -31.392  85.583  31.821  0.00  0.00    +0.233 C 
ATOM     32  N   LIG    1      -31.232  86.277  32.884  0.00  0.00    -0.243 NA
BRANCH  31  33
ATOM     33  O   LIG    1      -30.865  84.349  31.637  0.00  0.00    -0.491 OA
ATOM     34  H   LIG    1      -31.146  83.778  32.379  0.00  0.00    +0.294 HD
ENDBRANCH  31  33
BRANCH  32  35
ATOM     35  C   LIG    1      -30.400  85.665  33.936  0.00  0.00    +0.202 C 
BRANCH  35  36
ATOM     36  C   LIG    1      -29.238  86.544  34.357  0.00  0.00    +0.085 A 
ATOM     37  N   LIG    1      -28.097  85.944  34.776  0.00  0.00    -0.152 NA
ATOM     38  N   LIG    1      -27.021  86.695  35.163  0.00  0.00    -0.157 NA
ATOM     39  C   LIG    1      -27.110  88.038  35.140  0.00  0.00    +0.135 A 
ATOM     40  C   LIG    1      -28.258  88.695  34.750  0.00  0.00    +0.023 A 
ATOM     41  C   LIG    1      -29.351  87.931  34.357  0.00  0.00    +0.028 A 
ENDBRANCH  35  36
ENDBRANCH  32  35
ENDBRANCH   1  31
TORSDOF 8
ENDMDL
MODEL 8
REMARK VINA RESULT:      -6.5     15.853     17.586
REMARK  Name = pdb/CHEMBL3943397.pdb
REMARK                            x       y       z     vdW  Elec       q    Type
REMARK                         _______ _______ _______ _____ _____    ______ ____
ROOT
ATOM      1  C   LIG    1      -28.624  78.314  11.698  0.00  0.00    +0.131 C 
ATOM      2  N   LIG    1      -28.352  77.158  12.334  0.00  0.00    -0.141 NA
ATOM      3  N   LIG    1      -27.035  77.257  12.679  0.00  0.00    -0.201 N 
ATOM      4  C   LIG    1      -26.564  78.548  12.474  0.00  0.00    +0.185 C 
ATOM      5  C   LIG    1      -27.518  79.208  11.729  0.00  0.00    +0.056 C 
ENDROOT
BRANCH   3   6
ATOM      6  C   LIG    1      -26.291  76.112  13.080  0.00  0.00    +0.052 A 
ATOM      7  C   LIG    1      -24.963  75.929  12.663  0.00  0.00    +0.025 A 
ATOM      8  C   LIG    1      -24.255  74.789  13.060  0.00  0.00    +0.002 A 
ATOM      9  C   LIG    1      -24.864  73.836  13.875  0.00  0.00    +0.000 A 
ATOM     10  C   LIG    1      -26.188  74.006  14.274  0.00  0.00    +0.002 A 
ATOM     11  C   LIG    1      -26.909  75.133  13.867  0.00  0.00    +0.025 A 
ENDBRANCH   3   6
BRANCH   4  12
ATOM     12  N   LIG    1      -25.407  79.153  12.951  0.00  0.00    -0.282 N 
ATOM     13  H   LIG    1      -24.730  79.489  12.265  0.00  0.00    +0.152 HD
ATOM     14  C   LIG    1      -25.337  79.617  14.312  0.00  0.00    +0.247 C 
ATOM     15  O   LIG    1      -26.310  79.515  15.036  0.00  0.00    -0.270 OA
BRANCH  14  16
ATOM     16  C   LIG    1      -24.042  80.183  14.787  0.00  0.00    +0.056 A 
ATOM     17  C   LIG    1      -23.024  79.412  15.356  0.00  0.00    +0.056 A 
ATOM     18 CL   LIG    1      -23.035  77.685  15.373  0.00  0.00    -0.083 Cl
ATOM     19  C   LIG    1      -21.914  80.035  15.922  0.00  0.00    +0.059 A 
ATOM     20  C   LIG    1      -21.787  81.422  15.876  0.00  0.00    +0.134 A 
ATOM     21  F   LIG    1      -20.732  81.950  16.512  0.00  0.00    -0.205 F 
ATOM     22  C   LIG    1      -22.725  82.239  15.226  0.00  0.00    +0.039 A 
ATOM     23  C   LIG    1      -23.866  81.585  14.699  0.00  0.00    +0.027 A 
BRANCH  22  24
ATOM     24  C   LIG    1      -22.559  83.707  15.106  0.00  0.00    +0.109 A 
ATOM     25  C   LIG    1      -22.659  84.601  16.178  0.00  0.00    +0.149 A 
ATOM     26  F   LIG    1      -22.894  84.188  17.431  0.00  0.00    -0.203 F 
ATOM     27  C   LIG    1      -22.470  85.964  15.972  0.00  0.00    +0.042 A 
ATOM     28  C   LIG    1      -22.167  86.421  14.698  0.00  0.00    +0.023 A 
ATOM     29  C   LIG    1      -22.067  85.486  13.681  0.00  0.00    +0.111 A 
ATOM     30  N   LIG    1      -22.253  84.152  13.854  0.00  0.00    -0.252 NA
ENDBRANCH  22  24
ENDBRANCH  14  16
ENDBRANCH   4  12
BRANCH   1  31
ATOM     31  C   LIG    1      -29.962  78.580  11.174  0.00  0.00    +0.233 C 
ATOM     32  N   LIG    1      -30.208  78.531   9.918  0.00  0.00    -0.243 NA
BRANCH  31  33
ATOM     33  O   LIG    1      -30.881  78.914  12.110  0.00  0.00    -0.491 OA
ATOM     34  H   LIG    1      -30.758  79.856  12.343  0.00  0.00    +0.294 HD
ENDBRANCH  31  33
BRANCH  32  35
ATOM     35  C   LIG    1      -31.580  78.885   9.514  0.00  0.00    +0.202 C 
BRANCH  35  36
ATOM     36  C   LIG    1      -32.430  77.674   9.178  0.00  0.00    +0.085 A 
ATOM     37  N   LIG    1      -31.823  76.595   8.628  0.00  0.00    -0.152 NA
ATOM     38  N   LIG    1      -32.548  75.479   8.312  0.00  0.00    -0.157 NA
ATOM     39  C   LIG    1      -33.875  75.467   8.537  0.00  0.00    +0.135 A 
ATOM     40  C   LIG    1      -34.544  76.551   9.068  0.00  0.00    +0.023 A 
ATOM     41  C   LIG    1      -33.805  77.685   9.389  0.00  0.00    +0.028 A 
ENDBRANCH  35  36
ENDBRANCH  32  35
ENDBRANCH   1  31
TORSDOF 8
ENDMDL
MODEL 9
REMARK VINA RESULT:      -6.5     11.259     17.017
REMARK  Name = pdb/CHEMBL3943397.pdb
REMARK                            x       y       z     vdW  Elec       q    Type
REMARK                         _______ _______ _______ _____ _____    ______ ____
ROOT
ATOM      1  C   LIG    1      -24.292  78.342  34.279  0.00  0.00    +0.131 C 
ATOM      2  N   LIG    1      -23.604  78.536  33.137  0.00  0.00    -0.141 NA
ATOM      3  N   LIG    1      -23.442  77.283  32.618  0.00  0.00    -0.201 N 
ATOM      4  C   LIG    1      -24.221  76.358  33.300  0.00  0.00    +0.185 C 
ATOM      5  C   LIG    1      -24.672  76.982  34.445  0.00  0.00    +0.056 C 
ENDROOT
BRANCH   3   6
ATOM      6  C   LIG    1      -22.494  77.031  31.587  0.00  0.00    +0.052 A 
ATOM      7  C   LIG    1      -21.120  76.963  31.868  0.00  0.00    +0.025 A 
ATOM      8  C   LIG    1      -20.205  76.726  30.835  0.00  0.00    +0.002 A 
ATOM      9  C   LIG    1      -20.656  76.550  29.528  0.00  0.00    +0.000 A 
ATOM     10  C   LIG    1      -22.017  76.635  29.244  0.00  0.00    +0.002 A 
ATOM     11  C   LIG    1      -22.937  76.891  30.266  0.00  0.00    +0.025 A 
ENDBRANCH   3   6
BRANCH   4  12
ATOM     12  N   LIG    1      -24.583  75.066  32.937  0.00  0.00    -0.282 N 
ATOM     13  H   LIG    1      -24.367  74.312  33.590  0.00  0.00    +0.152 HD
ATOM     14  C   LIG    1      -25.537  74.848  31.881  0.00  0.00    +0.247 C 
ATOM     15  O   LIG    1      -26.060  75.800  31.333  0.00  0.00    -0.270 OA
BRANCH  14  16
ATOM     16  C   LIG    1      -25.821  73.440  31.483  0.00  0.00    +0.056 A 
ATOM     17  C   LIG    1      -27.065  72.824  31.654  0.00  0.00    +0.056 A 
ATOM     18 CL   LIG    1      -28.491  73.674  32.128  0.00  0.00    -0.083 Cl
ATOM     19  C   LIG    1      -27.204  71.459  31.407  0.00  0.00    +0.059 A 
ATOM     20  C   LIG    1      -26.122  70.715  30.940  0.00  0.00    +0.134 A 
ATOM     21  F   LIG    1      -26.314  69.396  30.804  0.00  0.00    -0.205 F 
ATOM     22  C   LIG    1      -24.880  71.300  30.651  0.00  0.00    +0.039 A 
ATOM     23  C   LIG    1      -24.751  72.678  30.954  0.00  0.00    +0.027 A 
BRANCH  22  24
ATOM     24  C   LIG    1      -23.748  70.531  30.082  0.00  0.00    +0.109 A 
ATOM     25  C   LIG    1      -23.711  70.034  28.774  0.00  0.00    +0.149 A 
ATOM     26  F   LIG    1      -24.711  70.240  27.906  0.00  0.00    -0.203 F 
ATOM     27  C   LIG    1      -22.595  69.337  28.321  0.00  0.00    +0.042 A 
ATOM     28  C   LIG    1      -21.518  69.156  29.175  0.00  0.00    +0.023 A 
ATOM     29  C   LIG    1      -21.608  69.683  30.453  0.00  0.00    +0.111 A 
ATOM     30  N   LIG    1      -22.686  70.361  30.921  0.00  0.00    -0.252 NA
ENDBRANCH  22  24
ENDBRANCH  14  16
ENDBRANCH   4  12
BRANCH   1  31
ATOM     31  C   LIG    1      -24.661  79.474  35.128  0.00  0.00    +0.233 C 
ATOM     32  N   LIG    1      -23.829  80.414  35.384  0.00  0.00    -0.243 NA
BRANCH  31  33
ATOM     33  O   LIG    1      -25.914  79.415  35.636  0.00  0.00    -0.491 OA
ATOM     34  H   LIG    1      -26.484  78.939  35.000  0.00  0.00    +0.294 HD
ENDBRANCH  31  33
BRANCH  32  35
ATOM     35  C   LIG    1      -24.303  81.461  36.306  0.00  0.00    +0.202 C 
BRANCH  35  36
ATOM     36  C   LIG    1      -23.170  82.208  36.986  0.00  0.00    +0.085 A 
ATOM     37  N   LIG    1      -23.445  82.902  38.117  0.00  0.00    -0.152 NA
ATOM     38  N   LIG    1      -22.455  83.588  38.766  0.00  0.00    -0.157 NA
ATOM     39  C   LIG    1      -21.207  83.581  38.263  0.00  0.00    +0.135 A 
ATOM     40  C   LIG    1      -20.883  82.913  37.100  0.00  0.00    +0.023 A 
ATOM     41  C   LIG    1      -21.890  82.217  36.441  0.00  0.00    +0.028 A 
ENDBRANCH  35  36
ENDBRANCH  32  35
ENDBRANCH   1  31
TORSDOF 8
ENDMDL
