MODEL 1
REMARK VINA RESULT:      -6.7      0.000      0.000
REMARK  Name = pdb/CHEMBL3671402.pdb
REMARK                            x       y       z     vdW  Elec       q    Type
REMARK                         _______ _______ _______ _____ _____    ______ ____
ROOT
ATOM      1  C   LIG    1      -33.220  73.394  28.926  0.00  0.00    +0.042 A 
ATOM      2  C   LIG    1      -34.164  73.252  27.904  0.00  0.00    +0.038 A 
ATOM      3  C   LIG    1      -34.758  72.017  27.635  0.00  0.00    +0.052 A 
ATOM      4  C   LIG    1      -34.439  70.961  28.479  0.00  0.00    +0.134 A 
ATOM      5  N   LIG    1      -33.556  71.064  29.505  0.00  0.00    -0.261 NA
ATOM      6  C   LIG    1      -32.961  72.268  29.696  0.00  0.00    +0.122 A 
ENDROOT
BRANCH   3   7
ATOM      7  N   LIG    1      -35.620  71.949  26.521  0.00  0.00    -0.284 N 
ATOM      8  H   LIG    1      -35.184  71.854  25.611  0.00  0.00    +0.155 HD
ATOM      9  C   LIG    1      -37.006  71.955  26.552  0.00  0.00    +0.222 C 
ATOM     10  O   LIG    1      -37.689  72.032  27.580  0.00  0.00    -0.275 OA
BRANCH   9  11
ATOM     11  C   LIG    1      -37.601  71.842  25.155  0.00  0.00    +0.131 C 
BRANCH  11  12
ATOM     12  C   LIG    1      -38.466  73.012  24.762  0.00  0.00    -0.039 A 
ATOM     13  C   LIG    1      -38.044  74.323  25.017  0.00  0.00    +0.004 A 
ATOM     14  C   LIG    1      -38.849  75.405  24.655  0.00  0.00    +0.012 A 
ATOM     15  C   LIG    1      -40.091  75.198  24.038  0.00  0.00    +0.055 A 
ATOM     16  C   LIG    1      -40.521  73.883  23.809  0.00  0.00    +0.012 A 
ATOM     17  C   LIG    1      -39.719  72.801  24.173  0.00  0.00    +0.004 A 
BRANCH  15  18
ATOM     18  C   LIG    1      -40.932  76.379  23.624  0.00  0.00    +0.417 C 
ATOM     19  F   LIG    1      -40.184  77.382  23.084  0.00  0.00    -0.166 F 
ATOM     20  F   LIG    1      -41.605  76.939  24.668  0.00  0.00    -0.166 F 
ATOM     21  F   LIG    1      -41.876  76.078  22.689  0.00  0.00    -0.166 F 
ENDBRANCH  15  18
ENDBRANCH  11  12
ENDBRANCH   9  11
ENDBRANCH   3   7
BRANCH   1  22
ATOM     22  C   LIG    1      -32.520  74.674  29.246  0.00  0.00    +0.197 C 
ATOM     23  O   LIG    1      -31.378  74.601  29.698  0.00  0.00    -0.287 OA
BRANCH  22  31
ATOM     24  N   LIG    1      -34.445  77.818  29.268  0.00  0.00    -0.323 N 
ATOM     25  C   LIG    1      -33.653  78.056  28.171  0.00  0.00    +0.145 A 
ATOM     26  N   LIG    1      -33.653  79.161  27.405  0.00  0.00    -0.218 NA
ATOM     27  C   LIG    1      -32.809  79.077  26.371  0.00  0.00    +0.223 A 
ATOM     28  N   LIG    1      -31.971  78.069  26.087  0.00  0.00    -0.243 NA
ATOM     29  C   LIG    1      -31.966  76.991  26.909  0.00  0.00    +0.124 A 
ATOM     30  C   LIG    1      -32.842  76.938  27.995  0.00  0.00    +0.048 A 
ATOM     31  C   LIG    1      -33.157  75.982  29.027  0.00  0.00    +0.051 A 
ATOM     32  C   LIG    1      -34.222  76.540  29.714  0.00  0.00    +0.100 A 
BRANCH  24  33
ATOM     33  C   LIG    1      -35.393  78.741  29.925  0.00  0.00    +0.070 C 
ATOM     34  C   LIG    1      -35.286  78.983  31.442  0.00  0.00    +0.033 C 
ATOM     35  C   LIG    1      -34.840  80.054  30.514  0.00  0.00    +0.033 C 
BRANCH  33  36
ATOM     36  C   LIG    1      -36.779  78.851  29.318  0.00  0.00    +0.184 C 
BRANCH  36  37
ATOM     37  O   LIG    1      -36.658  79.060  27.915  0.00  0.00    -0.393 OA
ATOM     38  H   LIG    1      -37.522  79.399  27.616  0.00  0.00    +0.209 HD
ENDBRANCH  36  37
ENDBRANCH  33  36
ENDBRANCH  24  33
ENDBRANCH  22  31
ENDBRANCH   1  22
TORSDOF 9
ENDMDL
MODEL 2
REMARK VINA RESULT:      -6.3      1.999      3.038
REMARK  Name = pdb/CHEMBL3671402.pdb
REMARK                            x       y       z     vdW  Elec       q    Type
REMARK                         _______ _______ _______ _____ _____    ______ ____
ROOT
ATOM      1  C   LIG    1      -34.277  71.730  28.339  0.00  0.00    +0.042 A 
ATOM      2  C   LIG    1      -35.321  71.920  27.427  0.00  0.00    +0.038 A 
ATOM      3  C   LIG    1      -35.534  71.026  26.376  0.00  0.00    +0.052 A 
ATOM      4  C   LIG    1      -34.725  69.899  26.326  0.00  0.00    +0.134 A 
ATOM      5  N   LIG    1      -33.724  69.656  27.210  0.00  0.00    -0.261 NA
ATOM      6  C   LIG    1      -33.516  70.578  28.184  0.00  0.00    +0.122 A 
ENDROOT
BRANCH   3   7
ATOM      7  N   LIG    1      -36.545  71.356  25.449  0.00  0.00    -0.284 N 
ATOM      8  H   LIG    1      -36.242  71.675  24.536  0.00  0.00    +0.155 HD
ATOM      9  C   LIG    1      -37.912  71.245  25.650  0.00  0.00    +0.222 C 
ATOM     10  O   LIG    1      -38.443  70.843  26.693  0.00  0.00    -0.275 OA
BRANCH   9  11
ATOM     11  C   LIG    1      -38.699  71.669  24.418  0.00  0.00    +0.131 C 
BRANCH  11  12
ATOM     12  C   LIG    1      -39.047  73.135  24.389  0.00  0.00    -0.039 A 
ATOM     13  C   LIG    1      -38.144  74.088  24.878  0.00  0.00    +0.004 A 
ATOM     14  C   LIG    1      -38.469  75.446  24.853  0.00  0.00    +0.012 A 
ATOM     15  C   LIG    1      -39.703  75.876  24.344  0.00  0.00    +0.055 A 
ATOM     16  C   LIG    1      -40.614  74.917  23.880  0.00  0.00    +0.012 A 
ATOM     17  C   LIG    1      -40.292  73.559  23.908  0.00  0.00    +0.004 A 
BRANCH  15  18
ATOM     18  C   LIG    1      -40.025  77.348  24.295  0.00  0.00    +0.417 C 
ATOM     19  F   LIG    1      -40.375  77.759  23.043  0.00  0.00    -0.166 F 
ATOM     20  F   LIG    1      -38.972  78.131  24.662  0.00  0.00    -0.166 F 
ATOM     21  F   LIG    1      -41.060  77.710  25.104  0.00  0.00    -0.166 F 
ENDBRANCH  15  18
ENDBRANCH  11  12
ENDBRANCH   9  11
ENDBRANCH   3   7
BRANCH   1  22
ATOM     22  C   LIG    1      -33.969  72.661  29.465  0.00  0.00    +0.197 C 
ATOM     23  O   LIG    1      -34.290  72.309  30.599  0.00  0.00    -0.287 OA
BRANCH  22  31
ATOM     24  N   LIG    1      -32.811  76.025  28.501  0.00  0.00    -0.323 N 
ATOM     25  C   LIG    1      -31.847  75.722  29.430  0.00  0.00    +0.145 A 
ATOM     26  N   LIG    1      -30.824  76.507  29.813  0.00  0.00    -0.218 NA
ATOM     27  C   LIG    1      -30.015  75.914  30.697  0.00  0.00    +0.223 A 
ATOM     28  N   LIG    1      -30.163  74.698  31.244  0.00  0.00    -0.243 NA
ATOM     29  C   LIG    1      -31.231  73.954  30.868  0.00  0.00    +0.124 A 
ATOM     30  C   LIG    1      -32.121  74.444  29.910  0.00  0.00    +0.048 A 
ATOM     31  C   LIG    1      -33.300  73.952  29.242  0.00  0.00    +0.051 A 
ATOM     32  C   LIG    1      -33.614  74.929  28.314  0.00  0.00    +0.100 A 
BRANCH  24  33
ATOM     33  C   LIG    1      -33.020  77.302  27.788  0.00  0.00    +0.070 C 
ATOM     34  C   LIG    1      -34.453  77.825  27.575  0.00  0.00    +0.033 C 
ATOM     35  C   LIG    1      -33.591  78.494  28.582  0.00  0.00    +0.033 C 
BRANCH  33  36
ATOM     36  C   LIG    1      -32.000  77.675  26.729  0.00  0.00    +0.184 C 
BRANCH  36  37
ATOM     37  O   LIG    1      -32.660  78.341  25.659  0.00  0.00    -0.393 OA
ATOM     38  H   LIG    1      -33.084  77.644  25.125  0.00  0.00    +0.209 HD
ENDBRANCH  36  37
ENDBRANCH  33  36
ENDBRANCH  24  33
ENDBRANCH  22  31
ENDBRANCH   1  22
TORSDOF 9
ENDMDL
MODEL 3
REMARK VINA RESULT:      -6.2      4.664      9.412
REMARK  Name = pdb/CHEMBL3671402.pdb
REMARK                            x       y       z     vdW  Elec       q    Type
REMARK                         _______ _______ _______ _____ _____    ______ ____
ROOT
ATOM      1  C   LIG    1      -39.290  72.996  24.354  0.00  0.00    +0.042 A 
ATOM      2  C   LIG    1      -38.207  73.660  24.940  0.00  0.00    +0.038 A 
ATOM      3  C   LIG    1      -38.165  75.054  25.009  0.00  0.00    +0.052 A 
ATOM      4  C   LIG    1      -39.279  75.747  24.554  0.00  0.00    +0.134 A 
ATOM      5  N   LIG    1      -40.366  75.142  24.011  0.00  0.00    -0.261 NA
ATOM      6  C   LIG    1      -40.342  73.789  23.913  0.00  0.00    +0.122 A 
ENDROOT
BRANCH   3   7
ATOM      7  N   LIG    1      -36.988  75.635  25.525  0.00  0.00    -0.284 N 
ATOM      8  H   LIG    1      -36.304  75.959  24.849  0.00  0.00    +0.155 HD
ATOM      9  C   LIG    1      -36.693  75.847  26.863  0.00  0.00    +0.222 C 
ATOM     10  O   LIG    1      -37.432  75.541  27.806  0.00  0.00    -0.275 OA
BRANCH   9  11
ATOM     11  C   LIG    1      -35.340  76.522  27.041  0.00  0.00    +0.131 C 
BRANCH  11  12
ATOM     12  C   LIG    1      -34.336  75.689  27.797  0.00  0.00    -0.039 A 
ATOM     13  C   LIG    1      -33.266  76.300  28.463  0.00  0.00    +0.004 A 
ATOM     14  C   LIG    1      -32.336  75.528  29.161  0.00  0.00    +0.012 A 
ATOM     15  C   LIG    1      -32.454  74.131  29.202  0.00  0.00    +0.055 A 
ATOM     16  C   LIG    1      -33.512  73.521  28.513  0.00  0.00    +0.012 A 
ATOM     17  C   LIG    1      -34.441  74.293  27.812  0.00  0.00    +0.004 A 
BRANCH  15  18
ATOM     18  C   LIG    1      -31.459  73.314  29.987  0.00  0.00    +0.417 C 
ATOM     19  F   LIG    1      -30.606  74.094  30.709  0.00  0.00    -0.166 F 
ATOM     20  F   LIG    1      -30.671  72.538  29.193  0.00  0.00    -0.166 F 
ATOM     21  F   LIG    1      -32.034  72.467  30.886  0.00  0.00    -0.166 F 
ENDBRANCH  15  18
ENDBRANCH  11  12
ENDBRANCH   9  11
ENDBRANCH   3   7
BRANCH   1  22
ATOM     22  C   LIG    1      -39.386  71.513  24.215  0.00  0.00    +0.197 C 
ATOM     23  O   LIG    1      -40.495  71.033  23.985  0.00  0.00    -0.287 OA
BRANCH  22  31
ATOM     24  N   LIG    1      -36.395  69.573  25.152  0.00  0.00    -0.323 N 
ATOM     25  C   LIG    1      -36.598  69.064  23.893  0.00  0.00    +0.145 A 
ATOM     26  N   LIG    1      -35.863  68.119  23.280  0.00  0.00    -0.218 NA
ATOM     27  C   LIG    1      -36.272  67.870  22.031  0.00  0.00    +0.223 A 
ATOM     28  N   LIG    1      -37.327  68.408  21.400  0.00  0.00    -0.243 NA
ATOM     29  C   LIG    1      -38.072  69.323  22.067  0.00  0.00    +0.124 A 
ATOM     30  C   LIG    1      -37.713  69.706  23.361  0.00  0.00    +0.048 A 
ATOM     31  C   LIG    1      -38.205  70.644  24.338  0.00  0.00    +0.051 A 
ATOM     32  C   LIG    1      -37.290  70.588  25.375  0.00  0.00    +0.100 A 
BRANCH  24  33
ATOM     33  C   LIG    1      -35.406  69.141  26.161  0.00  0.00    +0.070 C 
ATOM     34  C   LIG    1      -35.755  69.250  27.657  0.00  0.00    +0.033 C 
ATOM     35  C   LIG    1      -35.740  67.907  27.024  0.00  0.00    +0.033 C 
BRANCH  33  36
ATOM     36  C   LIG    1      -33.941  69.283  25.795  0.00  0.00    +0.184 C 
BRANCH  36  37
ATOM     37  O   LIG    1      -33.752  70.507  25.095  0.00  0.00    -0.393 OA
ATOM     38  H   LIG    1      -34.624  70.750  24.732  0.00  0.00    +0.209 HD
ENDBRANCH  36  37
ENDBRANCH  33  36
ENDBRANCH  24  33
ENDBRANCH  22  31
ENDBRANCH   1  22
TORSDOF 9
ENDMDL
MODEL 4
REMARK VINA RESULT:      -6.1      1.380      1.870
REMARK  Name = pdb/CHEMBL3671402.pdb
REMARK                            x       y       z     vdW  Elec       q    Type
REMARK                         _______ _______ _______ _____ _____    ______ ____
ROOT
ATOM      1  C   LIG    1      -34.045  72.974  28.472  0.00  0.00    +0.042 A 
ATOM      2  C   LIG    1      -35.253  72.804  27.787  0.00  0.00    +0.038 A 
ATOM      3  C   LIG    1      -35.734  71.531  27.475  0.00  0.00    +0.052 A 
ATOM      4  C   LIG    1      -35.011  70.444  27.949  0.00  0.00    +0.134 A 
ATOM      5  N   LIG    1      -33.853  70.564  28.648  0.00  0.00    -0.261 NA
ATOM      6  C   LIG    1      -33.393  71.818  28.882  0.00  0.00    +0.122 A 
ENDROOT
BRANCH   3   7
ATOM      7  N   LIG    1      -36.907  71.462  26.695  0.00  0.00    -0.284 N 
ATOM      8  H   LIG    1      -37.784  71.641  27.171  0.00  0.00    +0.155 HD
ATOM      9  C   LIG    1      -36.974  71.217  25.332  0.00  0.00    +0.222 C 
ATOM     10  O   LIG    1      -35.998  71.012  24.602  0.00  0.00    -0.275 OA
BRANCH   9  11
ATOM     11  C   LIG    1      -38.410  71.242  24.826  0.00  0.00    +0.131 C 
BRANCH  11  12
ATOM     12  C   LIG    1      -38.947  72.629  24.578  0.00  0.00    -0.039 A 
ATOM     13  C   LIG    1      -38.191  73.755  24.930  0.00  0.00    +0.004 A 
ATOM     14  C   LIG    1      -38.691  75.038  24.702  0.00  0.00    +0.012 A 
ATOM     15  C   LIG    1      -39.957  75.221  24.125  0.00  0.00    +0.055 A 
ATOM     16  C   LIG    1      -40.720  74.091  23.799  0.00  0.00    +0.012 A 
ATOM     17  C   LIG    1      -40.223  72.808  24.029  0.00  0.00    +0.004 A 
BRANCH  15  18
ATOM     18  C   LIG    1      -40.468  76.614  23.857  0.00  0.00    +0.417 C 
ATOM     19  F   LIG    1      -41.304  76.659  22.781  0.00  0.00    -0.166 F 
ATOM     20  F   LIG    1      -39.469  77.499  23.587  0.00  0.00    -0.166 F 
ATOM     21  F   LIG    1      -41.172  77.148  24.894  0.00  0.00    -0.166 F 
ENDBRANCH  15  18
ENDBRANCH  11  12
ENDBRANCH   9  11
ENDBRANCH   3   7
BRANCH   1  22
ATOM     22  C   LIG    1      -33.454  74.303  28.808  0.00  0.00    +0.197 C 
ATOM     23  O   LIG    1      -32.370  74.314  29.390  0.00  0.00    -0.287 OA
BRANCH  22  31
ATOM     24  N   LIG    1      -35.694  77.158  28.160  0.00  0.00    -0.323 N 
ATOM     25  C   LIG    1      -34.500  77.734  27.802  0.00  0.00    +0.145 A 
ATOM     26  N   LIG    1      -34.314  78.992  27.365  0.00  0.00    -0.218 NA
ATOM     27  C   LIG    1      -33.042  79.247  27.038  0.00  0.00    +0.223 A 
ATOM     28  N   LIG    1      -31.992  78.421  27.160  0.00  0.00    -0.243 NA
ATOM     29  C   LIG    1      -32.212  77.175  27.647  0.00  0.00    +0.124 A 
ATOM     30  C   LIG    1      -33.508  76.773  27.975  0.00  0.00    +0.048 A 
ATOM     31  C   LIG    1      -34.127  75.563  28.456  0.00  0.00    +0.051 A 
ATOM     32  C   LIG    1      -35.485  75.834  28.449  0.00  0.00    +0.100 A 
BRANCH  24  33
ATOM     33  C   LIG    1      -37.022  77.798  28.254  0.00  0.00    +0.070 C 
ATOM     34  C   LIG    1      -37.850  78.018  26.974  0.00  0.00    +0.033 C 
ATOM     35  C   LIG    1      -38.264  76.949  27.917  0.00  0.00    +0.033 C 
BRANCH  33  36
ATOM     36  C   LIG    1      -37.225  78.804  29.372  0.00  0.00    +0.184 C 
BRANCH  36  37
ATOM     37  O   LIG    1      -36.897  78.192  30.614  0.00  0.00    -0.393 OA
ATOM     38  H   LIG    1      -36.131  77.615  30.439  0.00  0.00    +0.209 HD
ENDBRANCH  36  37
ENDBRANCH  33  36
ENDBRANCH  24  33
ENDBRANCH  22  31
ENDBRANCH   1  22
TORSDOF 9
ENDMDL
MODEL 5
REMARK VINA RESULT:      -6.1      2.869      5.737
REMARK  Name = pdb/CHEMBL3671402.pdb
REMARK                            x       y       z     vdW  Elec       q    Type
REMARK                         _______ _______ _______ _____ _____    ______ ____
ROOT
ATOM      1  C   LIG    1      -37.271  80.084  28.907  0.00  0.00    +0.042 A 
ATOM      2  C   LIG    1      -37.602  79.441  27.709  0.00  0.00    +0.038 A 
ATOM      3  C   LIG    1      -38.756  79.782  27.001  0.00  0.00    +0.052 A 
ATOM      4  C   LIG    1      -39.511  80.842  27.487  0.00  0.00    +0.134 A 
ATOM      5  N   LIG    1      -39.207  81.516  28.626  0.00  0.00    -0.261 NA
ATOM      6  C   LIG    1      -38.107  81.116  29.312  0.00  0.00    +0.122 A 
ENDROOT
BRANCH   3   7
ATOM      7  N   LIG    1      -39.059  79.011  25.860  0.00  0.00    -0.284 N 
ATOM      8  H   LIG    1      -38.545  79.226  25.013  0.00  0.00    +0.155 HD
ATOM      9  C   LIG    1      -39.959  77.958  25.794  0.00  0.00    +0.222 C 
ATOM     10  O   LIG    1      -40.639  77.550  26.743  0.00  0.00    -0.275 OA
BRANCH   9  11
ATOM     11  C   LIG    1      -40.007  77.344  24.402  0.00  0.00    +0.131 C 
BRANCH  11  12
ATOM     12  C   LIG    1      -39.760  75.857  24.381  0.00  0.00    -0.039 A 
ATOM     13  C   LIG    1      -38.548  75.333  24.850  0.00  0.00    +0.004 A 
ATOM     14  C   LIG    1      -38.321  73.956  24.828  0.00  0.00    +0.012 A 
ATOM     15  C   LIG    1      -39.295  73.078  24.330  0.00  0.00    +0.055 A 
ATOM     16  C   LIG    1      -40.495  73.609  23.837  0.00  0.00    +0.012 A 
ATOM     17  C   LIG    1      -40.723  74.986  23.857  0.00  0.00    +0.004 A 
BRANCH  15  18
ATOM     18  C   LIG    1      -39.045  71.591  24.343  0.00  0.00    +0.417 C 
ATOM     19  F   LIG    1      -39.351  71.026  25.545  0.00  0.00    -0.166 F 
ATOM     20  F   LIG    1      -37.743  71.273  24.104  0.00  0.00    -0.166 F 
ATOM     21  F   LIG    1      -39.774  70.905  23.418  0.00  0.00    -0.166 F 
ENDBRANCH  15  18
ENDBRANCH  11  12
ENDBRANCH   9  11
ENDBRANCH   3   7
BRANCH   1  22
ATOM     22  C   LIG    1      -36.074  79.748  29.733  0.00  0.00    +0.197 C 
ATOM     23  O   LIG    1      -35.897  80.390  30.768  0.00  0.00    -0.287 OA
BRANCH  22  31
ATOM     24  N   LIG    1      -34.045  76.714  29.217  0.00  0.00    -0.323 N 
ATOM     25  C   LIG    1      -33.517  77.499  28.223  0.00  0.00    +0.145 A 
ATOM     26  N   LIG    1      -32.548  77.155  27.356  0.00  0.00    -0.218 NA
ATOM     27  C   LIG    1      -32.203  78.155  26.537  0.00  0.00    +0.223 A 
ATOM     28  N   LIG    1      -32.751  79.377  26.473  0.00  0.00    -0.243 NA
ATOM     29  C   LIG    1      -33.757  79.672  27.332  0.00  0.00    +0.124 A 
ATOM     30  C   LIG    1      -34.172  78.727  28.272  0.00  0.00    +0.048 A 
ATOM     31  C   LIG    1      -35.136  78.684  29.343  0.00  0.00    +0.051 A 
ATOM     32  C   LIG    1      -34.935  77.456  29.951  0.00  0.00    +0.100 A 
BRANCH  24  33
ATOM     33  C   LIG    1      -33.760  75.292  29.504  0.00  0.00    +0.070 C 
ATOM     34  C   LIG    1      -32.361  74.887  30.005  0.00  0.00    +0.033 C 
ATOM     35  C   LIG    1      -33.492  74.886  30.967  0.00  0.00    +0.033 C 
BRANCH  33  36
ATOM     36  C   LIG    1      -34.512  74.261  28.686  0.00  0.00    +0.184 C 
BRANCH  36  37
ATOM     37  O   LIG    1      -33.808  74.026  27.471  0.00  0.00    -0.393 OA
ATOM     38  H   LIG    1      -33.701  74.896  27.046  0.00  0.00    +0.209 HD
ENDBRANCH  36  37
ENDBRANCH  33  36
ENDBRANCH  24  33
ENDBRANCH  22  31
ENDBRANCH   1  22
TORSDOF 9
ENDMDL
MODEL 6
REMARK VINA RESULT:      -6.0      1.948      2.523
REMARK  Name = pdb/CHEMBL3671402.pdb
REMARK                            x       y       z     vdW  Elec       q    Type
REMARK                         _______ _______ _______ _____ _____    ______ ____
ROOT
ATOM      1  C   LIG    1      -35.180  75.140  29.874  0.00  0.00    +0.042 A 
ATOM      2  C   LIG    1      -35.747  75.015  28.601  0.00  0.00    +0.038 A 
ATOM      3  C   LIG    1      -36.295  73.806  28.169  0.00  0.00    +0.052 A 
ATOM      4  C   LIG    1      -36.332  72.762  29.083  0.00  0.00    +0.134 A 
ATOM      5  N   LIG    1      -35.825  72.850  30.340  0.00  0.00    -0.261 NA
ATOM      6  C   LIG    1      -35.254  74.026  30.700  0.00  0.00    +0.122 A 
ENDROOT
BRANCH   3   7
ATOM      7  N   LIG    1      -36.751  73.749  26.835  0.00  0.00    -0.284 N 
ATOM      8  H   LIG    1      -36.043  73.668  26.114  0.00  0.00    +0.155 HD
ATOM      9  C   LIG    1      -38.072  73.749  26.417  0.00  0.00    +0.222 C 
ATOM     10  O   LIG    1      -39.051  73.809  27.170  0.00  0.00    -0.275 OA
BRANCH   9  11
ATOM     11  C   LIG    1      -38.184  73.651  24.902  0.00  0.00    +0.131 C 
BRANCH  11  12
ATOM     12  C   LIG    1      -39.481  74.183  24.348  0.00  0.00    -0.039 A 
ATOM     13  C   LIG    1      -40.463  73.304  23.875  0.00  0.00    +0.004 A 
ATOM     14  C   LIG    1      -41.663  73.799  23.360  0.00  0.00    +0.012 A 
ATOM     15  C   LIG    1      -41.901  75.180  23.303  0.00  0.00    +0.055 A 
ATOM     16  C   LIG    1      -40.904  76.057  23.754  0.00  0.00    +0.012 A 
ATOM     17  C   LIG    1      -39.703  75.564  24.266  0.00  0.00    +0.004 A 
BRANCH  15  18
ATOM     18  C   LIG    1      -43.215  75.696  22.774  0.00  0.00    +0.417 C 
ATOM     19  F   LIG    1      -43.569  75.099  21.601  0.00  0.00    -0.166 F 
ATOM     20  F   LIG    1      -43.192  77.034  22.517  0.00  0.00    -0.166 F 
ATOM     21  F   LIG    1      -44.264  75.495  23.621  0.00  0.00    -0.166 F 
ENDBRANCH  15  18
ENDBRANCH  11  12
ENDBRANCH   9  11
ENDBRANCH   3   7
BRANCH   1  22
ATOM     22  C   LIG    1      -34.547  76.390  30.389  0.00  0.00    +0.197 C 
ATOM     23  O   LIG    1      -34.051  76.355  31.514  0.00  0.00    -0.287 OA
BRANCH  22  31
ATOM     24  N   LIG    1      -34.862  79.721  28.842  0.00  0.00    -0.323 N 
ATOM     25  C   LIG    1      -33.907  79.186  28.013  0.00  0.00    +0.145 A 
ATOM     26  N   LIG    1      -33.314  79.797  26.972  0.00  0.00    -0.218 NA
ATOM     27  C   LIG    1      -32.464  79.000  26.316  0.00  0.00    +0.223 A 
ATOM     28  N   LIG    1      -32.130  77.739  26.628  0.00  0.00    -0.243 NA
ATOM     29  C   LIG    1      -32.714  77.172  27.712  0.00  0.00    +0.124 A 
ATOM     30  C   LIG    1      -33.660  77.887  28.448  0.00  0.00    +0.048 A 
ATOM     31  C   LIG    1      -34.502  77.623  29.588  0.00  0.00    +0.051 A 
ATOM     32  C   LIG    1      -35.291  78.754  29.715  0.00  0.00    +0.100 A 
BRANCH  24  33
ATOM     33  C   LIG    1      -35.382  81.104  28.861  0.00  0.00    +0.070 C 
ATOM     34  C   LIG    1      -35.787  81.742  30.203  0.00  0.00    +0.033 C 
ATOM     35  C   LIG    1      -34.532  82.191  29.549  0.00  0.00    +0.033 C 
BRANCH  33  36
ATOM     36  C   LIG    1      -36.139  81.572  27.633  0.00  0.00    +0.184 C 
BRANCH  36  37
ATOM     37  O   LIG    1      -35.212  82.068  26.675  0.00  0.00    -0.393 OA
ATOM     38  H   LIG    1      -35.087  81.355  26.022  0.00  0.00    +0.209 HD
ENDBRANCH  36  37
ENDBRANCH  33  36
ENDBRANCH  24  33
ENDBRANCH  22  31
ENDBRANCH   1  22
TORSDOF 9
ENDMDL
MODEL 7
REMARK VINA RESULT:      -6.0      4.563      9.378
REMARK  Name = pdb/CHEMBL3671402.pdb
REMARK                            x       y       z     vdW  Elec       q    Type
REMARK                         _______ _______ _______ _____ _____    ______ ____
ROOT
ATOM      1  C   LIG    1      -39.082  74.579  24.613  0.00  0.00    +0.042 A 
ATOM      2  C   LIG    1      -37.881  74.880  25.266  0.00  0.00    +0.038 A 
ATOM      3  C   LIG    1      -37.495  76.202  25.495  0.00  0.00    +0.052 A 
ATOM      4  C   LIG    1      -38.389  77.199  25.129  0.00  0.00    +0.134 A 
ATOM      5  N   LIG    1      -39.580  76.950  24.527  0.00  0.00    -0.261 NA
ATOM      6  C   LIG    1      -39.892  75.655  24.273  0.00  0.00    +0.122 A 
ENDROOT
BRANCH   3   7
ATOM      7  N   LIG    1      -36.222  76.407  26.068  0.00  0.00    -0.284 N 
ATOM      8  H   LIG    1      -35.439  76.478  25.427  0.00  0.00    +0.155 HD
ATOM      9  C   LIG    1      -35.942  76.565  27.416  0.00  0.00    +0.222 C 
ATOM     10  O   LIG    1      -36.786  76.538  28.320  0.00  0.00    -0.275 OA
BRANCH   9  11
ATOM     11  C   LIG    1      -34.457  76.792  27.660  0.00  0.00    +0.131 C 
BRANCH  11  12
ATOM     12  C   LIG    1      -33.735  75.585  28.202  0.00  0.00    -0.039 A 
ATOM     13  C   LIG    1      -32.568  75.739  28.962  0.00  0.00    +0.004 A 
ATOM     14  C   LIG    1      -31.899  74.620  29.461  0.00  0.00    +0.012 A 
ATOM     15  C   LIG    1      -32.378  73.327  29.204  0.00  0.00    +0.055 A 
ATOM     16  C   LIG    1      -33.531  73.177  28.421  0.00  0.00    +0.012 A 
ATOM     17  C   LIG    1      -34.199  74.295  27.919  0.00  0.00    +0.004 A 
BRANCH  15  18
ATOM     18  C   LIG    1      -31.661  72.131  29.777  0.00  0.00    +0.417 C 
ATOM     19  F   LIG    1      -32.257  70.956  29.429  0.00  0.00    -0.166 F 
ATOM     20  F   LIG    1      -31.625  72.140  31.139  0.00  0.00    -0.166 F 
ATOM     21  F   LIG    1      -30.365  72.022  29.369  0.00  0.00    -0.166 F 
ENDBRANCH  15  18
ENDBRANCH  11  12
ENDBRANCH   9  11
ENDBRANCH   3   7
BRANCH   1  22
ATOM     22  C   LIG    1      -39.542  73.193  24.304  0.00  0.00    +0.197 C 
ATOM     23  O   LIG    1      -40.477  73.066  23.514  0.00  0.00    -0.287 OA
BRANCH  22  31
ATOM     24  N   LIG    1      -37.381  70.474  25.538  0.00  0.00    -0.323 N 
ATOM     25  C   LIG    1      -38.554  70.114  26.154  0.00  0.00    +0.145 A 
ATOM     26  N   LIG    1      -38.745  69.059  26.966  0.00  0.00    -0.218 NA
ATOM     27  C   LIG    1      -40.015  68.936  27.369  0.00  0.00    +0.223 A 
ATOM     28  N   LIG    1      -41.037  69.761  27.096  0.00  0.00    -0.243 NA
ATOM     29  C   LIG    1      -40.795  70.839  26.311  0.00  0.00    +0.124 A 
ATOM     30  C   LIG    1      -39.519  71.048  25.785  0.00  0.00    +0.048 A 
ATOM     31  C   LIG    1      -38.904  72.012  24.907  0.00  0.00    +0.051 A 
ATOM     32  C   LIG    1      -37.616  71.543  24.713  0.00  0.00    +0.100 A 
BRANCH  24  33
ATOM     33  C   LIG    1      -36.044  69.865  25.698  0.00  0.00    +0.070 C 
ATOM     34  C   LIG    1      -34.817  70.775  25.896  0.00  0.00    +0.033 C 
ATOM     35  C   LIG    1      -35.336  70.013  27.060  0.00  0.00    +0.033 C 
BRANCH  33  36
ATOM     36  C   LIG    1      -35.800  68.543  24.997  0.00  0.00    +0.184 C 
BRANCH  36  37
ATOM     37  O   LIG    1      -34.700  68.684  24.106  0.00  0.00    -0.393 OA
ATOM     38  H   LIG    1      -34.249  67.819  24.092  0.00  0.00    +0.209 HD
ENDBRANCH  36  37
ENDBRANCH  33  36
ENDBRANCH  24  33
ENDBRANCH  22  31
ENDBRANCH   1  22
TORSDOF 9
ENDMDL
MODEL 8
REMARK VINA RESULT:      -6.0     12.752     16.556
REMARK  Name = pdb/CHEMBL3671402.pdb
REMARK                            x       y       z     vdW  Elec       q    Type
REMARK                         _______ _______ _______ _____ _____    ______ ____
ROOT
ATOM      1  C   LIG    1      -20.372  76.907  30.618  0.00  0.00    +0.042 A 
ATOM      2  C   LIG    1      -20.352  77.799  31.695  0.00  0.00    +0.038 A 
ATOM      3  C   LIG    1      -19.150  78.187  32.291  0.00  0.00    +0.052 A 
ATOM      4  C   LIG    1      -17.976  77.720  31.715  0.00  0.00    +0.134 A 
ATOM      5  N   LIG    1      -17.948  76.882  30.649  0.00  0.00    -0.261 NA
ATOM      6  C   LIG    1      -19.139  76.487  30.135  0.00  0.00    +0.122 A 
ENDROOT
BRANCH   3   7
ATOM      7  N   LIG    1      -19.237  79.009  33.434  0.00  0.00    -0.284 N 
ATOM      8  H   LIG    1      -19.265  80.010  33.275  0.00  0.00    +0.155 HD
ATOM      9  C   LIG    1      -19.332  78.582  34.749  0.00  0.00    +0.222 C 
ATOM     10  O   LIG    1      -19.344  77.398  35.108  0.00  0.00    -0.275 OA
BRANCH   9  11
ATOM     11  C   LIG    1      -19.434  79.753  35.716  0.00  0.00    +0.131 C 
BRANCH  11  12
ATOM     12  C   LIG    1      -20.849  80.171  36.023  0.00  0.00    -0.039 A 
ATOM     13  C   LIG    1      -21.312  81.438  35.643  0.00  0.00    +0.004 A 
ATOM     14  C   LIG    1      -22.622  81.825  35.930  0.00  0.00    +0.012 A 
ATOM     15  C   LIG    1      -23.492  80.957  36.607  0.00  0.00    +0.055 A 
ATOM     16  C   LIG    1      -23.016  79.701  37.009  0.00  0.00    +0.012 A 
ATOM     17  C   LIG    1      -21.705  79.314  36.725  0.00  0.00    +0.004 A 
BRANCH  15  18
ATOM     18  C   LIG    1      -24.913  81.378  36.881  0.00  0.00    +0.417 C 
ATOM     19  F   LIG    1      -25.193  82.611  36.370  0.00  0.00    -0.166 F 
ATOM     20  F   LIG    1      -25.194  81.455  38.212  0.00  0.00    -0.166 F 
ATOM     21  F   LIG    1      -25.845  80.539  36.350  0.00  0.00    -0.166 F 
ENDBRANCH  15  18
ENDBRANCH  11  12
ENDBRANCH   9  11
ENDBRANCH   3   7
BRANCH   1  22
ATOM     22  C   LIG    1      -21.619  76.423  29.956  0.00  0.00    +0.197 C 
ATOM     23  O   LIG    1      -21.679  76.500  28.729  0.00  0.00    -0.287 OA
BRANCH  22  31
ATOM     24  N   LIG    1      -23.990  74.538  32.057  0.00  0.00    -0.323 N 
ATOM     25  C   LIG    1      -24.783  75.616  31.749  0.00  0.00    +0.145 A 
ATOM     26  N   LIG    1      -26.045  75.829  32.160  0.00  0.00    -0.218 NA
ATOM     27  C   LIG    1      -26.579  76.943  31.647  0.00  0.00    +0.223 A 
ATOM     28  N   LIG    1      -25.977  77.840  30.853  0.00  0.00    -0.243 NA
ATOM     29  C   LIG    1      -24.689  77.615  30.496  0.00  0.00    +0.124 A 
ATOM     30  C   LIG    1      -24.038  76.457  30.926  0.00  0.00    +0.048 A 
ATOM     31  C   LIG    1      -22.740  75.863  30.727  0.00  0.00    +0.051 A 
ATOM     32  C   LIG    1      -22.811  74.635  31.363  0.00  0.00    +0.100 A 
BRANCH  24  33
ATOM     33  C   LIG    1      -24.284  73.426  32.984  0.00  0.00    +0.070 C 
ATOM     34  C   LIG    1      -23.213  72.981  33.996  0.00  0.00    +0.033 C 
ATOM     35  C   LIG    1      -24.388  73.742  34.489  0.00  0.00    +0.033 C 
BRANCH  33  36
ATOM     36  C   LIG    1      -25.238  72.354  32.493  0.00  0.00    +0.184 C 
BRANCH  36  37
ATOM     37  O   LIG    1      -25.833  72.782  31.273  0.00  0.00    -0.393 OA
ATOM     38  H   LIG    1      -25.443  72.229  30.571  0.00  0.00    +0.209 HD
ENDBRANCH  36  37
ENDBRANCH  33  36
ENDBRANCH  24  33
ENDBRANCH  22  31
ENDBRANCH   1  22
TORSDOF 9
ENDMDL
MODEL 9
REMARK VINA RESULT:      -5.9     17.338     20.429
REMARK  Name = pdb/CHEMBL3671402.pdb
REMARK                            x       y       z     vdW  Elec       q    Type
REMARK                         _______ _______ _______ _____ _____    ______ ____
ROOT
ATOM      1  C   LIG    1      -23.363  81.358  13.335  0.00  0.00    +0.042 A 
ATOM      2  C   LIG    1      -22.551  80.247  13.589  0.00  0.00    +0.038 A 
ATOM      3  C   LIG    1      -22.945  79.254  14.488  0.00  0.00    +0.052 A 
ATOM      4  C   LIG    1      -24.210  79.370  15.050  0.00  0.00    +0.134 A 
ATOM      5  N   LIG    1      -25.044  80.412  14.804  0.00  0.00    -0.261 NA
ATOM      6  C   LIG    1      -24.600  81.382  13.967  0.00  0.00    +0.122 A 
ENDROOT
BRANCH   3   7
ATOM      7  N   LIG    1      -22.017  78.226  14.755  0.00  0.00    -0.284 N 
ATOM      8  H   LIG    1      -21.308  78.421  15.454  0.00  0.00    +0.155 HD
ATOM      9  C   LIG    1      -22.005  76.961  14.189  0.00  0.00    +0.222 C 
ATOM     10  O   LIG    1      -22.816  76.555  13.349  0.00  0.00    -0.275 OA
BRANCH   9  11
ATOM     11  C   LIG    1      -20.868  76.109  14.737  0.00  0.00    +0.131 C 
BRANCH  11  12
ATOM     12  C   LIG    1      -21.291  75.145  15.816  0.00  0.00    -0.039 A 
ATOM     13  C   LIG    1      -22.640  75.034  16.178  0.00  0.00    +0.004 A 
ATOM     14  C   LIG    1      -23.030  74.142  17.178  0.00  0.00    +0.012 A 
ATOM     15  C   LIG    1      -22.080  73.350  17.840  0.00  0.00    +0.055 A 
ATOM     16  C   LIG    1      -20.729  73.483  17.493  0.00  0.00    +0.012 A 
ATOM     17  C   LIG    1      -20.337  74.376  16.494  0.00  0.00    +0.004 A 
BRANCH  15  18
ATOM     18  C   LIG    1      -22.523  72.369  18.896  0.00  0.00    +0.417 C 
ATOM     19  F   LIG    1      -23.049  72.990  19.989  0.00  0.00    -0.166 F 
ATOM     20  F   LIG    1      -21.501  71.599  19.363  0.00  0.00    -0.166 F 
ATOM     21  F   LIG    1      -23.482  71.500  18.469  0.00  0.00    -0.166 F 
ENDBRANCH  15  18
ENDBRANCH  11  12
ENDBRANCH   9  11
ENDBRANCH   3   7
BRANCH   1  22
ATOM     22  C   LIG    1      -22.991  82.472  12.415  0.00  0.00    +0.197 C 
ATOM     23  O   LIG    1      -23.455  82.449  11.275  0.00  0.00    -0.287 OA
BRANCH  22  31
ATOM     24  N   LIG    1      -21.357  85.549  13.621  0.00  0.00    -0.323 N 
ATOM     25  C   LIG    1      -20.240  84.775  13.419  0.00  0.00    +0.145 A 
ATOM     26  N   LIG    1      -18.964  85.134  13.643  0.00  0.00    -0.218 NA
ATOM     27  C   LIG    1      -18.088  84.184  13.296  0.00  0.00    +0.223 A 
ATOM     28  N   LIG    1      -18.365  82.957  12.828  0.00  0.00    -0.243 NA
ATOM     29  C   LIG    1      -19.665  82.616  12.659  0.00  0.00    +0.124 A 
ATOM     30  C   LIG    1      -20.672  83.543  12.938  0.00  0.00    +0.048 A 
ATOM     31  C   LIG    1      -22.110  83.570  12.842  0.00  0.00    +0.051 A 
ATOM     32  C   LIG    1      -22.462  84.867  13.179  0.00  0.00    +0.100 A 
BRANCH  24  33
ATOM     33  C   LIG    1      -21.436  86.896  14.223  0.00  0.00    +0.070 C 
ATOM     34  C   LIG    1      -20.287  87.896  13.994  0.00  0.00    +0.033 C 
ATOM     35  C   LIG    1      -21.571  88.107  13.278  0.00  0.00    +0.033 C 
BRANCH  33  36
ATOM     36  C   LIG    1      -22.193  87.023  15.531  0.00  0.00    +0.184 C 
BRANCH  36  37
ATOM     37  O   LIG    1      -21.283  87.384  16.563  0.00  0.00    -0.393 OA
ATOM     38  H   LIG    1      -21.399  88.342  16.705  0.00  0.00    +0.209 HD
ENDBRANCH  36  37
ENDBRANCH  33  36
ENDBRANCH  24  33
ENDBRANCH  22  31
ENDBRANCH   1  22
TORSDOF 9
ENDMDL
