MODEL 1
REMARK VINA RESULT:      -6.6      0.000      0.000
REMARK  Name = pdb/CHEMBL3943636.pdb
REMARK                            x       y       z     vdW  Elec       q    Type
REMARK                         _______ _______ _______ _____ _____    ______ ____
ROOT
ATOM      1  C   LIG    1      -35.880  84.516  28.097  0.00  0.00    +0.323 A 
ATOM      2  N   LIG    1      -35.923  83.921  26.891  0.00  0.00    -0.201 NA
ATOM      3  C   LIG    1      -36.487  82.688  26.861  0.00  0.00    +0.145 A 
ATOM      4  C   LIG    1      -36.966  82.007  27.963  0.00  0.00    +0.105 A 
ATOM      5  C   LIG    1      -36.820  82.715  29.142  0.00  0.00    +0.145 A 
ATOM      6  N   LIG    1      -36.276  83.955  29.249  0.00  0.00    -0.201 NA
ENDROOT
BRANCH   4   7
ATOM      7  N   LIG    1      -37.660  80.787  27.821  0.00  0.00    -0.196 NA
ATOM      8  C   LIG    1      -37.072  79.644  27.907  0.00  0.00    +0.285 C 
BRANCH   8   9
ATOM      9  N   LIG    1      -37.621  78.393  27.845  0.00  0.00    -0.267 N 
ATOM     10  H   LIG    1      -37.954  77.967  28.708  0.00  0.00    +0.157 HD
BRANCH   9  11
ATOM     11  C   LIG    1      -38.005  77.619  26.721  0.00  0.00    +0.062 A 
ATOM     12  C   LIG    1      -37.172  76.572  26.238  0.00  0.00    +0.087 A 
ATOM     13  C   LIG    1      -37.569  75.794  25.129  0.00  0.00    +0.031 A 
ATOM     14  C   LIG    1      -38.764  76.062  24.467  0.00  0.00    +0.022 A 
ATOM     15  C   LIG    1      -39.554  77.119  24.892  0.00  0.00    +0.043 A 
ATOM     16 CL   LIG    1      -41.009  77.478  24.045  0.00  0.00    -0.083 Cl
ATOM     17  C   LIG    1      -39.184  77.886  26.000  0.00  0.00    +0.045 A 
BRANCH  12  18
ATOM     18  N   LIG    1      -35.920  76.257  26.848  0.00  0.00    -0.238 N 
ATOM     19  N   LIG    1      -34.812  77.041  26.680  0.00  0.00    -0.162 NA
ATOM     20  C   LIG    1      -33.900  76.530  27.543  0.00  0.00    +0.166 A 
ATOM     21  C   LIG    1      -34.365  75.323  28.117  0.00  0.00    +0.054 A 
ATOM     22  C   LIG    1      -35.648  75.178  27.661  0.00  0.00    +0.115 A 
BRANCH  20  23
ATOM     23  C   LIG    1      -32.570  77.181  27.843  0.00  0.00    +0.436 C 
ATOM     24  F   LIG    1      -32.726  78.418  28.382  0.00  0.00    -0.164 F 
ATOM     25  F   LIG    1      -31.800  77.323  26.733  0.00  0.00    -0.164 F 
ATOM     26  F   LIG    1      -31.842  76.458  28.736  0.00  0.00    -0.164 F 
ENDBRANCH  20  23
ENDBRANCH  12  18
ENDBRANCH   9  11
ENDBRANCH   8   9
BRANCH   8  27
ATOM     27  O   LIG    1      -35.734  79.581  28.079  0.00  0.00    -0.481 OA
ATOM     28  H   LIG    1      -35.398  78.679  28.006  0.00  0.00    +0.295 HD
ENDBRANCH   8  27
ENDBRANCH   4   7
BRANCH   1  29
ATOM     29  O   LIG    1      -35.392  85.812  28.207  0.00  0.00    -0.424 OA
BRANCH  29  33
ATOM     30  C   LIG    1      -32.210  86.748  30.838  0.00  0.00    -0.014 A 
ATOM     31  C   LIG    1      -33.208  87.671  30.476  0.00  0.00    +0.012 A 
ATOM     32  C   LIG    1      -34.261  87.325  29.613  0.00  0.00    +0.047 A 
ATOM     33  C   LIG    1      -34.331  86.050  29.052  0.00  0.00    +0.132 A 
ATOM     34  C   LIG    1      -33.308  85.148  29.324  0.00  0.00    +0.047 A 
ATOM     35  C   LIG    1      -32.289  85.480  30.227  0.00  0.00    +0.012 A 
BRANCH  30  37
ATOM     36  C   LIG    1      -29.892  87.697  31.444  0.00  0.00    +0.124 A 
ATOM     37  C   LIG    1      -31.109  87.066  31.796  0.00  0.00    +0.023 A 
ATOM     38  C   LIG    1      -31.254  86.755  33.165  0.00  0.00    +0.033 A 
ATOM     39  C   LIG    1      -30.258  87.064  34.087  0.00  0.00    +0.060 A 
ATOM     40 CL   LIG    1      -30.474  86.716  35.754  0.00  0.00    -0.082 Cl
ATOM     41  C   LIG    1      -29.107  87.663  33.625  0.00  0.00    +0.133 A 
ATOM     42  N   LIG    1      -28.904  87.980  32.327  0.00  0.00    -0.239 NA
BRANCH  36  43
ATOM     43  N   LIG    1      -29.592  88.097  30.145  0.00  0.00    -0.343 N 
ATOM     44  H   LIG    1      -28.904  87.478  29.727  0.00  0.00    +0.144 HD
ATOM     45  H   LIG    1      -30.467  88.095  29.629  0.00  0.00    +0.144 HD
ENDBRANCH  36  43
ENDBRANCH  30  37
ENDBRANCH  29  33
ENDBRANCH   1  29
TORSDOF 10
ENDMDL
MODEL 2
REMARK VINA RESULT:      -6.4      8.379     12.637
REMARK  Name = pdb/CHEMBL3943636.pdb
REMARK                            x       y       z     vdW  Elec       q    Type
REMARK                         _______ _______ _______ _____ _____    ______ ____
ROOT
ATOM      1  C   LIG    1      -33.364  93.342  24.367  0.00  0.00    +0.323 A 
ATOM      2  N   LIG    1      -34.428  93.400  25.189  0.00  0.00    -0.201 NA
ATOM      3  C   LIG    1      -34.345  92.650  26.316  0.00  0.00    +0.145 A 
ATOM      4  C   LIG    1      -33.289  91.822  26.643  0.00  0.00    +0.105 A 
ATOM      5  C   LIG    1      -32.285  91.824  25.691  0.00  0.00    +0.145 A 
ATOM      6  N   LIG    1      -32.293  92.555  24.546  0.00  0.00    -0.201 NA
ENDROOT
BRANCH   4   7
ATOM      7  N   LIG    1      -33.225  91.184  27.899  0.00  0.00    -0.196 NA
ATOM      8  C   LIG    1      -33.733  90.019  28.109  0.00  0.00    +0.285 C 
BRANCH   8   9
ATOM      9  N   LIG    1      -33.700  89.263  29.248  0.00  0.00    -0.267 N 
ATOM     10  H   LIG    1      -34.517  89.265  29.855  0.00  0.00    +0.157 HD
BRANCH   9  11
ATOM     11  C   LIG    1      -32.768  88.279  29.664  0.00  0.00    +0.062 A 
ATOM     12  C   LIG    1      -33.034  86.895  29.469  0.00  0.00    +0.087 A 
ATOM     13  C   LIG    1      -32.094  85.921  29.870  0.00  0.00    +0.031 A 
ATOM     14  C   LIG    1      -30.908  86.296  30.495  0.00  0.00    +0.022 A 
ATOM     15  C   LIG    1      -30.666  87.639  30.743  0.00  0.00    +0.043 A 
ATOM     16 CL   LIG    1      -29.220  88.097  31.557  0.00  0.00    -0.083 Cl
ATOM     17  C   LIG    1      -31.578  88.616  30.336  0.00  0.00    +0.045 A 
BRANCH  12  18
ATOM     18  N   LIG    1      -34.241  86.433  28.861  0.00  0.00    -0.238 N 
ATOM     19  N   LIG    1      -34.415  86.428  27.504  0.00  0.00    -0.162 NA
ATOM     20  C   LIG    1      -35.580  85.761  27.314  0.00  0.00    +0.166 A 
ATOM     21  C   LIG    1      -36.227  85.506  28.546  0.00  0.00    +0.054 A 
ATOM     22  C   LIG    1      -35.353  85.940  29.507  0.00  0.00    +0.115 A 
BRANCH  20  23
ATOM     23  C   LIG    1      -36.099  85.348  25.956  0.00  0.00    +0.436 C 
ATOM     24  F   LIG    1      -36.436  86.424  25.198  0.00  0.00    -0.164 F 
ATOM     25  F   LIG    1      -37.199  84.558  26.040  0.00  0.00    -0.164 F 
ATOM     26  F   LIG    1      -35.168  84.652  25.248  0.00  0.00    -0.164 F 
ENDBRANCH  20  23
ENDBRANCH  12  18
ENDBRANCH   9  11
ENDBRANCH   8   9
BRANCH   8  27
ATOM     27  O   LIG    1      -34.410  89.387  27.125  0.00  0.00    -0.481 OA
ATOM     28  H   LIG    1      -35.069  89.959  26.710  0.00  0.00    +0.295 HD
ENDBRANCH   8  27
ENDBRANCH   4   7
BRANCH   1  29
ATOM     29  O   LIG    1      -33.330  94.139  23.230  0.00  0.00    -0.424 OA
BRANCH  29  33
ATOM     30  C   LIG    1      -33.555  92.338  19.406  0.00  0.00    -0.014 A 
ATOM     31  C   LIG    1      -32.380  92.922  19.915  0.00  0.00    +0.012 A 
ATOM     32  C   LIG    1      -32.333  93.497  21.196  0.00  0.00    +0.047 A 
ATOM     33  C   LIG    1      -33.472  93.541  21.997  0.00  0.00    +0.132 A 
ATOM     34  C   LIG    1      -34.667  93.051  21.482  0.00  0.00    +0.047 A 
ATOM     35  C   LIG    1      -34.697  92.430  20.225  0.00  0.00    +0.012 A 
BRANCH  30  37
ATOM     36  C   LIG    1      -33.811  92.342  16.841  0.00  0.00    +0.124 A 
ATOM     37  C   LIG    1      -33.624  91.669  18.072  0.00  0.00    +0.023 A 
ATOM     38  C   LIG    1      -33.476  90.268  17.977  0.00  0.00    +0.033 A 
ATOM     39  C   LIG    1      -33.508  89.618  16.747  0.00  0.00    +0.060 A 
ATOM     40 CL   LIG    1      -33.282  87.919  16.651  0.00  0.00    -0.082 Cl
ATOM     41  C   LIG    1      -33.715  90.377  15.615  0.00  0.00    +0.133 A 
ATOM     42  N   LIG    1      -33.870  91.718  15.639  0.00  0.00    -0.239 NA
BRANCH  36  43
ATOM     43  N   LIG    1      -33.948  93.723  16.744  0.00  0.00    -0.343 N 
ATOM     44  H   LIG    1      -33.249  94.195  17.310  0.00  0.00    +0.144 HD
ATOM     45  H   LIG    1      -33.859  93.957  15.760  0.00  0.00    +0.144 HD
ENDBRANCH  36  43
ENDBRANCH  30  37
ENDBRANCH  29  33
ENDBRANCH   1  29
TORSDOF 10
ENDMDL
MODEL 3
REMARK VINA RESULT:      -6.4      8.545     13.768
REMARK  Name = pdb/CHEMBL3943636.pdb
REMARK                            x       y       z     vdW  Elec       q    Type
REMARK                         _______ _______ _______ _____ _____    ______ ____
ROOT
ATOM      1  C   LIG    1      -26.309  81.346  37.093  0.00  0.00    +0.323 A 
ATOM      2  N   LIG    1      -27.651  81.294  37.182  0.00  0.00    -0.201 NA
ATOM      3  C   LIG    1      -28.296  82.483  37.079  0.00  0.00    +0.145 A 
ATOM      4  C   LIG    1      -27.679  83.711  36.935  0.00  0.00    +0.105 A 
ATOM      5  C   LIG    1      -26.299  83.623  36.902  0.00  0.00    +0.145 A 
ATOM      6  N   LIG    1      -25.585  82.470  36.989  0.00  0.00    -0.201 NA
ENDROOT
BRANCH   4   7
ATOM      7  N   LIG    1      -28.431  84.880  36.699  0.00  0.00    -0.196 NA
ATOM      8  C   LIG    1      -28.715  85.292  35.511  0.00  0.00    +0.285 C 
BRANCH   8   9
ATOM      9  N   LIG    1      -29.472  86.366  35.135  0.00  0.00    -0.267 N 
ATOM     10  H   LIG    1      -30.485  86.260  35.109  0.00  0.00    +0.157 HD
BRANCH   9  11
ATOM     11  C   LIG    1      -29.104  87.723  34.951  0.00  0.00    +0.062 A 
ATOM     12  C   LIG    1      -29.708  88.509  33.931  0.00  0.00    +0.087 A 
ATOM     13  C   LIG    1      -29.350  89.864  33.764  0.00  0.00    +0.031 A 
ATOM     14  C   LIG    1      -28.373  90.443  34.569  0.00  0.00    +0.022 A 
ATOM     15  C   LIG    1      -27.735  89.669  35.526  0.00  0.00    +0.043 A 
ATOM     16 CL   LIG    1      -26.496  90.374  36.491  0.00  0.00    -0.083 Cl
ATOM     17  C   LIG    1      -28.092  88.331  35.717  0.00  0.00    +0.045 A 
BRANCH  12  18
ATOM     18  N   LIG    1      -30.697  87.977  33.048  0.00  0.00    -0.238 N 
ATOM     19  N   LIG    1      -30.437  86.923  32.215  0.00  0.00    -0.162 NA
ATOM     20  C   LIG    1      -31.643  86.600  31.690  0.00  0.00    +0.166 A 
ATOM     21  C   LIG    1      -32.625  87.553  32.047  0.00  0.00    +0.054 A 
ATOM     22  C   LIG    1      -31.997  88.411  32.910  0.00  0.00    +0.115 A 
BRANCH  20  23
ATOM     23  C   LIG    1      -31.888  85.373  30.842  0.00  0.00    +0.436 C 
ATOM     24  F   LIG    1      -31.046  84.359  31.170  0.00  0.00    -0.164 F 
ATOM     25  F   LIG    1      -31.722  85.617  29.517  0.00  0.00    -0.164 F 
ATOM     26  F   LIG    1      -33.151  84.893  30.999  0.00  0.00    -0.164 F 
ENDBRANCH  20  23
ENDBRANCH  12  18
ENDBRANCH   9  11
ENDBRANCH   8   9
BRANCH   8  27
ATOM     27  O   LIG    1      -28.238  84.631  34.434  0.00  0.00    -0.481 OA
ATOM     28  H   LIG    1      -28.942  84.218  33.917  0.00  0.00    +0.295 HD
ENDBRANCH   8  27
ENDBRANCH   4   7
BRANCH   1  29
ATOM     29  O   LIG    1      -25.573  80.168  37.108  0.00  0.00    -0.424 OA
BRANCH  29  33
ATOM     30  C   LIG    1      -24.358  78.437  33.442  0.00  0.00    -0.014 A 
ATOM     31  C   LIG    1      -25.436  77.951  34.204  0.00  0.00    +0.012 A 
ATOM     32  C   LIG    1      -25.825  78.558  35.409  0.00  0.00    +0.047 A 
ATOM     33  C   LIG    1      -25.124  79.652  35.912  0.00  0.00    +0.132 A 
ATOM     34  C   LIG    1      -24.001  80.097  35.224  0.00  0.00    +0.047 A 
ATOM     35  C   LIG    1      -23.648  79.521  33.995  0.00  0.00    +0.012 A 
BRANCH  30  37
ATOM     36  C   LIG    1      -24.853  77.434  31.119  0.00  0.00    +0.124 A 
ATOM     37  C   LIG    1      -23.952  77.850  32.129  0.00  0.00    +0.023 A 
ATOM     38  C   LIG    1      -22.584  77.698  31.817  0.00  0.00    +0.033 A 
ATOM     39  C   LIG    1      -22.174  77.180  30.592  0.00  0.00    +0.060 A 
ATOM     40 CL   LIG    1      -20.504  77.046  30.217  0.00  0.00    -0.082 Cl
ATOM     41  C   LIG    1      -23.143  76.792  29.692  0.00  0.00    +0.133 A 
ATOM     42  N   LIG    1      -24.467  76.905  29.933  0.00  0.00    -0.239 NA
BRANCH  36  43
ATOM     43  N   LIG    1      -26.235  77.536  31.246  0.00  0.00    -0.343 N 
ATOM     44  H   LIG    1      -26.645  77.942  30.411  0.00  0.00    +0.144 HD
ATOM     45  H   LIG    1      -26.582  76.596  31.419  0.00  0.00    +0.144 HD
ENDBRANCH  36  43
ENDBRANCH  30  37
ENDBRANCH  29  33
ENDBRANCH   1  29
TORSDOF 10
ENDMDL
MODEL 4
REMARK VINA RESULT:      -6.4      3.125      4.271
REMARK  Name = pdb/CHEMBL3943636.pdb
REMARK                            x       y       z     vdW  Elec       q    Type
REMARK                         _______ _______ _______ _____ _____    ______ ____
ROOT
ATOM      1  C   LIG    1      -35.129  83.307  29.345  0.00  0.00    +0.323 A 
ATOM      2  N   LIG    1      -34.530  82.427  30.168  0.00  0.00    -0.201 NA
ATOM      3  C   LIG    1      -34.576  81.129  29.778  0.00  0.00    +0.145 A 
ATOM      4  C   LIG    1      -35.216  80.662  28.646  0.00  0.00    +0.105 A 
ATOM      5  C   LIG    1      -35.826  81.667  27.916  0.00  0.00    +0.145 A 
ATOM      6  N   LIG    1      -35.814  82.986  28.238  0.00  0.00    -0.201 NA
ENDROOT
BRANCH   4   7
ATOM      7  N   LIG    1      -35.097  79.315  28.245  0.00  0.00    -0.196 NA
ATOM      8  C   LIG    1      -34.207  78.921  27.401  0.00  0.00    +0.285 C 
BRANCH   8   9
ATOM      9  N   LIG    1      -33.944  77.652  26.965  0.00  0.00    -0.267 N 
ATOM     10  H   LIG    1      -33.496  77.535  26.058  0.00  0.00    +0.157 HD
BRANCH   9  11
ATOM     11  C   LIG    1      -34.005  76.418  27.658  0.00  0.00    +0.062 A 
ATOM     12  C   LIG    1      -35.237  75.717  27.791  0.00  0.00    +0.087 A 
ATOM     13  C   LIG    1      -35.289  74.480  28.468  0.00  0.00    +0.031 A 
ATOM     14  C   LIG    1      -34.144  73.942  29.049  0.00  0.00    +0.022 A 
ATOM     15  C   LIG    1      -32.951  74.646  28.978  0.00  0.00    +0.043 A 
ATOM     16 CL   LIG    1      -31.547  74.002  29.737  0.00  0.00    -0.083 Cl
ATOM     17  C   LIG    1      -32.880  75.863  28.295  0.00  0.00    +0.045 A 
BRANCH  12  18
ATOM     18  N   LIG    1      -36.457  76.220  27.245  0.00  0.00    -0.238 N 
ATOM     19  N   LIG    1      -36.605  76.480  25.910  0.00  0.00    -0.162 NA
ATOM     20  C   LIG    1      -37.923  76.755  25.761  0.00  0.00    +0.166 A 
ATOM     21  C   LIG    1      -38.569  76.845  27.016  0.00  0.00    +0.054 A 
ATOM     22  C   LIG    1      -37.616  76.498  27.937  0.00  0.00    +0.115 A 
BRANCH  20  23
ATOM     23  C   LIG    1      -38.598  76.931  24.420  0.00  0.00    +0.436 C 
ATOM     24  F   LIG    1      -39.517  77.931  24.448  0.00  0.00    -0.164 F 
ATOM     25  F   LIG    1      -39.242  75.808  24.011  0.00  0.00    -0.164 F 
ATOM     26  F   LIG    1      -37.707  77.252  23.443  0.00  0.00    -0.164 F 
ENDBRANCH  20  23
ENDBRANCH  12  18
ENDBRANCH   9  11
ENDBRANCH   8   9
BRANCH   8  27
ATOM     27  O   LIG    1      -33.383  79.818  26.818  0.00  0.00    -0.481 OA
ATOM     28  H   LIG    1      -32.677  79.392  26.313  0.00  0.00    +0.295 HD
ENDBRANCH   8  27
ENDBRANCH   4   7
BRANCH   1  29
ATOM     29  O   LIG    1      -35.061  84.666  29.626  0.00  0.00    -0.424 OA
BRANCH  29  33
ATOM     30  C   LIG    1      -31.849  86.192  31.922  0.00  0.00    -0.014 A 
ATOM     31  C   LIG    1      -33.189  86.229  32.351  0.00  0.00    +0.012 A 
ATOM     32  C   LIG    1      -34.231  85.698  31.572  0.00  0.00    +0.047 A 
ATOM     33  C   LIG    1      -33.972  85.146  30.319  0.00  0.00    +0.132 A 
ATOM     34  C   LIG    1      -32.669  85.178  29.834  0.00  0.00    +0.047 A 
ATOM     35  C   LIG    1      -31.625  85.660  30.637  0.00  0.00    +0.012 A 
BRANCH  30  37
ATOM     36  C   LIG    1      -29.979  87.877  32.478  0.00  0.00    +0.124 A 
ATOM     37  C   LIG    1      -30.711  86.696  32.748  0.00  0.00    +0.023 A 
ATOM     38  C   LIG    1      -30.312  85.991  33.904  0.00  0.00    +0.033 A 
ATOM     39  C   LIG    1      -29.275  86.449  34.710  0.00  0.00    +0.060 A 
ATOM     40 CL   LIG    1      -28.836  85.599  36.136  0.00  0.00    -0.082 Cl
ATOM     41  C   LIG    1      -28.622  87.604  34.337  0.00  0.00    +0.133 A 
ATOM     42  N   LIG    1      -28.951  88.320  33.240  0.00  0.00    -0.239 NA
BRANCH  36  43
ATOM     43  N   LIG    1      -30.253  88.709  31.396  0.00  0.00    -0.343 N 
ATOM     44  H   LIG    1      -31.249  88.887  31.321  0.00  0.00    +0.144 HD
ATOM     45  H   LIG    1      -29.725  89.564  31.545  0.00  0.00    +0.144 HD
ENDBRANCH  36  43
ENDBRANCH  30  37
ENDBRANCH  29  33
ENDBRANCH   1  29
TORSDOF 10
ENDMDL
MODEL 5
REMARK VINA RESULT:      -6.4     17.827     20.974
REMARK  Name = pdb/CHEMBL3943636.pdb
REMARK                            x       y       z     vdW  Elec       q    Type
REMARK                         _______ _______ _______ _____ _____    ______ ____
ROOT
ATOM      1  C   LIG    1      -27.462  78.763  11.700  0.00  0.00    +0.323 A 
ATOM      2  N   LIG    1      -26.527  79.640  11.288  0.00  0.00    -0.201 NA
ATOM      3  C   LIG    1      -25.567  79.948  12.195  0.00  0.00    +0.145 A 
ATOM      4  C   LIG    1      -25.513  79.466  13.489  0.00  0.00    +0.105 A 
ATOM      5  C   LIG    1      -26.557  78.611  13.792  0.00  0.00    +0.145 A 
ATOM      6  N   LIG    1      -27.547  78.249  12.936  0.00  0.00    -0.201 NA
ENDROOT
BRANCH   4   7
ATOM      7  N   LIG    1      -24.404  79.732  14.320  0.00  0.00    -0.196 NA
ATOM      8  C   LIG    1      -24.126  80.917  14.744  0.00  0.00    +0.285 C 
BRANCH   8   9
ATOM      9  N   LIG    1      -23.126  81.310  15.589  0.00  0.00    -0.267 N 
ATOM     10  H   LIG    1      -23.382  81.674  16.505  0.00  0.00    +0.157 HD
BRANCH   9  11
ATOM     11  C   LIG    1      -21.725  81.119  15.498  0.00  0.00    +0.062 A 
ATOM     12  C   LIG    1      -20.924  81.977  14.695  0.00  0.00    +0.087 A 
ATOM     13  C   LIG    1      -19.526  81.791  14.621  0.00  0.00    +0.031 A 
ATOM     14  C   LIG    1      -18.914  80.744  15.303  0.00  0.00    +0.022 A 
ATOM     15  C   LIG    1      -19.694  79.865  16.040  0.00  0.00    +0.043 A 
ATOM     16 CL   LIG    1      -18.941  78.544  16.846  0.00  0.00    -0.083 Cl
ATOM     17  C   LIG    1      -21.076  80.047  16.138  0.00  0.00    +0.045 A 
BRANCH  12  18
ATOM     18  N   LIG    1      -21.484  83.056  13.945  0.00  0.00    -0.238 N 
ATOM     19  N   LIG    1      -21.896  84.217  14.538  0.00  0.00    -0.162 NA
ATOM     20  C   LIG    1      -22.184  85.044  13.503  0.00  0.00    +0.166 A 
ATOM     21  C   LIG    1      -22.128  84.353  12.270  0.00  0.00    +0.054 A 
ATOM     22  C   LIG    1      -21.678  83.097  12.581  0.00  0.00    +0.115 A 
BRANCH  20  23
ATOM     23  C   LIG    1      -22.513  86.510  13.666  0.00  0.00    +0.436 C 
ATOM     24  F   LIG    1      -22.937  86.793  14.925  0.00  0.00    -0.164 F 
ATOM     25  F   LIG    1      -23.487  86.921  12.814  0.00  0.00    -0.164 F 
ATOM     26  F   LIG    1      -21.430  87.301  13.436  0.00  0.00    -0.164 F 
ENDBRANCH  20  23
ENDBRANCH  12  18
ENDBRANCH   9  11
ENDBRANCH   8   9
BRANCH   8  27
ATOM     27  O   LIG    1      -24.872  81.971  14.346  0.00  0.00    -0.481 OA
ATOM     28  H   LIG    1      -25.588  82.165  14.963  0.00  0.00    +0.295 HD
ENDBRANCH   8  27
ENDBRANCH   4   7
BRANCH   1  29
ATOM     29  O   LIG    1      -28.437  78.330  10.811  0.00  0.00    -0.424 OA
BRANCH  29  33
ATOM     30  C   LIG    1      -31.981  80.612  10.419  0.00  0.00    -0.014 A 
ATOM     31  C   LIG    1      -31.833  79.572  11.356  0.00  0.00    +0.012 A 
ATOM     32  C   LIG    1      -30.637  78.844  11.473  0.00  0.00    +0.047 A 
ATOM     33  C   LIG    1      -29.560  79.108  10.629  0.00  0.00    +0.132 A 
ATOM     34  C   LIG    1      -29.712  80.069   9.636  0.00  0.00    +0.047 A 
ATOM     35  C   LIG    1      -30.887  80.829   9.558  0.00  0.00    +0.012 A 
BRANCH  30  37
ATOM     36  C   LIG    1      -33.409  82.693  10.939  0.00  0.00    +0.124 A 
ATOM     37  C   LIG    1      -33.218  81.442  10.307  0.00  0.00    +0.023 A 
ATOM     38  C   LIG    1      -34.293  81.000   9.506  0.00  0.00    +0.033 A 
ATOM     39  C   LIG    1      -35.448  81.763   9.359  0.00  0.00    +0.060 A 
ATOM     40 CL   LIG    1      -36.725  81.226   8.345  0.00  0.00    -0.082 Cl
ATOM     41  C   LIG    1      -35.528  82.959  10.038  0.00  0.00    +0.133 A 
ATOM     42  N   LIG    1      -34.538  83.434  10.824  0.00  0.00    -0.239 NA
BRANCH  36  43
ATOM     43  N   LIG    1      -32.444  83.293  11.743  0.00  0.00    -0.343 N 
ATOM     44  H   LIG    1      -31.685  83.664  11.180  0.00  0.00    +0.144 HD
ATOM     45  H   LIG    1      -32.916  84.023  12.270  0.00  0.00    +0.144 HD
ENDBRANCH  36  43
ENDBRANCH  30  37
ENDBRANCH  29  33
ENDBRANCH   1  29
TORSDOF 10
ENDMDL
MODEL 6
REMARK VINA RESULT:      -6.3     18.333     20.986
REMARK  Name = pdb/CHEMBL3943636.pdb
REMARK                            x       y       z     vdW  Elec       q    Type
REMARK                         _______ _______ _______ _____ _____    ______ ____
ROOT
ATOM      1  C   LIG    1      -27.421  86.625   9.314  0.00  0.00    +0.323 A 
ATOM      2  N   LIG    1      -27.074  85.434   8.794  0.00  0.00    -0.201 NA
ATOM      3  C   LIG    1      -25.938  84.882   9.291  0.00  0.00    +0.145 A 
ATOM      4  C   LIG    1      -25.118  85.468  10.236  0.00  0.00    +0.105 A 
ATOM      5  C   LIG    1      -25.570  86.708  10.650  0.00  0.00    +0.145 A 
ATOM      6  N   LIG    1      -26.700  87.318  10.208  0.00  0.00    -0.201 NA
ENDROOT
BRANCH   4   7
ATOM      7  N   LIG    1      -24.031  84.764  10.794  0.00  0.00    -0.196 NA
ATOM      8  C   LIG    1      -24.182  83.879  11.718  0.00  0.00    +0.285 C 
BRANCH   8   9
ATOM      9  N   LIG    1      -23.236  83.088  12.309  0.00  0.00    -0.267 N 
ATOM     10  H   LIG    1      -22.409  82.838  11.769  0.00  0.00    +0.157 HD
BRANCH   9  11
ATOM     11  C   LIG    1      -23.094  82.689  13.661  0.00  0.00    +0.062 A 
ATOM     12  C   LIG    1      -22.452  83.536  14.607  0.00  0.00    +0.087 A 
ATOM     13  C   LIG    1      -22.329  83.141  15.956  0.00  0.00    +0.031 A 
ATOM     14  C   LIG    1      -22.801  81.901  16.377  0.00  0.00    +0.022 A 
ATOM     15  C   LIG    1      -23.375  81.043  15.451  0.00  0.00    +0.043 A 
ATOM     16 CL   LIG    1      -23.917  79.491  15.963  0.00  0.00    -0.083 Cl
ATOM     17  C   LIG    1      -23.520  81.427  14.115  0.00  0.00    +0.045 A 
BRANCH  12  18
ATOM     18  N   LIG    1      -21.918  84.810  14.244  0.00  0.00    -0.238 N 
ATOM     19  N   LIG    1      -22.692  85.937  14.199  0.00  0.00    -0.162 NA
ATOM     20  C   LIG    1      -21.811  86.948  14.004  0.00  0.00    +0.166 A 
ATOM     21  C   LIG    1      -20.513  86.447  13.746  0.00  0.00    +0.054 A 
ATOM     22  C   LIG    1      -20.612  85.091  13.908  0.00  0.00    +0.115 A 
BRANCH  20  23
ATOM     23  C   LIG    1      -22.183  88.411  14.064  0.00  0.00    +0.436 C 
ATOM     24  F   LIG    1      -23.137  88.724  13.148  0.00  0.00    -0.164 F 
ATOM     25  F   LIG    1      -21.123  89.226  13.831  0.00  0.00    -0.164 F 
ATOM     26  F   LIG    1      -22.686  88.757  15.280  0.00  0.00    -0.164 F 
ENDBRANCH  20  23
ENDBRANCH  12  18
ENDBRANCH   9  11
ENDBRANCH   8   9
BRANCH   8  27
ATOM     27  O   LIG    1      -25.408  83.638  12.231  0.00  0.00    -0.481 OA
ATOM     28  H   LIG    1      -25.750  84.391  12.731  0.00  0.00    +0.295 HD
ENDBRANCH   8  27
ENDBRANCH   4   7
BRANCH   1  29
ATOM     29  O   LIG    1      -28.611  87.225   8.922  0.00  0.00    -0.424 OA
BRANCH  29  33
ATOM     30  C   LIG    1      -32.295  85.617  10.252  0.00  0.00    -0.014 A 
ATOM     31  C   LIG    1      -31.832  85.494   8.928  0.00  0.00    +0.012 A 
ATOM     32  C   LIG    1      -30.597  86.025   8.522  0.00  0.00    +0.047 A 
ATOM     33  C   LIG    1      -29.797  86.731   9.419  0.00  0.00    +0.132 A 
ATOM     34  C   LIG    1      -30.272  86.943  10.709  0.00  0.00    +0.047 A 
ATOM     35  C   LIG    1      -31.480  86.367  11.124  0.00  0.00    +0.012 A 
BRANCH  30  37
ATOM     36  C   LIG    1      -33.711  83.704  11.239  0.00  0.00    +0.124 A 
ATOM     37  C   LIG    1      -33.576  85.018  10.730  0.00  0.00    +0.023 A 
ATOM     38  C   LIG    1      -34.762  85.783  10.714  0.00  0.00    +0.033 A 
ATOM     39  C   LIG    1      -35.966  85.262  11.179  0.00  0.00    +0.060 A 
ATOM     40 CL   LIG    1      -37.387  86.226  11.191  0.00  0.00    -0.082 Cl
ATOM     41  C   LIG    1      -35.980  83.963  11.636  0.00  0.00    +0.133 A 
ATOM     42  N   LIG    1      -34.883  83.177  11.671  0.00  0.00    -0.239 NA
BRANCH  36  43
ATOM     43  N   LIG    1      -32.642  82.820  11.353  0.00  0.00    -0.343 N 
ATOM     44  H   LIG    1      -32.798  82.161  12.109  0.00  0.00    +0.144 HD
ATOM     45  H   LIG    1      -32.554  82.352  10.455  0.00  0.00    +0.144 HD
ENDBRANCH  36  43
ENDBRANCH  30  37
ENDBRANCH  29  33
ENDBRANCH   1  29
TORSDOF 10
ENDMDL
MODEL 7
REMARK VINA RESULT:      -6.3      9.086     13.457
REMARK  Name = pdb/CHEMBL3943636.pdb
REMARK                            x       y       z     vdW  Elec       q    Type
REMARK                         _______ _______ _______ _____ _____    ______ ____
ROOT
ATOM      1  C   LIG    1      -26.306  82.794  37.226  0.00  0.00    +0.323 A 
ATOM      2  N   LIG    1      -27.555  82.476  37.613  0.00  0.00    -0.201 NA
ATOM      3  C   LIG    1      -28.537  83.304  37.176  0.00  0.00    +0.145 A 
ATOM      4  C   LIG    1      -28.338  84.442  36.419  0.00  0.00    +0.105 A 
ATOM      5  C   LIG    1      -27.005  84.673  36.130  0.00  0.00    +0.145 A 
ATOM      6  N   LIG    1      -25.970  83.885  36.522  0.00  0.00    -0.201 NA
ENDROOT
BRANCH   4   7
ATOM      7  N   LIG    1      -29.427  85.168  35.895  0.00  0.00    -0.196 NA
ATOM      8  C   LIG    1      -29.914  84.937  34.724  0.00  0.00    +0.285 C 
BRANCH   8   9
ATOM      9  N   LIG    1      -30.990  85.519  34.114  0.00  0.00    -0.267 N 
ATOM     10  H   LIG    1      -31.839  85.658  34.659  0.00  0.00    +0.157 HD
BRANCH   9  11
ATOM     11  C   LIG    1      -31.086  86.171  32.859  0.00  0.00    +0.062 A 
ATOM     12  C   LIG    1      -30.608  87.500  32.691  0.00  0.00    +0.087 A 
ATOM     13  C   LIG    1      -30.690  88.138  31.435  0.00  0.00    +0.031 A 
ATOM     14  C   LIG    1      -31.273  87.491  30.349  0.00  0.00    +0.022 A 
ATOM     15  C   LIG    1      -31.797  86.218  30.517  0.00  0.00    +0.043 A 
ATOM     16 CL   LIG    1      -32.558  85.437  29.186  0.00  0.00    -0.083 Cl
ATOM     17  C   LIG    1      -31.706  85.566  31.750  0.00  0.00    +0.045 A 
BRANCH  12  18
ATOM     18  N   LIG    1      -30.023  88.238  33.765  0.00  0.00    -0.238 N 
ATOM     19  N   LIG    1      -28.726  88.048  34.156  0.00  0.00    -0.162 NA
ATOM     20  C   LIG    1      -28.493  89.036  35.053  0.00  0.00    +0.166 A 
ATOM     21  C   LIG    1      -29.684  89.734  35.362  0.00  0.00    +0.054 A 
ATOM     22  C   LIG    1      -30.635  89.207  34.528  0.00  0.00    +0.115 A 
BRANCH  20  23
ATOM     23  C   LIG    1      -27.130  89.342  35.631  0.00  0.00    +0.436 C 
ATOM     24  F   LIG    1      -26.620  90.497  35.129  0.00  0.00    -0.164 F 
ATOM     25  F   LIG    1      -26.226  88.362  35.376  0.00  0.00    -0.164 F 
ATOM     26  F   LIG    1      -27.175  89.494  36.982  0.00  0.00    -0.164 F 
ENDBRANCH  20  23
ENDBRANCH  12  18
ENDBRANCH   9  11
ENDBRANCH   8   9
BRANCH   8  27
ATOM     27  O   LIG    1      -29.343  84.010  33.925  0.00  0.00    -0.481 OA
ATOM     28  H   LIG    1      -28.983  84.396  33.116  0.00  0.00    +0.295 HD
ENDBRANCH   8  27
ENDBRANCH   4   7
BRANCH   1  29
ATOM     29  O   LIG    1      -25.250  81.957  37.560  0.00  0.00    -0.424 OA
BRANCH  29  33
ATOM     30  C   LIG    1      -23.760  79.343  34.582  0.00  0.00    -0.014 A 
ATOM     31  C   LIG    1      -24.935  79.088  35.313  0.00  0.00    +0.012 A 
ATOM     32  C   LIG    1      -25.413  79.985  36.285  0.00  0.00    +0.047 A 
ATOM     33  C   LIG    1      -24.709  81.150  36.583  0.00  0.00    +0.132 A 
ATOM     34  C   LIG    1      -23.499  81.380  35.938  0.00  0.00    +0.047 A 
ATOM     35  C   LIG    1      -23.054  80.511  34.932  0.00  0.00    +0.012 A 
BRANCH  30  37
ATOM     36  C   LIG    1      -22.068  77.673  33.586  0.00  0.00    +0.124 A 
ATOM     37  C   LIG    1      -23.255  78.439  33.505  0.00  0.00    +0.023 A 
ATOM     38  C   LIG    1      -23.991  78.287  32.310  0.00  0.00    +0.033 A 
ATOM     39  C   LIG    1      -23.561  77.432  31.299  0.00  0.00    +0.060 A 
ATOM     40 CL   LIG    1      -24.494  77.230  29.872  0.00  0.00    -0.082 Cl
ATOM     41  C   LIG    1      -22.378  76.750  31.482  0.00  0.00    +0.133 A 
ATOM     42  N   LIG    1      -21.626  76.857  32.599  0.00  0.00    -0.239 NA
BRANCH  36  43
ATOM     43  N   LIG    1      -21.235  77.680  34.700  0.00  0.00    -0.343 N 
ATOM     44  H   LIG    1      -20.267  77.821  34.426  0.00  0.00    +0.144 HD
ATOM     45  H   LIG    1      -21.567  78.422  35.310  0.00  0.00    +0.144 HD
ENDBRANCH  36  43
ENDBRANCH  30  37
ENDBRANCH  29  33
ENDBRANCH   1  29
TORSDOF 10
ENDMDL
MODEL 8
REMARK VINA RESULT:      -6.3      8.142     12.453
REMARK  Name = pdb/CHEMBL3943636.pdb
REMARK                            x       y       z     vdW  Elec       q    Type
REMARK                         _______ _______ _______ _____ _____    ______ ____
ROOT
ATOM      1  C   LIG    1      -26.693  83.635  36.799  0.00  0.00    +0.323 A 
ATOM      2  N   LIG    1      -26.640  84.684  35.958  0.00  0.00    -0.201 NA
ATOM      3  C   LIG    1      -27.826  85.071  35.422  0.00  0.00    +0.145 A 
ATOM      4  C   LIG    1      -29.039  84.449  35.646  0.00  0.00    +0.105 A 
ATOM      5  C   LIG    1      -28.941  83.361  36.495  0.00  0.00    +0.145 A 
ATOM      6  N   LIG    1      -27.794  82.921  37.076  0.00  0.00    -0.201 NA
ENDROOT
BRANCH   4   7
ATOM      7  N   LIG    1      -30.241  85.000  35.157  0.00  0.00    -0.196 NA
ATOM      8  C   LIG    1      -30.785  84.607  34.057  0.00  0.00    +0.285 C 
BRANCH   8   9
ATOM      9  N   LIG    1      -31.964  85.008  33.493  0.00  0.00    -0.267 N 
ATOM     10  H   LIG    1      -32.672  85.424  34.096  0.00  0.00    +0.157 HD
BRANCH   9  11
ATOM     11  C   LIG    1      -32.328  85.135  32.130  0.00  0.00    +0.062 A 
ATOM     12  C   LIG    1      -31.809  86.192  31.332  0.00  0.00    +0.087 A 
ATOM     13  C   LIG    1      -32.161  86.303  29.970  0.00  0.00    +0.031 A 
ATOM     14  C   LIG    1      -33.051  85.402  29.393  0.00  0.00    +0.022 A 
ATOM     15  C   LIG    1      -33.610  84.403  30.177  0.00  0.00    +0.043 A 
ATOM     16 CL   LIG    1      -34.745  83.316  29.474  0.00  0.00    -0.083 Cl
ATOM     17  C   LIG    1      -33.256  84.269  31.522  0.00  0.00    +0.045 A 
BRANCH  12  18
ATOM     18  N   LIG    1      -30.913  87.171  31.861  0.00  0.00    -0.238 N 
ATOM     19  N   LIG    1      -31.123  87.770  33.073  0.00  0.00    -0.162 NA
ATOM     20  C   LIG    1      -29.991  88.478  33.302  0.00  0.00    +0.166 A 
ATOM     21  C   LIG    1      -29.148  88.473  32.166  0.00  0.00    +0.054 A 
ATOM     22  C   LIG    1      -29.757  87.635  31.271  0.00  0.00    +0.115 A 
BRANCH  20  23
ATOM     23  C   LIG    1      -29.683  89.170  34.610  0.00  0.00    +0.436 C 
ATOM     24  F   LIG    1      -30.726  89.931  35.033  0.00  0.00    -0.164 F 
ATOM     25  F   LIG    1      -28.602  89.987  34.524  0.00  0.00    -0.164 F 
ATOM     26  F   LIG    1      -29.425  88.280  35.606  0.00  0.00    -0.164 F 
ENDBRANCH  20  23
ENDBRANCH  12  18
ENDBRANCH   9  11
ENDBRANCH   8   9
BRANCH   8  27
ATOM     27  O   LIG    1      -30.172  83.676  33.293  0.00  0.00    -0.481 OA
ATOM     28  H   LIG    1      -29.943  84.014  32.418  0.00  0.00    +0.295 HD
ENDBRANCH   8  27
ENDBRANCH   4   7
BRANCH   1  29
ATOM     29  O   LIG    1      -25.540  83.222  37.455  0.00  0.00    -0.424 OA
BRANCH  29  33
ATOM     30  C   LIG    1      -22.964  80.547  35.424  0.00  0.00    -0.014 A 
ATOM     31  C   LIG    1      -24.201  80.160  35.972  0.00  0.00    +0.012 A 
ATOM     32  C   LIG    1      -25.042  81.076  36.626  0.00  0.00    +0.047 A 
ATOM     33  C   LIG    1      -24.655  82.405  36.787  0.00  0.00    +0.132 A 
ATOM     34  C   LIG    1      -23.399  82.793  36.333  0.00  0.00    +0.047 A 
ATOM     35  C   LIG    1      -22.587  81.889  35.634  0.00  0.00    +0.012 A 
BRANCH  30  37
ATOM     36  C   LIG    1      -22.494  78.767  33.621  0.00  0.00    +0.124 A 
ATOM     37  C   LIG    1      -22.072  79.612  34.674  0.00  0.00    +0.023 A 
ATOM     38  C   LIG    1      -20.697  79.547  34.986  0.00  0.00    +0.033 A 
ATOM     39  C   LIG    1      -19.835  78.707  34.287  0.00  0.00    +0.060 A 
ATOM     40 CL   LIG    1      -18.158  78.676  34.655  0.00  0.00    -0.082 Cl
ATOM     41  C   LIG    1      -20.364  77.914  33.292  0.00  0.00    +0.133 A 
ATOM     42  N   LIG    1      -21.670  77.925  32.950  0.00  0.00    -0.239 NA
BRANCH  36  43
ATOM     43  N   LIG    1      -23.808  78.720  33.163  0.00  0.00    -0.343 N 
ATOM     44  H   LIG    1      -24.075  77.769  32.931  0.00  0.00    +0.144 HD
ATOM     45  H   LIG    1      -24.388  79.107  33.902  0.00  0.00    +0.144 HD
ENDBRANCH  36  43
ENDBRANCH  30  37
ENDBRANCH  29  33
ENDBRANCH   1  29
TORSDOF 10
ENDMDL
MODEL 9
REMARK VINA RESULT:      -6.0      5.519     13.503
REMARK  Name = pdb/CHEMBL3943636.pdb
REMARK                            x       y       z     vdW  Elec       q    Type
REMARK                         _______ _______ _______ _____ _____    ______ ____
ROOT
ATOM      1  C   LIG    1      -33.989  84.376  29.987  0.00  0.00    +0.323 A 
ATOM      2  N   LIG    1      -33.034  84.005  30.860  0.00  0.00    -0.201 NA
ATOM      3  C   LIG    1      -31.990  84.862  30.993  0.00  0.00    +0.145 A 
ATOM      4  C   LIG    1      -31.830  86.034  30.279  0.00  0.00    +0.105 A 
ATOM      5  C   LIG    1      -32.861  86.270  29.388  0.00  0.00    +0.145 A 
ATOM      6  N   LIG    1      -33.940  85.466  29.207  0.00  0.00    -0.201 NA
ENDROOT
BRANCH   4   7
ATOM      7  N   LIG    1      -30.785  86.931  30.579  0.00  0.00    -0.196 NA
ATOM      8  C   LIG    1      -30.923  87.898  31.420  0.00  0.00    +0.285 C 
BRANCH   8   9
ATOM      9  N   LIG    1      -29.990  88.803  31.844  0.00  0.00    -0.267 N 
ATOM     10  H   LIG    1      -29.886  89.672  31.323  0.00  0.00    +0.157 HD
BRANCH   9  11
ATOM     11  C   LIG    1      -29.238  88.844  33.045  0.00  0.00    +0.062 A 
ATOM     12  C   LIG    1      -28.956  90.081  33.686  0.00  0.00    +0.087 A 
ATOM     13  C   LIG    1      -28.220  90.113  34.891  0.00  0.00    +0.031 A 
ATOM     14  C   LIG    1      -27.727  88.939  35.451  0.00  0.00    +0.022 A 
ATOM     15  C   LIG    1      -27.945  87.733  34.802  0.00  0.00    +0.043 A 
ATOM     16 CL   LIG    1      -27.296  86.286  35.472  0.00  0.00    -0.083 Cl
ATOM     17  C   LIG    1      -28.687  87.683  33.619  0.00  0.00    +0.045 A 
BRANCH  12  18
ATOM     18  N   LIG    1      -29.404  91.330  33.157  0.00  0.00    -0.238 N 
ATOM     19  N   LIG    1      -28.533  92.317  32.785  0.00  0.00    -0.162 NA
ATOM     20  C   LIG    1      -29.310  93.244  32.173  0.00  0.00    +0.166 A 
ATOM     21  C   LIG    1      -30.682  92.931  32.317  0.00  0.00    +0.054 A 
ATOM     22  C   LIG    1      -30.710  91.712  32.941  0.00  0.00    +0.115 A 
BRANCH  20  23
ATOM     23  C   LIG    1      -28.763  94.443  31.434  0.00  0.00    +0.436 C 
ATOM     24  F   LIG    1      -28.053  94.075  30.336  0.00  0.00    -0.164 F 
ATOM     25  F   LIG    1      -27.941  95.198  32.207  0.00  0.00    -0.164 F 
ATOM     26  F   LIG    1      -29.755  95.264  30.996  0.00  0.00    -0.164 F 
ENDBRANCH  20  23
ENDBRANCH  12  18
ENDBRANCH   9  11
ENDBRANCH   8   9
BRANCH   8  27
ATOM     27  O   LIG    1      -32.119  88.119  32.007  0.00  0.00    -0.481 OA
ATOM     28  H   LIG    1      -32.438  89.019  31.859  0.00  0.00    +0.295 HD
ENDBRANCH   8  27
ENDBRANCH   4   7
BRANCH   1  29
ATOM     29  O   LIG    1      -35.131  83.598  29.847  0.00  0.00    -0.424 OA
BRANCH  29  33
ATOM     30  C   LIG    1      -34.697  79.553  28.679  0.00  0.00    -0.014 A 
ATOM     31  C   LIG    1      -34.830  80.611  27.760  0.00  0.00    +0.012 A 
ATOM     32  C   LIG    1      -34.955  81.946  28.179  0.00  0.00    +0.047 A 
ATOM     33  C   LIG    1      -34.990  82.264  29.536  0.00  0.00    +0.132 A 
ATOM     34  C   LIG    1      -34.950  81.228  30.463  0.00  0.00    +0.047 A 
ATOM     35  C   LIG    1      -34.771  79.904  30.041  0.00  0.00    +0.012 A 
BRANCH  30  37
ATOM     36  C   LIG    1      -33.263  77.453  28.257  0.00  0.00    +0.124 A 
ATOM     37  C   LIG    1      -34.506  78.130  28.266  0.00  0.00    +0.023 A 
ATOM     38  C   LIG    1      -35.617  77.355  27.870  0.00  0.00    +0.033 A 
ATOM     39  C   LIG    1      -35.476  76.019  27.506  0.00  0.00    +0.060 A 
ATOM     40 CL   LIG    1      -36.848  75.084  27.070  0.00  0.00    -0.082 Cl
ATOM     41  C   LIG    1      -34.212  75.471  27.518  0.00  0.00    +0.133 A 
ATOM     42  N   LIG    1      -33.108  76.160  27.881  0.00  0.00    -0.239 NA
BRANCH  36  43
ATOM     43  N   LIG    1      -32.068  78.054  28.642  0.00  0.00    -0.343 N 
ATOM     44  H   LIG    1      -31.571  77.473  29.310  0.00  0.00    +0.144 HD
ATOM     45  H   LIG    1      -31.528  78.202  27.794  0.00  0.00    +0.144 HD
ENDBRANCH  36  43
ENDBRANCH  30  37
ENDBRANCH  29  33
ENDBRANCH   1  29
TORSDOF 10
ENDMDL
