MODEL 1
REMARK VINA RESULT:      -6.5      0.000      0.000
REMARK  Name = pdb/CHEMBL3675923.pdb
REMARK                            x       y       z     vdW  Elec       q    Type
REMARK                         _______ _______ _______ _____ _____    ______ ____
ROOT
ATOM      1  C   LIG    1      -35.515  71.260  26.575  0.00  0.00    +0.100 A 
ATOM      2  C   LIG    1      -36.642  71.249  25.774  0.00  0.00    +0.170 A 
ATOM      3  N   LIG    1      -37.793  71.995  25.801  0.00  0.00    -0.212 NA
ATOM      4  C   LIG    1      -38.708  71.766  24.880  0.00  0.00    +0.126 A 
ATOM      5  C   LIG    1      -38.534  70.673  23.849  0.00  0.00    +0.063 A 
ATOM      6  C   LIG    1      -37.391  69.979  23.869  0.00  0.00    +0.118 A 
ATOM      7  N   LIG    1      -36.424  70.258  24.816  0.00  0.00    -0.221 N 
ATOM      8  N   LIG    1      -35.224  69.653  24.970  0.00  0.00    -0.173 NA
ATOM      9  C   LIG    1      -34.680  70.267  26.023  0.00  0.00    +0.150 A 
ENDROOT
BRANCH   4  10
ATOM     10  N   LIG    1      -39.855  72.546  24.877  0.00  0.00    -0.308 N 
ATOM     11  C   LIG    1      -40.078  73.698  25.761  0.00  0.00    +0.108 C 
ATOM     12  C   LIG    1      -41.537  73.506  26.197  0.00  0.00    +0.029 C 
ATOM     13  C   LIG    1      -42.209  72.936  24.960  0.00  0.00    +0.021 C 
ATOM     14  C   LIG    1      -41.132  72.042  24.351  0.00  0.00    +0.107 C 
BRANCH  11  15
ATOM     15  C   LIG    1      -39.784  75.007  25.046  0.00  0.00    +0.011 A 
ATOM     16  C   LIG    1      -38.472  75.497  24.994  0.00  0.00    +0.129 A 
ATOM     17  F   LIG    1      -37.483  74.813  25.586  0.00  0.00    -0.205 F 
ATOM     18  C   LIG    1      -38.149  76.676  24.314  0.00  0.00    +0.041 A 
ATOM     19  C   LIG    1      -39.148  77.399  23.668  0.00  0.00    +0.041 A 
ATOM     20  C   LIG    1      -40.454  76.932  23.712  0.00  0.00    +0.124 A 
ATOM     21  F   LIG    1      -41.422  77.612  23.085  0.00  0.00    -0.205 F 
ATOM     22  C   LIG    1      -40.776  75.758  24.389  0.00  0.00    +0.046 A 
ENDBRANCH  11  15
ENDBRANCH   4  10
BRANCH   1  25
ATOM     23  N   LIG    1      -35.366  73.453  27.489  0.00  0.00    -0.308 N 
ATOM     24  H   LIG    1      -35.551  73.738  26.530  0.00  0.00    +0.149 HD
ATOM     25  C   LIG    1      -35.242  72.097  27.722  0.00  0.00    +0.249 C 
ATOM     26  O   LIG    1      -34.970  71.623  28.819  0.00  0.00    -0.270 OA
BRANCH  23  30
ATOM     27  N   LIG    1      -33.922  76.925  27.624  0.00  0.00    -0.167 NA
ATOM     28  C   LIG    1      -35.335  76.669  27.281  0.00  0.00    +0.112 C 
ATOM     29  C   LIG    1      -35.940  75.717  28.310  0.00  0.00    +0.039 C 
ATOM     30  C   LIG    1      -35.116  74.444  28.527  0.00  0.00    +0.076 C 
ATOM     31  C   LIG    1      -33.622  74.746  28.692  0.00  0.00    +0.039 C 
ATOM     32  C   LIG    1      -33.096  75.704  27.635  0.00  0.00    +0.112 C 
BRANCH  27  33
ATOM     33  S   LIG    1      -33.239  78.360  27.117  0.00  0.00    +0.095 S 
ATOM     34  O   LIG    1      -32.558  78.205  25.866  0.00  0.00    -0.141 OA
ATOM     35  O   LIG    1      -34.177  79.435  27.369  0.00  0.00    -0.141 OA
BRANCH  33  36
ATOM     36  N   LIG    1      -32.062  78.569  28.288  0.00  0.00    -0.193 NA
ATOM     37  H   LIG    1      -31.496  77.716  28.292  0.00  0.00    +0.145 HD
ATOM     38  H   LIG    1      -31.480  79.355  27.996  0.00  0.00    +0.145 HD
ENDBRANCH  33  36
ENDBRANCH  27  33
ENDBRANCH  23  30
ENDBRANCH   1  25
TORSDOF 6
ENDMDL
MODEL 2
REMARK VINA RESULT:      -6.5     14.361     18.927
REMARK  Name = pdb/CHEMBL3675923.pdb
REMARK                            x       y       z     vdW  Elec       q    Type
REMARK                         _______ _______ _______ _____ _____    ______ ____
ROOT
ATOM      1  C   LIG    1      -19.438  77.332  31.264  0.00  0.00    +0.100 A 
ATOM      2  C   LIG    1      -19.563  77.988  32.475  0.00  0.00    +0.170 A 
ATOM      3  N   LIG    1      -20.653  78.496  33.134  0.00  0.00    -0.212 NA
ATOM      4  C   LIG    1      -20.464  79.068  34.307  0.00  0.00    +0.126 A 
ATOM      5  C   LIG    1      -19.080  79.222  34.897  0.00  0.00    +0.063 A 
ATOM      6  C   LIG    1      -18.054  78.707  34.210  0.00  0.00    +0.118 A 
ATOM      7  N   LIG    1      -18.274  78.073  33.001  0.00  0.00    -0.221 N 
ATOM      8  N   LIG    1      -17.351  77.504  32.191  0.00  0.00    -0.173 NA
ATOM      9  C   LIG    1      -18.060  77.053  31.155  0.00  0.00    +0.150 A 
ENDROOT
BRANCH   4  10
ATOM     10  N   LIG    1      -21.569  79.545  34.998  0.00  0.00    -0.308 N 
ATOM     11  C   LIG    1      -21.770  79.394  36.446  0.00  0.00    +0.108 C 
ATOM     12  C   LIG    1      -23.255  79.017  36.538  0.00  0.00    +0.029 C 
ATOM     13  C   LIG    1      -23.901  79.825  35.427  0.00  0.00    +0.021 C 
ATOM     14  C   LIG    1      -22.845  79.818  34.324  0.00  0.00    +0.107 C 
BRANCH  11  15
ATOM     15  C   LIG    1      -21.378  80.659  37.192  0.00  0.00    +0.011 A 
ATOM     16  C   LIG    1      -21.335  80.660  38.594  0.00  0.00    +0.129 A 
ATOM     17  F   LIG    1      -21.650  79.546  39.270  0.00  0.00    -0.205 F 
ATOM     18  C   LIG    1      -20.942  81.789  39.321  0.00  0.00    +0.041 A 
ATOM     19  C   LIG    1      -20.584  82.956  38.649  0.00  0.00    +0.041 A 
ATOM     20  C   LIG    1      -20.624  82.975  37.262  0.00  0.00    +0.124 A 
ATOM     21  F   LIG    1      -20.272  84.086  36.605  0.00  0.00    -0.205 F 
ATOM     22  C   LIG    1      -21.015  81.851  36.538  0.00  0.00    +0.046 A 
ENDBRANCH  11  15
ENDBRANCH   4  10
BRANCH   1  25
ATOM     23  N   LIG    1      -21.743  76.888  30.864  0.00  0.00    -0.308 N 
ATOM     24  H   LIG    1      -21.812  76.965  31.876  0.00  0.00    +0.149 HD
ATOM     25  C   LIG    1      -20.479  77.000  30.317  0.00  0.00    +0.249 C 
ATOM     26  O   LIG    1      -20.248  76.877  29.119  0.00  0.00    -0.270 OA
BRANCH  23  30
ATOM     27  N   LIG    1      -25.460  76.724  31.419  0.00  0.00    -0.167 NA
ATOM     28  C   LIG    1      -24.766  77.981  31.080  0.00  0.00    +0.112 C 
ATOM     29  C   LIG    1      -23.848  77.743  29.883  0.00  0.00    +0.039 C 
ATOM     30  C   LIG    1      -22.908  76.547  30.058  0.00  0.00    +0.076 C 
ATOM     31  C   LIG    1      -23.642  75.313  30.595  0.00  0.00    +0.039 C 
ATOM     32  C   LIG    1      -24.539  75.630  31.781  0.00  0.00    +0.112 C 
BRANCH  27  33
ATOM     33  S   LIG    1      -26.936  76.825  32.190  0.00  0.00    +0.095 S 
ATOM     34  O   LIG    1      -26.782  77.090  33.589  0.00  0.00    -0.141 OA
ATOM     35  O   LIG    1      -27.849  77.572  31.347  0.00  0.00    -0.141 OA
BRANCH  33  36
ATOM     36  N   LIG    1      -27.464  75.243  32.051  0.00  0.00    -0.193 NA
ATOM     37  H   LIG    1      -26.742  74.654  32.474  0.00  0.00    +0.145 HD
ATOM     38  H   LIG    1      -28.323  75.161  32.594  0.00  0.00    +0.145 HD
ENDBRANCH  33  36
ENDBRANCH  27  33
ENDBRANCH  23  30
ENDBRANCH   1  25
TORSDOF 6
ENDMDL
MODEL 3
REMARK VINA RESULT:      -6.3      4.578      7.442
REMARK  Name = pdb/CHEMBL3675923.pdb
REMARK                            x       y       z     vdW  Elec       q    Type
REMARK                         _______ _______ _______ _____ _____    ______ ____
ROOT
ATOM      1  C   LIG    1      -42.498  70.496  20.681  0.00  0.00    +0.100 A 
ATOM      2  C   LIG    1      -42.576  71.574  21.543  0.00  0.00    +0.170 A 
ATOM      3  N   LIG    1      -41.958  71.838  22.739  0.00  0.00    -0.212 NA
ATOM      4  C   LIG    1      -42.223  72.980  23.341  0.00  0.00    +0.126 A 
ATOM      5  C   LIG    1      -43.224  73.960  22.771  0.00  0.00    +0.063 A 
ATOM      6  C   LIG    1      -43.795  73.651  21.601  0.00  0.00    +0.118 A 
ATOM      7  N   LIG    1      -43.475  72.468  20.962  0.00  0.00    -0.221 N 
ATOM      8  N   LIG    1      -43.961  72.012  19.784  0.00  0.00    -0.173 NA
ATOM      9  C   LIG    1      -43.361  70.832  19.618  0.00  0.00    +0.150 A 
ENDROOT
BRANCH   4  10
ATOM     10  N   LIG    1      -41.569  73.271  24.530  0.00  0.00    -0.308 N 
ATOM     11  C   LIG    1      -40.114  73.184  24.719  0.00  0.00    +0.108 C 
ATOM     12  C   LIG    1      -39.996  72.522  26.099  0.00  0.00    +0.029 C 
ATOM     13  C   LIG    1      -41.164  73.103  26.877  0.00  0.00    +0.021 C 
ATOM     14  C   LIG    1      -42.262  73.232  25.824  0.00  0.00    +0.107 C 
BRANCH  11  15
ATOM     15  C   LIG    1      -39.460  74.552  24.602  0.00  0.00    +0.011 A 
ATOM     16  C   LIG    1      -38.125  74.725  24.996  0.00  0.00    +0.129 A 
ATOM     17  F   LIG    1      -37.435  73.685  25.484  0.00  0.00    -0.205 F 
ATOM     18  C   LIG    1      -37.471  75.955  24.869  0.00  0.00    +0.041 A 
ATOM     19  C   LIG    1      -38.151  77.051  24.343  0.00  0.00    +0.041 A 
ATOM     20  C   LIG    1      -39.474  76.899  23.952  0.00  0.00    +0.124 A 
ATOM     21  F   LIG    1      -40.135  77.942  23.435  0.00  0.00    -0.205 F 
ATOM     22  C   LIG    1      -40.126  75.674  24.077  0.00  0.00    +0.046 A 
ENDBRANCH  11  15
ENDBRANCH   4  10
BRANCH   1  25
ATOM     23  N   LIG    1      -40.393  69.503  21.182  0.00  0.00    -0.308 N 
ATOM     24  H   LIG    1      -40.080  70.470  21.228  0.00  0.00    +0.149 HD
ATOM     25  C   LIG    1      -41.710  69.292  20.825  0.00  0.00    +0.249 C 
ATOM     26  O   LIG    1      -42.202  68.178  20.684  0.00  0.00    -0.270 OA
BRANCH  23  30
ATOM     27  N   LIG    1      -37.461  68.790  23.428  0.00  0.00    -0.167 NA
ATOM     28  C   LIG    1      -38.855  68.540  23.845  0.00  0.00    +0.112 C 
ATOM     29  C   LIG    1      -39.578  67.766  22.746  0.00  0.00    +0.039 C 
ATOM     30  C   LIG    1      -39.453  68.405  21.359  0.00  0.00    +0.076 C 
ATOM     31  C   LIG    1      -38.011  68.821  21.047  0.00  0.00    +0.039 C 
ATOM     32  C   LIG    1      -37.356  69.581  22.189  0.00  0.00    +0.112 C 
BRANCH  27  33
ATOM     33  S   LIG    1      -36.311  68.997  24.620  0.00  0.00    +0.095 S 
ATOM     34  O   LIG    1      -36.780  68.530  25.890  0.00  0.00    -0.141 OA
ATOM     35  O   LIG    1      -35.015  68.632  24.082  0.00  0.00    -0.141 OA
BRANCH  33  36
ATOM     36  N   LIG    1      -36.255  70.667  24.705  0.00  0.00    -0.193 NA
ATOM     37  H   LIG    1      -35.616  70.978  23.969  0.00  0.00    +0.145 HD
ATOM     38  H   LIG    1      -37.193  71.012  24.501  0.00  0.00    +0.145 HD
ENDBRANCH  33  36
ENDBRANCH  27  33
ENDBRANCH  23  30
ENDBRANCH   1  25
TORSDOF 6
ENDMDL
MODEL 4
REMARK VINA RESULT:      -6.2     14.381     18.815
REMARK  Name = pdb/CHEMBL3675923.pdb
REMARK                            x       y       z     vdW  Elec       q    Type
REMARK                         _______ _______ _______ _____ _____    ______ ____
ROOT
ATOM      1  C   LIG    1      -24.786  77.701  32.287  0.00  0.00    +0.100 A 
ATOM      2  C   LIG    1      -23.531  77.551  31.727  0.00  0.00    +0.170 A 
ATOM      3  N   LIG    1      -22.272  77.663  32.259  0.00  0.00    -0.212 NA
ATOM      4  C   LIG    1      -21.238  77.445  31.470  0.00  0.00    +0.126 A 
ATOM      5  C   LIG    1      -21.418  77.136  30.000  0.00  0.00    +0.063 A 
ATOM      6  C   LIG    1      -22.670  77.039  29.537  0.00  0.00    +0.118 A 
ATOM      7  N   LIG    1      -23.743  77.229  30.387  0.00  0.00    -0.221 N 
ATOM      8  N   LIG    1      -25.059  77.166  30.077  0.00  0.00    -0.173 NA
ATOM      9  C   LIG    1      -25.678  77.440  31.226  0.00  0.00    +0.150 A 
ENDROOT
BRANCH   4  10
ATOM     10  N   LIG    1      -19.963  77.515  32.012  0.00  0.00    -0.308 N 
ATOM     11  C   LIG    1      -19.597  78.344  33.169  0.00  0.00    +0.108 C 
ATOM     12  C   LIG    1      -18.252  78.943  32.737  0.00  0.00    +0.029 C 
ATOM     13  C   LIG    1      -17.596  77.823  31.948  0.00  0.00    +0.021 C 
ATOM     14  C   LIG    1      -18.770  77.161  31.231  0.00  0.00    +0.107 C 
BRANCH  11  15
ATOM     15  C   LIG    1      -19.557  77.521  34.446  0.00  0.00    +0.011 A 
ATOM     16  C   LIG    1      -18.782  77.951  35.532  0.00  0.00    +0.129 A 
ATOM     17  F   LIG    1      -18.070  79.083  35.434  0.00  0.00    -0.205 F 
ATOM     18  C   LIG    1      -18.745  77.247  36.740  0.00  0.00    +0.041 A 
ATOM     19  C   LIG    1      -19.492  76.080  36.885  0.00  0.00    +0.041 A 
ATOM     20  C   LIG    1      -20.262  75.636  35.819  0.00  0.00    +0.124 A 
ATOM     21  F   LIG    1      -20.992  74.522  35.950  0.00  0.00    -0.205 F 
ATOM     22  C   LIG    1      -20.299  76.337  34.616  0.00  0.00    +0.046 A 
ENDBRANCH  11  15
ENDBRANCH   4  10
BRANCH   1  25
ATOM     23  N   LIG    1      -24.102  78.649  34.361  0.00  0.00    -0.308 N 
ATOM     24  H   LIG    1      -23.200  78.720  33.896  0.00  0.00    +0.149 HD
ATOM     25  C   LIG    1      -25.121  78.045  33.651  0.00  0.00    +0.249 C 
ATOM     26  O   LIG    1      -26.241  77.851  34.110  0.00  0.00    -0.270 OA
BRANCH  23  30
ATOM     27  N   LIG    1      -22.166  80.759  36.801  0.00  0.00    -0.167 NA
ATOM     28  C   LIG    1      -23.115  81.341  35.832  0.00  0.00    +0.112 C 
ATOM     29  C   LIG    1      -24.431  80.568  35.889  0.00  0.00    +0.039 C 
ATOM     30  C   LIG    1      -24.260  79.052  35.751  0.00  0.00    +0.076 C 
ATOM     31  C   LIG    1      -23.130  78.518  36.640  0.00  0.00    +0.039 C 
ATOM     32  C   LIG    1      -21.857  79.342  36.534  0.00  0.00    +0.112 C 
BRANCH  27  33
ATOM     33  S   LIG    1      -20.969  81.745  37.416  0.00  0.00    +0.095 S 
ATOM     34  O   LIG    1      -21.333  82.279  38.694  0.00  0.00    -0.141 OA
ATOM     35  O   LIG    1      -19.683  81.126  37.165  0.00  0.00    -0.141 OA
BRANCH  33  36
ATOM     36  N   LIG    1      -21.025  83.013  36.326  0.00  0.00    -0.193 NA
ATOM     37  H   LIG    1      -20.761  83.856  36.842  0.00  0.00    +0.145 HD
ATOM     38  H   LIG    1      -20.324  82.827  35.608  0.00  0.00    +0.145 HD
ENDBRANCH  33  36
ENDBRANCH  27  33
ENDBRANCH  23  30
ENDBRANCH   1  25
TORSDOF 6
ENDMDL
MODEL 5
REMARK VINA RESULT:      -6.2     19.884     22.607
REMARK  Name = pdb/CHEMBL3675923.pdb
REMARK                            x       y       z     vdW  Elec       q    Type
REMARK                         _______ _______ _______ _____ _____    ______ ____
ROOT
ATOM      1  C   LIG    1      -18.615  82.450  13.675  0.00  0.00    +0.100 A 
ATOM      2  C   LIG    1      -19.084  83.668  13.220  0.00  0.00    +0.170 A 
ATOM      3  N   LIG    1      -20.100  84.479  13.657  0.00  0.00    -0.212 NA
ATOM      4  C   LIG    1      -20.311  85.614  13.020  0.00  0.00    +0.126 A 
ATOM      5  C   LIG    1      -19.501  85.999  11.802  0.00  0.00    +0.063 A 
ATOM      6  C   LIG    1      -18.522  85.170  11.423  0.00  0.00    +0.118 A 
ATOM      7  N   LIG    1      -18.287  84.003  12.126  0.00  0.00    -0.221 N 
ATOM      8  N   LIG    1      -17.343  83.066  11.873  0.00  0.00    -0.173 NA
ATOM      9  C   LIG    1      -17.541  82.142  12.814  0.00  0.00    +0.150 A 
ENDROOT
BRANCH   4  10
ATOM     10  N   LIG    1      -21.309  86.459  13.483  0.00  0.00    -0.308 N 
ATOM     11  C   LIG    1      -21.883  87.569  12.708  0.00  0.00    +0.108 C 
ATOM     12  C   LIG    1      -21.976  88.691  13.752  0.00  0.00    +0.029 C 
ATOM     13  C   LIG    1      -22.331  87.959  15.035  0.00  0.00    +0.021 C 
ATOM     14  C   LIG    1      -21.562  86.646  14.919  0.00  0.00    +0.107 C 
BRANCH  11  15
ATOM     15  C   LIG    1      -23.203  87.171  12.069  0.00  0.00    +0.011 A 
ATOM     16  C   LIG    1      -23.887  88.080  11.250  0.00  0.00    +0.129 A 
ATOM     17  F   LIG    1      -23.376  89.302  11.043  0.00  0.00    -0.205 F 
ATOM     18  C   LIG    1      -25.084  87.744  10.610  0.00  0.00    +0.041 A 
ATOM     19  C   LIG    1      -25.630  86.474  10.784  0.00  0.00    +0.041 A 
ATOM     20  C   LIG    1      -24.970  85.562  11.595  0.00  0.00    +0.124 A 
ATOM     21  F   LIG    1      -25.479  84.335  11.762  0.00  0.00    -0.205 F 
ATOM     22  C   LIG    1      -23.777  85.896  12.232  0.00  0.00    +0.046 A 
ENDBRANCH  11  15
ENDBRANCH   4  10
BRANCH   1  25
ATOM     23  N   LIG    1      -20.463  81.766  15.011  0.00  0.00    -0.308 N 
ATOM     24  H   LIG    1      -20.972  82.440  14.443  0.00  0.00    +0.149 HD
ATOM     25  C   LIG    1      -19.105  81.661  14.784  0.00  0.00    +0.249 C 
ATOM     26  O   LIG    1      -18.366  80.927  15.431  0.00  0.00    -0.270 OA
BRANCH  23  30
ATOM     27  N   LIG    1      -23.705  79.904  15.436  0.00  0.00    -0.167 NA
ATOM     28  C   LIG    1      -22.499  79.272  14.866  0.00  0.00    +0.112 C 
ATOM     29  C   LIG    1      -21.302  79.564  15.769  0.00  0.00    +0.039 C 
ATOM     30  C   LIG    1      -21.125  81.050  16.093  0.00  0.00    +0.076 C 
ATOM     31  C   LIG    1      -22.447  81.711  16.500  0.00  0.00    +0.039 C 
ATOM     32  C   LIG    1      -23.591  81.369  15.558  0.00  0.00    +0.112 C 
BRANCH  27  33
ATOM     33  S   LIG    1      -25.189  79.236  15.070  0.00  0.00    +0.095 S 
ATOM     34  O   LIG    1      -25.801  78.651  16.225  0.00  0.00    -0.141 OA
ATOM     35  O   LIG    1      -25.896  80.136  14.180  0.00  0.00    -0.141 OA
BRANCH  33  36
ATOM     36  N   LIG    1      -24.720  77.973  14.077  0.00  0.00    -0.193 NA
ATOM     37  H   LIG    1      -25.132  77.122  14.469  0.00  0.00    +0.145 HD
ATOM     38  H   LIG    1      -25.123  78.146  13.156  0.00  0.00    +0.145 HD
ENDBRANCH  33  36
ENDBRANCH  27  33
ENDBRANCH  23  30
ENDBRANCH   1  25
TORSDOF 6
ENDMDL
MODEL 6
REMARK VINA RESULT:      -6.1      4.240      7.512
REMARK  Name = pdb/CHEMBL3675923.pdb
REMARK                            x       y       z     vdW  Elec       q    Type
REMARK                         _______ _______ _______ _____ _____    ______ ____
ROOT
ATOM      1  C   LIG    1      -37.924  82.716  26.573  0.00  0.00    +0.100 A 
ATOM      2  C   LIG    1      -38.684  82.045  25.633  0.00  0.00    +0.170 A 
ATOM      3  N   LIG    1      -39.079  80.735  25.539  0.00  0.00    -0.212 NA
ATOM      4  C   LIG    1      -39.829  80.381  24.515  0.00  0.00    +0.126 A 
ATOM      5  C   LIG    1      -40.206  81.367  23.432  0.00  0.00    +0.063 A 
ATOM      6  C   LIG    1      -39.794  82.632  23.577  0.00  0.00    +0.118 A 
ATOM      7  N   LIG    1      -39.042  82.997  24.678  0.00  0.00    -0.221 N 
ATOM      8  N   LIG    1      -38.552  84.225  24.969  0.00  0.00    -0.173 NA
ATOM      9  C   LIG    1      -37.890  84.049  26.114  0.00  0.00    +0.150 A 
ENDROOT
BRANCH   4  10
ATOM     10  N   LIG    1      -40.267  79.066  24.437  0.00  0.00    -0.308 N 
ATOM     11  C   LIG    1      -39.395  77.917  24.156  0.00  0.00    +0.108 C 
ATOM     12  C   LIG    1      -40.234  77.095  23.168  0.00  0.00    +0.029 C 
ATOM     13  C   LIG    1      -41.658  77.289  23.658  0.00  0.00    +0.021 C 
ATOM     14  C   LIG    1      -41.669  78.733  24.154  0.00  0.00    +0.107 C 
BRANCH  11  15
ATOM     15  C   LIG    1      -39.011  77.191  25.436  0.00  0.00    +0.011 A 
ATOM     16  C   LIG    1      -37.956  76.267  25.428  0.00  0.00    +0.129 A 
ATOM     17  F   LIG    1      -37.297  76.021  24.287  0.00  0.00    -0.205 F 
ATOM     18  C   LIG    1      -37.543  75.605  26.589  0.00  0.00    +0.041 A 
ATOM     19  C   LIG    1      -38.191  75.856  27.797  0.00  0.00    +0.041 A 
ATOM     20  C   LIG    1      -39.240  76.764  27.824  0.00  0.00    +0.124 A 
ATOM     21  F   LIG    1      -39.862  77.021  28.980  0.00  0.00    -0.205 F 
ATOM     22  C   LIG    1      -39.651  77.424  26.667  0.00  0.00    +0.046 A 
ENDBRANCH  11  15
ENDBRANCH   4  10
BRANCH   1  25
ATOM     23  N   LIG    1      -36.548  81.041  27.558  0.00  0.00    -0.308 N 
ATOM     24  H   LIG    1      -36.570  80.640  26.624  0.00  0.00    +0.149 HD
ATOM     25  C   LIG    1      -37.300  82.182  27.763  0.00  0.00    +0.249 C 
ATOM     26  O   LIG    1      -37.402  82.737  28.851  0.00  0.00    -0.270 OA
BRANCH  23  30
ATOM     27  N   LIG    1      -33.884  78.400  27.842  0.00  0.00    -0.167 NA
ATOM     28  C   LIG    1      -33.564  79.828  27.646  0.00  0.00    +0.112 C 
ATOM     29  C   LIG    1      -34.357  80.664  28.647  0.00  0.00    +0.039 C 
ATOM     30  C   LIG    1      -35.859  80.362  28.647  0.00  0.00    +0.076 C 
ATOM     31  C   LIG    1      -36.142  78.855  28.660  0.00  0.00    +0.039 C 
ATOM     32  C   LIG    1      -35.311  78.091  27.642  0.00  0.00    +0.112 C 
BRANCH  27  33
ATOM     33  S   LIG    1      -32.741  77.270  27.392  0.00  0.00    +0.095 S 
ATOM     34  O   LIG    1      -32.179  77.573  26.110  0.00  0.00    -0.141 OA
ATOM     35  O   LIG    1      -31.927  76.949  28.547  0.00  0.00    -0.141 OA
BRANCH  33  36
ATOM     36  N   LIG    1      -33.708  75.919  27.192  0.00  0.00    -0.193 NA
ATOM     37  H   LIG    1      -34.508  76.212  26.625  0.00  0.00    +0.145 HD
ATOM     38  H   LIG    1      -33.164  75.231  26.671  0.00  0.00    +0.145 HD
ENDBRANCH  33  36
ENDBRANCH  27  33
ENDBRANCH  23  30
ENDBRANCH   1  25
TORSDOF 6
ENDMDL
MODEL 7
REMARK VINA RESULT:      -6.0     20.603     23.378
REMARK  Name = pdb/CHEMBL3675923.pdb
REMARK                            x       y       z     vdW  Elec       q    Type
REMARK                         _______ _______ _______ _____ _____    ______ ____
ROOT
ATOM      1  C   LIG    1      -25.086  84.321  10.093  0.00  0.00    +0.100 A 
ATOM      2  C   LIG    1      -24.471  85.467  10.563  0.00  0.00    +0.170 A 
ATOM      3  N   LIG    1      -23.758  85.720  11.707  0.00  0.00    -0.212 NA
ATOM      4  C   LIG    1      -23.268  86.932  11.882  0.00  0.00    +0.126 A 
ATOM      5  C   LIG    1      -23.526  88.040  10.886  0.00  0.00    +0.063 A 
ATOM      6  C   LIG    1      -24.227  87.734   9.788  0.00  0.00    +0.118 A 
ATOM      7  N   LIG    1      -24.699  86.449   9.599  0.00  0.00    -0.221 N 
ATOM      8  N   LIG    1      -25.418  85.982   8.552  0.00  0.00    -0.173 NA
ATOM      9  C   LIG    1      -25.637  84.701   8.852  0.00  0.00    +0.150 A 
ENDROOT
BRANCH   4  10
ATOM     10  N   LIG    1      -22.509  87.183  13.017  0.00  0.00    -0.308 N 
ATOM     11  C   LIG    1      -21.664  86.185  13.688  0.00  0.00    +0.108 C 
ATOM     12  C   LIG    1      -21.960  86.442  15.171  0.00  0.00    +0.029 C 
ATOM     13  C   LIG    1      -22.136  87.948  15.247  0.00  0.00    +0.021 C 
ATOM     14  C   LIG    1      -22.824  88.291  13.928  0.00  0.00    +0.107 C 
BRANCH  11  15
ATOM     15  C   LIG    1      -20.206  86.336  13.284  0.00  0.00    +0.011 A 
ATOM     16  C   LIG    1      -19.308  85.281  13.498  0.00  0.00    +0.129 A 
ATOM     17  F   LIG    1      -19.737  84.147  14.067  0.00  0.00    -0.205 F 
ATOM     18  C   LIG    1      -17.967  85.362  13.107  0.00  0.00    +0.041 A 
ATOM     19  C   LIG    1      -17.493  86.517  12.490  0.00  0.00    +0.041 A 
ATOM     20  C   LIG    1      -18.367  87.574  12.274  0.00  0.00    +0.124 A 
ATOM     21  F   LIG    1      -17.925  88.685  11.673  0.00  0.00    -0.205 F 
ATOM     22  C   LIG    1      -19.702  87.494  12.663  0.00  0.00    +0.046 A 
ENDBRANCH  11  15
ENDBRANCH   4  10
BRANCH   1  25
ATOM     23  N   LIG    1      -24.059  82.700  11.502  0.00  0.00    -0.308 N 
ATOM     24  H   LIG    1      -23.283  83.358  11.495  0.00  0.00    +0.149 HD
ATOM     25  C   LIG    1      -25.153  83.020  10.723  0.00  0.00    +0.249 C 
ATOM     26  O   LIG    1      -26.132  82.293  10.601  0.00  0.00    -0.270 OA
BRANCH  23  30
ATOM     27  N   LIG    1      -22.412  81.473  14.654  0.00  0.00    -0.167 NA
ATOM     28  C   LIG    1      -23.739  82.119  14.655  0.00  0.00    +0.112 C 
ATOM     29  C   LIG    1      -24.613  81.476  13.581  0.00  0.00    +0.039 C 
ATOM     30  C   LIG    1      -23.952  81.426  12.200  0.00  0.00    +0.076 C 
ATOM     31  C   LIG    1      -22.505  80.925  12.274  0.00  0.00    +0.039 C 
ATOM     32  C   LIG    1      -21.701  81.607  13.369  0.00  0.00    +0.112 C 
BRANCH  27  33
ATOM     33  S   LIG    1      -21.530  81.487  16.071  0.00  0.00    +0.095 S 
ATOM     34  O   LIG    1      -22.036  80.536  17.014  0.00  0.00    -0.141 OA
ATOM     35  O   LIG    1      -20.123  81.590  15.741  0.00  0.00    -0.141 OA
BRANCH  33  36
ATOM     36  N   LIG    1      -21.918  83.006  16.658  0.00  0.00    -0.193 NA
ATOM     37  H   LIG    1      -22.937  83.033  16.752  0.00  0.00    +0.145 HD
ATOM     38  H   LIG    1      -21.494  83.091  17.582  0.00  0.00    +0.145 HD
ENDBRANCH  33  36
ENDBRANCH  27  33
ENDBRANCH  23  30
ENDBRANCH   1  25
TORSDOF 6
ENDMDL
MODEL 8
REMARK VINA RESULT:      -6.0     14.363     17.861
REMARK  Name = pdb/CHEMBL3675923.pdb
REMARK                            x       y       z     vdW  Elec       q    Type
REMARK                         _______ _______ _______ _____ _____    ______ ____
ROOT
ATOM      1  C   LIG    1      -21.193  77.469  36.868  0.00  0.00    +0.100 A 
ATOM      2  C   LIG    1      -20.817  76.250  36.334  0.00  0.00    +0.170 A 
ATOM      3  N   LIG    1      -21.093  75.652  35.132  0.00  0.00    -0.212 NA
ATOM      4  C   LIG    1      -20.572  74.466  34.889  0.00  0.00    +0.126 A 
ATOM      5  C   LIG    1      -19.738  73.743  35.923  0.00  0.00    +0.063 A 
ATOM      6  C   LIG    1      -19.500  74.375  37.078  0.00  0.00    +0.118 A 
ATOM      7  N   LIG    1      -20.020  75.636  37.301  0.00  0.00    -0.221 N 
ATOM      8  N   LIG    1      -19.872  76.403  38.406  0.00  0.00    -0.173 NA
ATOM      9  C   LIG    1      -20.572  77.506  38.134  0.00  0.00    +0.150 A 
ENDROOT
BRANCH   4  10
ATOM     10  N   LIG    1      -20.813  73.875  33.657  0.00  0.00    -0.308 N 
ATOM     11  C   LIG    1      -21.877  74.290  32.731  0.00  0.00    +0.108 C 
ATOM     12  C   LIG    1      -22.442  72.947  32.249  0.00  0.00    +0.029 C 
ATOM     13  C   LIG    1      -21.219  72.049  32.172  0.00  0.00    +0.021 C 
ATOM     14  C   LIG    1      -20.368  72.508  33.354  0.00  0.00    +0.107 C 
BRANCH  11  15
ATOM     15  C   LIG    1      -21.333  75.192  31.635  0.00  0.00    +0.011 A 
ATOM     16  C   LIG    1      -22.169  75.604  30.588  0.00  0.00    +0.129 A 
ATOM     17  F   LIG    1      -23.444  75.191  30.554  0.00  0.00    -0.205 F 
ATOM     18  C   LIG    1      -21.723  76.465  29.580  0.00  0.00    +0.041 A 
ATOM     19  C   LIG    1      -20.411  76.932  29.598  0.00  0.00    +0.041 A 
ATOM     20  C   LIG    1      -19.567  76.532  30.625  0.00  0.00    +0.124 A 
ATOM     21  F   LIG    1      -18.307  76.983  30.659  0.00  0.00    -0.205 F 
ATOM     22  C   LIG    1      -20.011  75.675  31.629  0.00  0.00    +0.046 A 
ENDBRANCH  11  15
ENDBRANCH   4  10
BRANCH   1  25
ATOM     23  N   LIG    1      -23.131  77.999  35.590  0.00  0.00    -0.308 N 
ATOM     24  H   LIG    1      -23.203  76.988  35.500  0.00  0.00    +0.149 HD
ATOM     25  C   LIG    1      -22.032  78.485  36.272  0.00  0.00    +0.249 C 
ATOM     26  O   LIG    1      -21.797  79.680  36.411  0.00  0.00    -0.270 OA
BRANCH  23  30
ATOM     27  N   LIG    1      -25.539  77.691  32.717  0.00  0.00    -0.167 NA
ATOM     28  C   LIG    1      -25.887  77.271  34.089  0.00  0.00    +0.112 C 
ATOM     29  C   LIG    1      -25.518  78.386  35.066  0.00  0.00    +0.039 C 
ATOM     30  C   LIG    1      -24.076  78.880  34.918  0.00  0.00    +0.076 C 
ATOM     31  C   LIG    1      -23.699  79.123  33.452  0.00  0.00    +0.039 C 
ATOM     32  C   LIG    1      -24.103  77.974  32.542  0.00  0.00    +0.112 C 
BRANCH  27  33
ATOM     33  S   LIG    1      -26.392  77.018  31.450  0.00  0.00    +0.095 S 
ATOM     34  O   LIG    1      -26.310  75.589  31.463  0.00  0.00    -0.141 OA
ATOM     35  O   LIG    1      -27.646  77.729  31.306  0.00  0.00    -0.141 OA
BRANCH  33  36
ATOM     36  N   LIG    1      -25.478  77.546  30.152  0.00  0.00    -0.193 NA
ATOM     37  H   LIG    1      -26.078  78.168  29.603  0.00  0.00    +0.145 HD
ATOM     38  H   LIG    1      -24.697  78.083  30.529  0.00  0.00    +0.145 HD
ENDBRANCH  33  36
ENDBRANCH  27  33
ENDBRANCH  23  30
ENDBRANCH   1  25
TORSDOF 6
ENDMDL
MODEL 9
REMARK VINA RESULT:      -6.0      4.136      5.547
REMARK  Name = pdb/CHEMBL3675923.pdb
REMARK                            x       y       z     vdW  Elec       q    Type
REMARK                         _______ _______ _______ _____ _____    ______ ____
ROOT
ATOM      1  C   LIG    1      -36.765  68.162  22.334  0.00  0.00    +0.100 A 
ATOM      2  C   LIG    1      -37.832  68.975  22.668  0.00  0.00    +0.170 A 
ATOM      3  N   LIG    1      -38.049  69.810  23.734  0.00  0.00    -0.212 NA
ATOM      4  C   LIG    1      -39.181  70.485  23.779  0.00  0.00    +0.126 A 
ATOM      5  C   LIG    1      -40.247  70.311  22.720  0.00  0.00    +0.063 A 
ATOM      6  C   LIG    1      -39.980  69.485  21.703  0.00  0.00    +0.118 A 
ATOM      7  N   LIG    1      -38.772  68.815  21.649  0.00  0.00    -0.221 N 
ATOM      8  N   LIG    1      -38.352  67.952  20.696  0.00  0.00    -0.173 NA
ATOM      9  C   LIG    1      -37.142  67.571  21.109  0.00  0.00    +0.150 A 
ENDROOT
BRANCH   4  10
ATOM     10  N   LIG    1      -39.388  71.364  24.833  0.00  0.00    -0.308 N 
ATOM     11  C   LIG    1      -38.653  72.623  25.020  0.00  0.00    +0.108 C 
ATOM     12  C   LIG    1      -38.363  72.618  26.527  0.00  0.00    +0.029 C 
ATOM     13  C   LIG    1      -39.601  71.979  27.130  0.00  0.00    +0.021 C 
ATOM     14  C   LIG    1      -39.996  70.926  26.097  0.00  0.00    +0.107 C 
BRANCH  11  15
ATOM     15  C   LIG    1      -39.461  73.811  24.523  0.00  0.00    +0.011 A 
ATOM     16  C   LIG    1      -38.922  75.104  24.595  0.00  0.00    +0.129 A 
ATOM     17  F   LIG    1      -37.699  75.286  25.114  0.00  0.00    -0.205 F 
ATOM     18  C   LIG    1      -39.612  76.221  24.114  0.00  0.00    +0.041 A 
ATOM     19  C   LIG    1      -40.875  76.064  23.547  0.00  0.00    +0.041 A 
ATOM     20  C   LIG    1      -41.426  74.793  23.470  0.00  0.00    +0.124 A 
ATOM     21  F   LIG    1      -42.634  74.628  22.918  0.00  0.00    -0.205 F 
ATOM     22  C   LIG    1      -40.739  73.680  23.949  0.00  0.00    +0.046 A 
ENDBRANCH  11  15
ENDBRANCH   4  10
BRANCH   1  25
ATOM     23  N   LIG    1      -35.642  68.126  24.433  0.00  0.00    -0.308 N 
ATOM     24  H   LIG    1      -36.537  68.456  24.784  0.00  0.00    +0.149 HD
ATOM     25  C   LIG    1      -35.535  67.956  23.066  0.00  0.00    +0.249 C 
ATOM     26  O   LIG    1      -34.500  67.612  22.506  0.00  0.00    -0.270 OA
BRANCH  23  30
ATOM     27  N   LIG    1      -34.859  69.011  28.004  0.00  0.00    -0.167 NA
ATOM     28  C   LIG    1      -35.582  67.779  27.636  0.00  0.00    +0.112 C 
ATOM     29  C   LIG    1      -34.827  67.066  26.516  0.00  0.00    +0.039 C 
ATOM     30  C   LIG    1      -34.500  67.970  25.324  0.00  0.00    +0.076 C 
ATOM     31  C   LIG    1      -33.923  69.320  25.767  0.00  0.00    +0.039 C 
ATOM     32  C   LIG    1      -34.725  69.964  26.887  0.00  0.00    +0.112 C 
BRANCH  27  33
ATOM     33  S   LIG    1      -35.053  69.603  29.552  0.00  0.00    +0.095 S 
ATOM     34  O   LIG    1      -36.366  69.333  30.057  0.00  0.00    -0.141 OA
ATOM     35  O   LIG    1      -33.850  69.321  30.311  0.00  0.00    -0.141 OA
BRANCH  33  36
ATOM     36  N   LIG    1      -34.972  71.249  29.264  0.00  0.00    -0.193 NA
ATOM     37  H   LIG    1      -35.929  71.605  29.322  0.00  0.00    +0.145 HD
ATOM     38  H   LIG    1      -34.416  71.661  30.013  0.00  0.00    +0.145 HD
ENDBRANCH  33  36
ENDBRANCH  27  33
ENDBRANCH  23  30
ENDBRANCH   1  25
TORSDOF 6
ENDMDL
