MODEL 1
REMARK VINA RESULT:      -6.3      0.000      0.000
REMARK  Name = pdb/CHEMBL211168.pdb
REMARK                            x       y       z     vdW  Elec       q    Type
REMARK                         _______ _______ _______ _____ _____    ______ ____
ROOT
ATOM      1  C   LIG    1      -35.732  78.114  28.170  0.00  0.00    +0.106 A 
ATOM      2  C   LIG    1      -36.444  76.944  27.917  0.00  0.00    +0.098 A 
ATOM      3  C   LIG    1      -37.754  77.317  27.445  0.00  0.00    +0.121 A 
ATOM      4  N   LIG    1      -38.061  78.609  27.428  0.00  0.00    -0.202 NA
ATOM      5  S   LIG    1      -36.740  79.462  27.920  0.00  0.00    +0.029 S 
ENDROOT
BRANCH   1  10
ATOM      6  N   LIG    1      -32.146  78.333  28.446  0.00  0.00    -0.313 N 
ATOM      7  H   LIG    1      -32.130  78.993  29.208  0.00  0.00    +0.146 HD
ATOM      8  H   LIG    1      -31.340  78.370  27.833  0.00  0.00    +0.146 HD
ATOM      9  C   LIG    1      -33.310  78.167  27.758  0.00  0.00    +0.302 C 
ATOM     10  N   LIG    1      -34.411  78.241  28.571  0.00  0.00    -0.262 N 
ATOM     11  H   LIG    1      -34.256  78.318  29.572  0.00  0.00    +0.157 HD
ATOM     12  O   LIG    1      -33.264  77.965  26.555  0.00  0.00    -0.253 OA
ENDBRANCH   1  10
BRANCH   2  13
ATOM     13  C   LIG    1      -35.862  75.624  28.123  0.00  0.00    +0.246 C 
ATOM     14  N   LIG    1      -34.981  75.178  27.180  0.00  0.00    -0.325 N 
ATOM     15  H   LIG    1      -34.615  74.238  27.246  0.00  0.00    +0.145 HD
ATOM     16  H   LIG    1      -34.716  75.733  26.366  0.00  0.00    +0.145 HD
ATOM     17  O   LIG    1      -36.147  74.918  29.076  0.00  0.00    -0.270 OA
ENDBRANCH   2  13
BRANCH   3  18
ATOM     18  S   LIG    1      -39.001  76.212  26.885  0.00  0.00    -0.096 S 
BRANCH  18  19
ATOM     19  C   LIG    1      -38.252  75.657  25.293  0.00  0.00    +0.083 C 
ATOM     20  C   LIG    1      -39.117  74.572  24.665  0.00  0.00    -0.031 A 
ATOM     21  C   LIG    1      -38.628  73.247  24.665  0.00  0.00    +0.005 A 
ATOM     22  C   LIG    1      -39.401  72.189  24.188  0.00  0.00    +0.000 A 
ATOM     23  C   LIG    1      -40.680  72.432  23.709  0.00  0.00    +0.000 A 
ATOM     24  C   LIG    1      -41.171  73.736  23.674  0.00  0.00    +0.004 A 
ATOM     25  C   LIG    1      -40.396  74.822  24.124  0.00  0.00    -0.043 A 
ATOM     26  C   LIG    1      -40.995  76.207  24.031  0.00  0.00    +0.035 C 
ATOM     27  C   LIG    1      -40.166  77.188  23.207  0.00  0.00    +0.005 C 
ATOM     28  C   LIG    1      -38.972  77.779  23.947  0.00  0.00    +0.002 C 
ATOM     29  C   LIG    1      -37.881  76.775  24.307  0.00  0.00    +0.019 C 
ENDBRANCH  18  19
ENDBRANCH   3  18
TORSDOF 4
ENDMDL
MODEL 2
REMARK VINA RESULT:      -5.9      1.996      2.569
REMARK  Name = pdb/CHEMBL211168.pdb
REMARK                            x       y       z     vdW  Elec       q    Type
REMARK                         _______ _______ _______ _____ _____    ______ ____
ROOT
ATOM      1  C   LIG    1      -36.187  78.652  28.170  0.00  0.00    +0.106 A 
ATOM      2  C   LIG    1      -37.441  78.357  27.642  0.00  0.00    +0.098 A 
ATOM      3  C   LIG    1      -37.497  76.936  27.405  0.00  0.00    +0.121 A 
ATOM      4  N   LIG    1      -36.394  76.229  27.623  0.00  0.00    -0.202 NA
ATOM      5  S   LIG    1      -35.234  77.244  28.205  0.00  0.00    +0.029 S 
ENDROOT
BRANCH   1  10
ATOM      6  N   LIG    1      -34.499  81.795  28.679  0.00  0.00    -0.313 N 
ATOM      7  H   LIG    1      -35.274  82.272  29.113  0.00  0.00    +0.146 HD
ATOM      8  H   LIG    1      -33.852  82.397  28.183  0.00  0.00    +0.146 HD
ATOM      9  C   LIG    1      -34.747  80.638  28.006  0.00  0.00    +0.302 C 
ATOM     10  N   LIG    1      -35.714  79.879  28.613  0.00  0.00    -0.262 N 
ATOM     11  H   LIG    1      -36.069  80.195  29.510  0.00  0.00    +0.157 HD
ATOM     12  O   LIG    1      -34.111  80.393  26.993  0.00  0.00    -0.253 OA
ENDBRANCH   1  10
BRANCH   2  13
ATOM     13  C   LIG    1      -38.448  79.386  27.417  0.00  0.00    +0.246 C 
ATOM     14  N   LIG    1      -39.614  79.280  28.120  0.00  0.00    -0.325 N 
ATOM     15  H   LIG    1      -40.366  79.929  27.936  0.00  0.00    +0.145 HD
ATOM     16  H   LIG    1      -39.788  78.531  28.790  0.00  0.00    +0.145 HD
ATOM     17  O   LIG    1      -38.293  80.300  26.624  0.00  0.00    -0.270 OA
ENDBRANCH   2  13
BRANCH   3  18
ATOM     18  S   LIG    1      -38.900  76.039  26.844  0.00  0.00    -0.096 S 
BRANCH  18  19
ATOM     19  C   LIG    1      -38.299  75.503  25.183  0.00  0.00    +0.083 C 
ATOM     20  C   LIG    1      -39.328  74.587  24.533  0.00  0.00    -0.031 A 
ATOM     21  C   LIG    1      -39.022  73.213  24.423  0.00  0.00    +0.005 A 
ATOM     22  C   LIG    1      -39.949  72.302  23.919  0.00  0.00    +0.000 A 
ATOM     23  C   LIG    1      -41.203  72.744  23.522  0.00  0.00    +0.000 A 
ATOM     24  C   LIG    1      -41.515  74.101  23.595  0.00  0.00    +0.004 A 
ATOM     25  C   LIG    1      -40.582  75.040  24.074  0.00  0.00    -0.043 A 
ATOM     26  C   LIG    1      -40.994  76.495  24.100  0.00  0.00    +0.035 C 
ATOM     27  C   LIG    1      -40.074  77.414  23.299  0.00  0.00    +0.005 C 
ATOM     28  C   LIG    1      -38.782  77.790  24.014  0.00  0.00    +0.002 C 
ATOM     29  C   LIG    1      -37.822  76.628  24.253  0.00  0.00    +0.019 C 
ENDBRANCH  18  19
ENDBRANCH   3  18
TORSDOF 4
ENDMDL
MODEL 3
REMARK VINA RESULT:      -5.6      1.849      2.394
REMARK  Name = pdb/CHEMBL211168.pdb
REMARK                            x       y       z     vdW  Elec       q    Type
REMARK                         _______ _______ _______ _____ _____    ______ ____
ROOT
ATOM      1  C   LIG    1      -35.330  75.746  29.381  0.00  0.00    +0.106 A 
ATOM      2  C   LIG    1      -36.098  76.234  28.327  0.00  0.00    +0.098 A 
ATOM      3  C   LIG    1      -37.293  75.433  28.242  0.00  0.00    +0.121 A 
ATOM      4  N   LIG    1      -37.397  74.390  29.058  0.00  0.00    -0.202 NA
ATOM      5  S   LIG    1      -36.071  74.363  30.037  0.00  0.00    +0.029 S 
ENDROOT
BRANCH   1  10
ATOM      6  N   LIG    1      -31.905  76.461  30.245  0.00  0.00    -0.313 N 
ATOM      7  H   LIG    1      -32.011  77.462  30.311  0.00  0.00    +0.146 HD
ATOM      8  H   LIG    1      -30.977  76.146  29.987  0.00  0.00    +0.146 HD
ATOM      9  C   LIG    1      -32.884  75.748  29.622  0.00  0.00    +0.302 C 
ATOM     10  N   LIG    1      -34.135  76.250  29.872  0.00  0.00    -0.262 N 
ATOM     11  H   LIG    1      -34.214  77.013  30.537  0.00  0.00    +0.157 HD
ATOM     12  O   LIG    1      -32.574  74.775  28.952  0.00  0.00    -0.253 OA
ENDBRANCH   1  10
BRANCH   2  13
ATOM     13  C   LIG    1      -35.672  77.371  27.520  0.00  0.00    +0.246 C 
ATOM     14  N   LIG    1      -36.498  78.458  27.490  0.00  0.00    -0.325 N 
ATOM     15  H   LIG    1      -36.277  79.234  26.882  0.00  0.00    +0.145 HD
ATOM     16  H   LIG    1      -37.373  78.500  28.013  0.00  0.00    +0.145 HD
ATOM     17  O   LIG    1      -34.639  77.370  26.872  0.00  0.00    -0.270 OA
ENDBRANCH   2  13
BRANCH   3  18
ATOM     18  S   LIG    1      -38.641  75.703  27.148  0.00  0.00    -0.096 S 
BRANCH  18  19
ATOM     19  C   LIG    1      -37.860  75.222  25.546  0.00  0.00    +0.083 C 
ATOM     20  C   LIG    1      -38.689  74.137  24.872  0.00  0.00    -0.031 A 
ATOM     21  C   LIG    1      -38.165  72.826  24.833  0.00  0.00    +0.005 A 
ATOM     22  C   LIG    1      -38.904  71.766  24.311  0.00  0.00    +0.000 A 
ATOM     23  C   LIG    1      -40.184  71.992  23.825  0.00  0.00    +0.000 A 
ATOM     24  C   LIG    1      -40.708  73.283  23.828  0.00  0.00    +0.004 A 
ATOM     25  C   LIG    1      -39.967  74.372  24.325  0.00  0.00    -0.043 A 
ATOM     26  C   LIG    1      -40.602  75.744  24.271  0.00  0.00    +0.035 C 
ATOM     27  C   LIG    1      -39.789  76.774  23.490  0.00  0.00    +0.005 C 
ATOM     28  C   LIG    1      -38.619  77.370  24.265  0.00  0.00    +0.002 C 
ATOM     29  C   LIG    1      -37.507  76.382  24.604  0.00  0.00    +0.019 C 
ENDBRANCH  18  19
ENDBRANCH   3  18
TORSDOF 4
ENDMDL
MODEL 4
REMARK VINA RESULT:      -5.5     19.901     22.541
REMARK  Name = pdb/CHEMBL211168.pdb
REMARK                            x       y       z     vdW  Elec       q    Type
REMARK                         _______ _______ _______ _____ _____    ______ ____
ROOT
ATOM      1  C   LIG    1      -21.704  87.115  12.356  0.00  0.00    +0.106 A 
ATOM      2  C   LIG    1      -21.437  86.469  13.560  0.00  0.00    +0.098 A 
ATOM      3  C   LIG    1      -22.312  85.326  13.652  0.00  0.00    +0.121 A 
ATOM      4  N   LIG    1      -23.215  85.160  12.693  0.00  0.00    -0.202 NA
ATOM      5  S   LIG    1      -23.006  86.351  11.573  0.00  0.00    +0.029 S 
ENDROOT
BRANCH   1  10
ATOM      6  N   LIG    1      -19.573  89.433  10.605  0.00  0.00    -0.313 N 
ATOM      7  H   LIG    1      -20.272  90.146  10.461  0.00  0.00    +0.146 HD
ATOM      8  H   LIG    1      -18.840  89.409   9.905  0.00  0.00    +0.146 HD
ATOM      9  C   LIG    1      -19.985  88.186  10.964  0.00  0.00    +0.302 C 
ATOM     10  N   LIG    1      -21.058  88.217  11.816  0.00  0.00    -0.262 N 
ATOM     11  H   LIG    1      -21.370  89.124  12.151  0.00  0.00    +0.157 HD
ATOM     12  O   LIG    1      -19.384  87.215  10.531  0.00  0.00    -0.253 OA
ENDBRANCH   1  10
BRANCH   2  13
ATOM     13  C   LIG    1      -20.421  86.950  14.488  0.00  0.00    +0.246 C 
ATOM     14  N   LIG    1      -20.848  87.365  15.718  0.00  0.00    -0.325 N 
ATOM     15  H   LIG    1      -20.186  87.777  16.360  0.00  0.00    +0.145 HD
ATOM     16  H   LIG    1      -21.827  87.336  16.001  0.00  0.00    +0.145 HD
ATOM     17  O   LIG    1      -19.238  87.010  14.199  0.00  0.00    -0.270 OA
ENDBRANCH   2  13
BRANCH   3  18
ATOM     18  S   LIG    1      -22.300  84.119  14.930  0.00  0.00    -0.096 S 
BRANCH  18  19
ATOM     19  C   LIG    1      -21.994  82.596  13.933  0.00  0.00    +0.083 C 
ATOM     20  C   LIG    1      -20.808  81.833  14.508  0.00  0.00    -0.031 A 
ATOM     21  C   LIG    1      -19.600  81.831  13.776  0.00  0.00    +0.005 A 
ATOM     22  C   LIG    1      -18.449  81.227  14.280  0.00  0.00    +0.000 A 
ATOM     23  C   LIG    1      -18.478  80.623  15.528  0.00  0.00    +0.000 A 
ATOM     24  C   LIG    1      -19.668  80.589  16.254  0.00  0.00    +0.004 A 
ATOM     25  C   LIG    1      -20.848  81.166  15.750  0.00  0.00    -0.043 A 
ATOM     26  C   LIG    1      -22.100  81.066  16.592  0.00  0.00    +0.035 C 
ATOM     27  C   LIG    1      -23.268  80.380  15.888  0.00  0.00    +0.005 C 
ATOM     28  C   LIG    1      -24.025  81.270  14.909  0.00  0.00    +0.002 C 
ATOM     29  C   LIG    1      -23.221  81.704  13.688  0.00  0.00    +0.019 C 
ENDBRANCH  18  19
ENDBRANCH   3  18
TORSDOF 4
ENDMDL
MODEL 5
REMARK VINA RESULT:      -5.2     19.131     20.989
REMARK  Name = pdb/CHEMBL211168.pdb
REMARK                            x       y       z     vdW  Elec       q    Type
REMARK                         _______ _______ _______ _____ _____    ______ ____
ROOT
ATOM      1  C   LIG    1      -22.283  85.007  14.146  0.00  0.00    +0.106 A 
ATOM      2  C   LIG    1      -22.653  83.813  14.760  0.00  0.00    +0.098 A 
ATOM      3  C   LIG    1      -23.128  82.918  13.734  0.00  0.00    +0.121 A 
ATOM      4  N   LIG    1      -23.213  83.388  12.495  0.00  0.00    -0.202 NA
ATOM      5  S   LIG    1      -22.648  84.936  12.487  0.00  0.00    +0.029 S 
ENDROOT
BRANCH   1  10
ATOM      6  N   LIG    1      -20.155  87.701  15.243  0.00  0.00    -0.313 N 
ATOM      7  H   LIG    1      -20.887  88.386  15.354  0.00  0.00    +0.146 HD
ATOM      8  H   LIG    1      -19.243  88.083  15.023  0.00  0.00    +0.146 HD
ATOM      9  C   LIG    1      -20.428  86.574  14.528  0.00  0.00    +0.302 C 
ATOM     10  N   LIG    1      -21.707  86.125  14.731  0.00  0.00    -0.262 N 
ATOM     11  H   LIG    1      -22.271  86.601  15.429  0.00  0.00    +0.157 HD
ATOM     12  O   LIG    1      -19.553  86.090  13.828  0.00  0.00    -0.253 OA
ENDBRANCH   1  10
BRANCH   2  13
ATOM     13  C   LIG    1      -22.532  83.611  16.198  0.00  0.00    +0.246 C 
ATOM     14  N   LIG    1      -21.730  82.588  16.618  0.00  0.00    -0.325 N 
ATOM     15  H   LIG    1      -21.681  82.367  17.602  0.00  0.00    +0.145 HD
ATOM     16  H   LIG    1      -21.218  81.988  15.972  0.00  0.00    +0.145 HD
ATOM     17  O   LIG    1      -23.127  84.296  17.014  0.00  0.00    -0.270 OA
ENDBRANCH   2  13
BRANCH   3  18
ATOM     18  S   LIG    1      -23.615  81.245  13.969  0.00  0.00    -0.096 S 
BRANCH  18  19
ATOM     19  C   LIG    1      -22.215  80.380  13.133  0.00  0.00    +0.083 C 
ATOM     20  C   LIG    1      -21.062  80.199  14.111  0.00  0.00    -0.031 A 
ATOM     21  C   LIG    1      -19.901  80.982  13.925  0.00  0.00    +0.005 A 
ATOM     22  C   LIG    1      -18.842  80.933  14.829  0.00  0.00    +0.000 A 
ATOM     23  C   LIG    1      -18.924  80.108  15.943  0.00  0.00    +0.000 A 
ATOM     24  C   LIG    1      -20.048  79.306  16.129  0.00  0.00    +0.004 A 
ATOM     25  C   LIG    1      -21.116  79.319  15.212  0.00  0.00    -0.043 A 
ATOM     26  C   LIG    1      -22.288  78.402  15.478  0.00  0.00    +0.035 C 
ATOM     27  C   LIG    1      -22.579  77.421  14.344  0.00  0.00    +0.005 C 
ATOM     28  C   LIG    1      -23.345  78.024  13.172  0.00  0.00    +0.002 C 
ATOM     29  C   LIG    1      -22.582  79.088  12.389  0.00  0.00    +0.019 C 
ENDBRANCH  18  19
ENDBRANCH   3  18
TORSDOF 4
ENDMDL
MODEL 6
REMARK VINA RESULT:      -5.0     19.987     21.947
REMARK  Name = pdb/CHEMBL211168.pdb
REMARK                            x       y       z     vdW  Elec       q    Type
REMARK                         _______ _______ _______ _____ _____    ______ ____
ROOT
ATOM      1  C   LIG    1      -20.905  86.496  11.786  0.00  0.00    +0.106 A 
ATOM      2  C   LIG    1      -20.820  85.827  13.004  0.00  0.00    +0.098 A 
ATOM      3  C   LIG    1      -21.052  84.425  12.755  0.00  0.00    +0.121 A 
ATOM      4  N   LIG    1      -21.377  84.063  11.519  0.00  0.00    -0.202 NA
ATOM      5  S   LIG    1      -21.349  85.403  10.561  0.00  0.00    +0.029 S 
ENDROOT
BRANCH   1  10
ATOM      6  N   LIG    1      -21.113  90.051  11.231  0.00  0.00    -0.313 N 
ATOM      7  H   LIG    1      -20.210  90.280  11.616  0.00  0.00    +0.146 HD
ATOM      8  H   LIG    1      -21.804  90.789  11.297  0.00  0.00    +0.146 HD
ATOM      9  C   LIG    1      -21.640  88.824  11.502  0.00  0.00    +0.302 C 
ATOM     10  N   LIG    1      -20.684  87.842  11.534  0.00  0.00    -0.262 N 
ATOM     11  H   LIG    1      -19.735  88.096  11.277  0.00  0.00    +0.157 HD
ATOM     12  O   LIG    1      -22.845  88.720  11.665  0.00  0.00    -0.253 OA
ENDBRANCH   1  10
BRANCH   2  13
ATOM     13  C   LIG    1      -20.534  86.522  14.252  0.00  0.00    +0.246 C 
ATOM     14  N   LIG    1      -21.493  86.478  15.224  0.00  0.00    -0.325 N 
ATOM     15  H   LIG    1      -21.366  87.010  16.072  0.00  0.00    +0.145 HD
ATOM     16  H   LIG    1      -22.372  85.973  15.108  0.00  0.00    +0.145 HD
ATOM     17  O   LIG    1      -19.502  87.144  14.440  0.00  0.00    -0.270 OA
ENDBRANCH   2  13
BRANCH   3  18
ATOM     18  S   LIG    1      -20.948  83.135  13.944  0.00  0.00    -0.096 S 
BRANCH  18  19
ATOM     19  C   LIG    1      -22.693  83.106  14.544  0.00  0.00    +0.083 C 
ATOM     20  C   LIG    1      -23.481  82.044  13.789  0.00  0.00    -0.031 A 
ATOM     21  C   LIG    1      -24.443  82.471  12.847  0.00  0.00    +0.005 A 
ATOM     22  C   LIG    1      -25.140  81.558  12.058  0.00  0.00    +0.000 A 
ATOM     23  C   LIG    1      -24.883  80.200  12.186  0.00  0.00    +0.000 A 
ATOM     24  C   LIG    1      -23.959  79.756  13.129  0.00  0.00    +0.004 A 
ATOM     25  C   LIG    1      -23.266  80.660  13.956  0.00  0.00    -0.043 A 
ATOM     26  C   LIG    1      -22.296  80.093  14.968  0.00  0.00    +0.035 C 
ATOM     27  C   LIG    1      -22.603  80.487  16.411  0.00  0.00    +0.005 C 
ATOM     28  C   LIG    1      -22.144  81.890  16.791  0.00  0.00    +0.002 C 
ATOM     29  C   LIG    1      -22.872  83.019  16.066  0.00  0.00    +0.019 C 
ENDBRANCH  18  19
ENDBRANCH   3  18
TORSDOF 4
ENDMDL
MODEL 7
REMARK VINA RESULT:      -5.0     19.298     21.425
REMARK  Name = pdb/CHEMBL211168.pdb
REMARK                            x       y       z     vdW  Elec       q    Type
REMARK                         _______ _______ _______ _____ _____    ______ ____
ROOT
ATOM      1  C   LIG    1      -20.566  83.526  13.163  0.00  0.00    +0.106 A 
ATOM      2  C   LIG    1      -20.627  82.139  13.053  0.00  0.00    +0.098 A 
ATOM      3  C   LIG    1      -19.353  81.607  13.466  0.00  0.00    +0.121 A 
ATOM      4  N   LIG    1      -18.388  82.471  13.761  0.00  0.00    -0.202 NA
ATOM      5  S   LIG    1      -18.999  83.996  13.626  0.00  0.00    +0.029 S 
ENDROOT
BRANCH   1  10
ATOM      6  N   LIG    1      -23.322  85.839  13.361  0.00  0.00    -0.313 N 
ATOM      7  H   LIG    1      -23.006  86.456  12.628  0.00  0.00    +0.146 HD
ATOM      8  H   LIG    1      -23.892  86.281  14.074  0.00  0.00    +0.146 HD
ATOM      9  C   LIG    1      -22.434  84.951  13.886  0.00  0.00    +0.302 C 
ATOM     10  N   LIG    1      -21.580  84.446  12.940  0.00  0.00    -0.262 N 
ATOM     11  H   LIG    1      -21.743  84.702  11.971  0.00  0.00    +0.157 HD
ATOM     12  O   LIG    1      -22.488  84.693  15.078  0.00  0.00    -0.253 OA
ENDBRANCH   1  10
BRANCH   2  13
ATOM     13  C   LIG    1      -21.828  81.451  12.595  0.00  0.00    +0.246 C 
ATOM     14  N   LIG    1      -21.700  80.634  11.508  0.00  0.00    -0.325 N 
ATOM     15  H   LIG    1      -22.522  80.199  11.113  0.00  0.00    +0.145 HD
ATOM     16  H   LIG    1      -20.811  80.486  11.030  0.00  0.00    +0.145 HD
ATOM     17  O   LIG    1      -22.916  81.596  13.126  0.00  0.00    -0.270 OA
ENDBRANCH   2  13
BRANCH   3  18
ATOM     18  S   LIG    1      -18.945  79.903  13.613  0.00  0.00    -0.096 S 
BRANCH  18  19
ATOM     19  C   LIG    1      -19.286  79.643  15.408  0.00  0.00    +0.083 C 
ATOM     20  C   LIG    1      -20.789  79.631  15.652  0.00  0.00    -0.031 A 
ATOM     21  C   LIG    1      -21.365  80.737  16.317  0.00  0.00    +0.005 A 
ATOM     22  C   LIG    1      -22.743  80.836  16.498  0.00  0.00    +0.000 A 
ATOM     23  C   LIG    1      -23.576  79.838  16.011  0.00  0.00    +0.000 A 
ATOM     24  C   LIG    1      -23.026  78.726  15.377  0.00  0.00    +0.004 A 
ATOM     25  C   LIG    1      -21.634  78.593  15.210  0.00  0.00    -0.043 A 
ATOM     26  C   LIG    1      -21.120  77.344  14.531  0.00  0.00    +0.035 C 
ATOM     27  C   LIG    1      -20.134  76.539  15.375  0.00  0.00    +0.005 C 
ATOM     28  C   LIG    1      -18.714  77.093  15.384  0.00  0.00    +0.002 C 
ATOM     29  C   LIG    1      -18.563  78.453  16.057  0.00  0.00    +0.019 C 
ENDBRANCH  18  19
ENDBRANCH   3  18
TORSDOF 4
ENDMDL
MODEL 8
REMARK VINA RESULT:      -4.9      2.001      2.452
REMARK  Name = pdb/CHEMBL211168.pdb
REMARK                            x       y       z     vdW  Elec       q    Type
REMARK                         _______ _______ _______ _____ _____    ______ ____
ROOT
ATOM      1  C   LIG    1      -35.856  77.436  29.228  0.00  0.00    +0.106 A 
ATOM      2  C   LIG    1      -37.216  77.422  28.931  0.00  0.00    +0.098 A 
ATOM      3  C   LIG    1      -37.361  77.063  27.542  0.00  0.00    +0.121 A 
ATOM      4  N   LIG    1      -36.254  76.917  26.823  0.00  0.00    -0.202 NA
ATOM      5  S   LIG    1      -34.958  77.135  27.816  0.00  0.00    +0.029 S 
ENDROOT
BRANCH   1  10
ATOM      6  N   LIG    1      -34.273  78.770  32.178  0.00  0.00    -0.313 N 
ATOM      7  H   LIG    1      -34.679  78.117  32.831  0.00  0.00    +0.146 HD
ATOM      8  H   LIG    1      -34.041  79.675  32.570  0.00  0.00    +0.146 HD
ATOM      9  C   LIG    1      -34.824  78.870  30.937  0.00  0.00    +0.302 C 
ATOM     10  N   LIG    1      -35.252  77.660  30.457  0.00  0.00    -0.262 N 
ATOM     11  H   LIG    1      -35.046  76.832  31.008  0.00  0.00    +0.157 HD
ATOM     12  O   LIG    1      -34.868  79.963  30.395  0.00  0.00    -0.253 OA
ENDBRANCH   1  10
BRANCH   2  13
ATOM     13  C   LIG    1      -38.231  77.727  29.932  0.00  0.00    +0.246 C 
ATOM     14  N   LIG    1      -38.978  78.854  29.738  0.00  0.00    -0.325 N 
ATOM     15  H   LIG    1      -39.637  79.141  30.447  0.00  0.00    +0.145 HD
ATOM     16  H   LIG    1      -38.858  79.463  28.929  0.00  0.00    +0.145 HD
ATOM     17  O   LIG    1      -38.412  77.036  30.920  0.00  0.00    -0.270 OA
ENDBRANCH   2  13
BRANCH   3  18
ATOM     18  S   LIG    1      -38.880  76.802  26.698  0.00  0.00    -0.096 S 
BRANCH  18  19
ATOM     19  C   LIG    1      -38.247  76.221  25.064  0.00  0.00    +0.083 C 
ATOM     20  C   LIG    1      -38.874  74.877  24.716  0.00  0.00    -0.031 A 
ATOM     21  C   LIG    1      -38.055  73.728  24.767  0.00  0.00    +0.005 A 
ATOM     22  C   LIG    1      -38.579  72.455  24.545  0.00  0.00    +0.000 A 
ATOM     23  C   LIG    1      -39.932  72.304  24.278  0.00  0.00    +0.000 A 
ATOM     24  C   LIG    1      -40.751  73.428  24.195  0.00  0.00    +0.004 A 
ATOM     25  C   LIG    1      -40.236  74.724  24.386  0.00  0.00    -0.043 A 
ATOM     26  C   LIG    1      -41.190  75.891  24.257  0.00  0.00    +0.035 C 
ATOM     27  C   LIG    1      -40.778  76.915  23.201  0.00  0.00    +0.005 C 
ATOM     28  C   LIG    1      -39.691  77.883  23.654  0.00  0.00    +0.002 C 
ATOM     29  C   LIG    1      -38.332  77.240  23.918  0.00  0.00    +0.019 C 
ENDBRANCH  18  19
ENDBRANCH   3  18
TORSDOF 4
ENDMDL
MODEL 9
REMARK VINA RESULT:      -4.8      6.447      8.210
REMARK  Name = pdb/CHEMBL211168.pdb
REMARK                            x       y       z     vdW  Elec       q    Type
REMARK                         _______ _______ _______ _____ _____    ______ ____
ROOT
ATOM      1  C   LIG    1      -38.373  84.839  25.381  0.00  0.00    +0.106 A 
ATOM      2  C   LIG    1      -39.174  84.957  24.248  0.00  0.00    +0.098 A 
ATOM      3  C   LIG    1      -40.455  84.367  24.549  0.00  0.00    +0.121 A 
ATOM      4  N   LIG    1      -40.600  83.774  25.729  0.00  0.00    -0.202 NA
ATOM      5  S   LIG    1      -39.201  83.962  26.580  0.00  0.00    +0.029 S 
ENDROOT
BRANCH   1  10
ATOM      6  N   LIG    1      -34.827  85.350  25.772  0.00  0.00    -0.313 N 
ATOM      7  H   LIG    1      -34.802  86.281  25.384  0.00  0.00    +0.146 HD
ATOM      8  H   LIG    1      -33.969  84.821  25.666  0.00  0.00    +0.146 HD
ATOM      9  C   LIG    1      -35.934  84.587  25.552  0.00  0.00    +0.302 C 
ATOM     10  N   LIG    1      -37.088  85.326  25.573  0.00  0.00    -0.262 N 
ATOM     11  H   LIG    1      -37.018  86.307  25.827  0.00  0.00    +0.157 HD
ATOM     12  O   LIG    1      -35.802  83.385  25.383  0.00  0.00    -0.253 OA
ENDBRANCH   1  10
BRANCH   2  13
ATOM     13  C   LIG    1      -38.699  85.594  23.026  0.00  0.00    +0.246 C 
ATOM     14  N   LIG    1      -38.525  84.792  21.934  0.00  0.00    -0.325 N 
ATOM     15  H   LIG    1      -38.124  85.180  21.092  0.00  0.00    +0.145 HD
ATOM     16  H   LIG    1      -38.726  83.792  21.946  0.00  0.00    +0.145 HD
ATOM     17  O   LIG    1      -38.438  86.783  22.959  0.00  0.00    -0.270 OA
ENDBRANCH   2  13
BRANCH   3  18
ATOM     18  S   LIG    1      -41.859  84.354  23.492  0.00  0.00    -0.096 S 
BRANCH  18  19
ATOM     19  C   LIG    1      -41.307  83.119  22.237  0.00  0.00    +0.083 C 
ATOM     20  C   LIG    1      -41.137  81.755  22.894  0.00  0.00    -0.031 A 
ATOM     21  C   LIG    1      -39.826  81.263  23.077  0.00  0.00    +0.005 A 
ATOM     22  C   LIG    1      -39.589  80.064  23.747  0.00  0.00    +0.000 A 
ATOM     23  C   LIG    1      -40.657  79.338  24.258  0.00  0.00    +0.000 A 
ATOM     24  C   LIG    1      -41.960  79.792  24.063  0.00  0.00    +0.004 A 
ATOM     25  C   LIG    1      -42.221  80.985  23.362  0.00  0.00    -0.043 A 
ATOM     26  C   LIG    1      -43.665  81.394  23.177  0.00  0.00    +0.035 C 
ATOM     27  C   LIG    1      -44.079  81.568  21.718  0.00  0.00    +0.005 C 
ATOM     28  C   LIG    1      -43.647  82.891  21.094  0.00  0.00    +0.002 C 
ATOM     29  C   LIG    1      -42.138  83.065  20.946  0.00  0.00    +0.019 C 
ENDBRANCH  18  19
ENDBRANCH   3  18
TORSDOF 4
ENDMDL
