MODEL 1
REMARK VINA RESULT:      -5.9      0.000      0.000
REMARK  Name = pdb/CHEMBL3978653.pdb
REMARK                            x       y       z     vdW  Elec       q    Type
REMARK                         _______ _______ _______ _____ _____    ______ ____
ROOT
ATOM      1  C   LIG    1      -20.474  76.838  30.613  0.00  0.00    +0.027 A 
ATOM      2  C   LIG    1      -20.644  77.816  31.588  0.00  0.00    +0.060 A 
ATOM      3  C   LIG    1      -19.541  78.362  32.214  0.00  0.00    +0.157 A 
ATOM      4  N   LIG    1      -18.285  77.962  31.910  0.00  0.00    -0.236 NA
ATOM      5  C   LIG    1      -18.137  77.028  30.941  0.00  0.00    +0.114 A 
ATOM      6  C   LIG    1      -19.190  76.432  30.269  0.00  0.00    +0.031 A 
ENDROOT
BRANCH   1   7
ATOM      7  C   LIG    1      -21.709  76.330  29.971  0.00  0.00    +0.195 C 
ATOM      8  O   LIG    1      -21.828  76.460  28.743  0.00  0.00    -0.287 OA
BRANCH   7  16
ATOM      9  N   LIG    1      -23.885  74.418  32.195  0.00  0.00    -0.343 N 
ATOM     10  C   LIG    1      -24.761  75.423  31.835  0.00  0.00    +0.053 A 
ATOM     11  C   LIG    1      -26.093  75.675  32.179  0.00  0.00    +0.046 A 
ATOM     12  C   LIG    1      -26.638  76.845  31.678  0.00  0.00    +0.113 A 
ATOM     13  N   LIG    1      -25.975  77.743  30.923  0.00  0.00    -0.263 NA
ATOM     14  C   LIG    1      -24.686  77.489  30.593  0.00  0.00    +0.121 A 
ATOM     15  C   LIG    1      -24.058  76.304  31.010  0.00  0.00    +0.029 A 
ATOM     16  C   LIG    1      -22.767  75.735  30.764  0.00  0.00    +0.049 A 
ATOM     17  C   LIG    1      -22.718  74.545  31.478  0.00  0.00    +0.099 A 
BRANCH   9  19
ATOM     18  C   LIG    1      -24.126  71.997  32.701  0.00  0.00    +0.030 C 
ATOM     19  C   LIG    1      -24.073  73.424  33.253  0.00  0.00    +0.081 C 
ATOM     20  C   LIG    1      -23.041  73.549  34.370  0.00  0.00    +0.030 C 
ENDBRANCH   9  19
ENDBRANCH   7  16
ENDBRANCH   1   7
BRANCH   3  21
ATOM     21  N   LIG    1      -19.616  79.278  33.272  0.00  0.00    -0.197 NA
ATOM     22  C   LIG    1      -19.535  78.890  34.502  0.00  0.00    +0.195 C 
BRANCH  22  23
ATOM     23  O   LIG    1      -19.391  77.599  34.881  0.00  0.00    -0.495 OA
ATOM     24  H   LIG    1      -18.496  77.253  34.701  0.00  0.00    +0.293 HD
ENDBRANCH  22  23
BRANCH  22  25
ATOM     25  C   LIG    1      -19.588  79.858  35.649  0.00  0.00    +0.150 C 
BRANCH  25  26
ATOM     26  C   LIG    1      -21.004  80.286  35.916  0.00  0.00    +0.050 A 
ATOM     27  N   LIG    1      -21.867  79.317  36.324  0.00  0.00    -0.258 NA
ATOM     28  C   LIG    1      -23.152  79.697  36.554  0.00  0.00    +0.131 A 
ATOM     29  C   LIG    1      -23.622  80.986  36.361  0.00  0.00    +0.059 A 
ATOM     30 CL   LIG    1      -25.261  81.388  36.671  0.00  0.00    -0.082 Cl
ATOM     31  C   LIG    1      -22.732  81.951  35.907  0.00  0.00    +0.023 A 
ATOM     32  C   LIG    1      -21.403  81.598  35.677  0.00  0.00    +0.025 A 
ENDBRANCH  25  26
ENDBRANCH  22  25
ENDBRANCH   3  21
TORSDOF 7
ENDMDL
MODEL 2
REMARK VINA RESULT:      -5.5      4.092      8.733
REMARK  Name = pdb/CHEMBL3978653.pdb
REMARK                            x       y       z     vdW  Elec       q    Type
REMARK                         _______ _______ _______ _____ _____    ______ ____
ROOT
ATOM      1  C   LIG    1      -24.271  76.933  32.617  0.00  0.00    +0.027 A 
ATOM      2  C   LIG    1      -25.440  76.230  32.892  0.00  0.00    +0.060 A 
ATOM      3  C   LIG    1      -26.503  76.293  32.014  0.00  0.00    +0.157 A 
ATOM      4  N   LIG    1      -26.445  77.036  30.885  0.00  0.00    -0.236 NA
ATOM      5  C   LIG    1      -25.291  77.693  30.621  0.00  0.00    +0.114 A 
ATOM      6  C   LIG    1      -24.183  77.682  31.449  0.00  0.00    +0.031 A 
ENDROOT
BRANCH   1   7
ATOM      7  C   LIG    1      -23.170  76.784  33.597  0.00  0.00    +0.195 C 
ATOM      8  O   LIG    1      -23.173  75.787  34.335  0.00  0.00    -0.287 OA
BRANCH   7  16
ATOM      9  N   LIG    1      -20.969  79.586  34.397  0.00  0.00    -0.343 N 
ATOM     10  C   LIG    1      -20.148  78.901  33.523  0.00  0.00    +0.053 A 
ATOM     11  C   LIG    1      -18.860  79.160  33.045  0.00  0.00    +0.046 A 
ATOM     12  C   LIG    1      -18.311  78.190  32.223  0.00  0.00    +0.113 A 
ATOM     13  N   LIG    1      -18.913  77.033  31.888  0.00  0.00    -0.263 NA
ATOM     14  C   LIG    1      -20.162  76.791  32.354  0.00  0.00    +0.121 A 
ATOM     15  C   LIG    1      -20.826  77.736  33.153  0.00  0.00    +0.029 A 
ATOM     16  C   LIG    1      -22.140  77.798  33.717  0.00  0.00    +0.049 A 
ATOM     17  C   LIG    1      -22.204  78.981  34.441  0.00  0.00    +0.099 A 
BRANCH   9  19
ATOM     18  C   LIG    1      -21.791  81.607  35.587  0.00  0.00    +0.030 C 
ATOM     19  C   LIG    1      -20.594  80.711  35.256  0.00  0.00    +0.081 C 
ATOM     20  C   LIG    1      -19.865  80.270  36.521  0.00  0.00    +0.030 C 
ENDBRANCH   9  19
ENDBRANCH   7  16
ENDBRANCH   1   7
BRANCH   3  21
ATOM     21  N   LIG    1      -27.750  75.700  32.252  0.00  0.00    -0.197 NA
ATOM     22  C   LIG    1      -28.835  76.403  32.269  0.00  0.00    +0.195 C 
BRANCH  22  23
ATOM     23  O   LIG    1      -28.873  77.742  32.081  0.00  0.00    -0.495 OA
ATOM     24  H   LIG    1      -29.503  78.188  32.680  0.00  0.00    +0.293 HD
ENDBRANCH  22  23
BRANCH  22  25
ATOM     25  C   LIG    1      -30.184  75.783  32.498  0.00  0.00    +0.150 C 
BRANCH  25  26
ATOM     26  C   LIG    1      -31.060  75.959  31.289  0.00  0.00    +0.050 A 
ATOM     27  N   LIG    1      -30.427  76.169  30.104  0.00  0.00    -0.258 NA
ATOM     28  C   LIG    1      -31.215  76.342  29.010  0.00  0.00    +0.131 A 
ATOM     29  C   LIG    1      -32.600  76.352  29.050  0.00  0.00    +0.059 A 
ATOM     30 CL   LIG    1      -33.527  76.579  27.624  0.00  0.00    -0.082 Cl
ATOM     31  C   LIG    1      -33.225  76.174  30.277  0.00  0.00    +0.023 A 
ATOM     32  C   LIG    1      -32.446  75.978  31.417  0.00  0.00    +0.025 A 
ENDBRANCH  25  26
ENDBRANCH  22  25
ENDBRANCH   3  21
TORSDOF 7
ENDMDL
MODEL 3
REMARK VINA RESULT:      -5.5     18.886     21.716
REMARK  Name = pdb/CHEMBL3978653.pdb
REMARK                            x       y       z     vdW  Elec       q    Type
REMARK                         _______ _______ _______ _____ _____    ______ ____
ROOT
ATOM      1  C   LIG    1      -39.701  70.490  23.405  0.00  0.00    +0.027 A 
ATOM      2  C   LIG    1      -38.358  70.158  23.556  0.00  0.00    +0.060 A 
ATOM      3  C   LIG    1      -37.739  69.353  22.622  0.00  0.00    +0.157 A 
ATOM      4  N   LIG    1      -38.410  68.864  21.554  0.00  0.00    -0.236 NA
ATOM      5  C   LIG    1      -39.709  69.218  21.408  0.00  0.00    +0.114 A 
ATOM      6  C   LIG    1      -40.401  70.017  22.301  0.00  0.00    +0.031 A 
ENDROOT
BRANCH   1   7
ATOM      7  C   LIG    1      -40.277  71.383  24.437  0.00  0.00    +0.195 C 
ATOM      8  O   LIG    1      -40.547  70.899  25.547  0.00  0.00    -0.287 OA
BRANCH   7  16
ATOM      9  N   LIG    1      -41.622  74.678  23.618  0.00  0.00    -0.343 N 
ATOM     10  C   LIG    1      -40.346  75.046  23.995  0.00  0.00    +0.053 A 
ATOM     11  C   LIG    1      -39.706  76.288  24.056  0.00  0.00    +0.046 A 
ATOM     12  C   LIG    1      -38.419  76.283  24.569  0.00  0.00    +0.113 A 
ATOM     13  N   LIG    1      -37.776  75.191  25.026  0.00  0.00    -0.263 NA
ATOM     14  C   LIG    1      -38.403  73.992  24.961  0.00  0.00    +0.121 A 
ATOM     15  C   LIG    1      -39.690  73.884  24.410  0.00  0.00    +0.029 A 
ATOM     16  C   LIG    1      -40.557  72.775  24.143  0.00  0.00    +0.049 A 
ATOM     17  C   LIG    1      -41.723  73.306  23.609  0.00  0.00    +0.099 A 
BRANCH   9  19
ATOM     18  C   LIG    1      -43.536  75.176  22.112  0.00  0.00    +0.030 C 
ATOM     19  C   LIG    1      -42.758  75.569  23.371  0.00  0.00    +0.081 C 
ATOM     20  C   LIG    1      -43.682  75.693  24.579  0.00  0.00    +0.030 C 
ENDBRANCH   9  19
ENDBRANCH   7  16
ENDBRANCH   1   7
BRANCH   3  21
ATOM     21  N   LIG    1      -36.423  68.887  22.740  0.00  0.00    -0.197 NA
ATOM     22  C   LIG    1      -36.170  67.640  22.966  0.00  0.00    +0.195 C 
BRANCH  22  23
ATOM     23  O   LIG    1      -37.122  66.691  23.122  0.00  0.00    -0.495 OA
ATOM     24  H   LIG    1      -36.833  65.814  22.804  0.00  0.00    +0.293 HD
ENDBRANCH  22  23
BRANCH  22  25
ATOM     25  C   LIG    1      -34.766  67.116  23.072  0.00  0.00    +0.150 C 
BRANCH  25  26
ATOM     26  C   LIG    1      -34.475  66.153  21.955  0.00  0.00    +0.050 A 
ATOM     27  N   LIG    1      -35.017  64.911  22.065  0.00  0.00    -0.258 NA
ATOM     28  C   LIG    1      -34.745  64.032  21.064  0.00  0.00    +0.131 A 
ATOM     29  C   LIG    1      -33.930  64.323  19.982  0.00  0.00    +0.059 A 
ATOM     30 CL   LIG    1      -33.632  63.157  18.758  0.00  0.00    -0.082 Cl
ATOM     31  C   LIG    1      -33.357  65.585  19.910  0.00  0.00    +0.023 A 
ATOM     32  C   LIG    1      -33.627  66.516  20.912  0.00  0.00    +0.025 A 
ENDBRANCH  25  26
ENDBRANCH  22  25
ENDBRANCH   3  21
TORSDOF 7
ENDMDL
MODEL 4
REMARK VINA RESULT:      -5.5      4.363      8.960
REMARK  Name = pdb/CHEMBL3978653.pdb
REMARK                            x       y       z     vdW  Elec       q    Type
REMARK                         _______ _______ _______ _____ _____    ______ ____
ROOT
ATOM      1  C   LIG    1      -25.475  75.710  32.545  0.00  0.00    +0.027 A 
ATOM      2  C   LIG    1      -25.736  74.724  31.598  0.00  0.00    +0.060 A 
ATOM      3  C   LIG    1      -26.219  73.495  32.001  0.00  0.00    +0.157 A 
ATOM      4  N   LIG    1      -26.440  73.215  33.305  0.00  0.00    -0.236 NA
ATOM      5  C   LIG    1      -26.205  74.194  34.210  0.00  0.00    +0.114 A 
ATOM      6  C   LIG    1      -25.719  75.450  33.888  0.00  0.00    +0.031 A 
ENDROOT
BRANCH   1   7
ATOM      7  C   LIG    1      -24.988  77.009  32.023  0.00  0.00    +0.195 C 
ATOM      8  O   LIG    1      -25.811  77.774  31.496  0.00  0.00    -0.287 OA
BRANCH   7  16
ATOM      9  N   LIG    1      -21.564  77.967  32.853  0.00  0.00    -0.343 N 
ATOM     10  C   LIG    1      -21.374  77.577  31.542  0.00  0.00    +0.053 A 
ATOM     11  C   LIG    1      -20.240  77.547  30.726  0.00  0.00    +0.046 A 
ATOM     12  C   LIG    1      -20.415  77.010  29.462  0.00  0.00    +0.113 A 
ATOM     13  N   LIG    1      -21.573  76.503  28.994  0.00  0.00    -0.263 NA
ATOM     14  C   LIG    1      -22.667  76.539  29.790  0.00  0.00    +0.121 A 
ATOM     15  C   LIG    1      -22.604  77.111  31.072  0.00  0.00    +0.029 A 
ATOM     16  C   LIG    1      -23.582  77.356  32.089  0.00  0.00    +0.049 A 
ATOM     17  C   LIG    1      -22.905  77.930  33.156  0.00  0.00    +0.099 A 
BRANCH   9  19
ATOM     18  C   LIG    1      -20.734  79.630  34.503  0.00  0.00    +0.030 C 
ATOM     19  C   LIG    1      -20.525  78.265  33.841  0.00  0.00    +0.081 C 
ATOM     20  C   LIG    1      -20.367  77.161  34.882  0.00  0.00    +0.030 C 
ENDBRANCH   9  19
ENDBRANCH   7  16
ENDBRANCH   1   7
BRANCH   3  21
ATOM     21  N   LIG    1      -26.419  72.413  31.134  0.00  0.00    -0.197 NA
ATOM     22  C   LIG    1      -25.605  71.409  31.117  0.00  0.00    +0.195 C 
BRANCH  22  23
ATOM     23  O   LIG    1      -24.504  71.313  31.896  0.00  0.00    -0.495 OA
ATOM     24  H   LIG    1      -24.145  72.185  32.149  0.00  0.00    +0.293 HD
ENDBRANCH  22  23
BRANCH  22  25
ATOM     25  C   LIG    1      -25.815  70.226  30.214  0.00  0.00    +0.150 C 
BRANCH  25  26
ATOM     26  C   LIG    1      -24.538  69.865  29.508  0.00  0.00    +0.050 A 
ATOM     27  N   LIG    1      -23.605  69.199  30.239  0.00  0.00    -0.258 NA
ATOM     28  C   LIG    1      -22.443  68.882  29.609  0.00  0.00    +0.131 A 
ATOM     29  C   LIG    1      -22.155  69.231  28.299  0.00  0.00    +0.059 A 
ATOM     30 CL   LIG    1      -20.663  68.796  27.573  0.00  0.00    -0.082 Cl
ATOM     31  C   LIG    1      -23.107  69.945  27.584  0.00  0.00    +0.023 A 
ATOM     32  C   LIG    1      -24.316  70.273  28.195  0.00  0.00    +0.025 A 
ENDBRANCH  25  26
ENDBRANCH  22  25
ENDBRANCH   3  21
TORSDOF 7
ENDMDL
MODEL 5
REMARK VINA RESULT:      -5.5     13.707     17.999
REMARK  Name = pdb/CHEMBL3978653.pdb
REMARK                            x       y       z     vdW  Elec       q    Type
REMARK                         _______ _______ _______ _____ _____    ______ ____
ROOT
ATOM      1  C   LIG    1      -38.595  77.372  26.031  0.00  0.00    +0.027 A 
ATOM      2  C   LIG    1      -39.226  78.600  25.856  0.00  0.00    +0.060 A 
ATOM      3  C   LIG    1      -39.858  78.886  24.663  0.00  0.00    +0.157 A 
ATOM      4  N   LIG    1      -39.875  77.999  23.641  0.00  0.00    -0.236 NA
ATOM      5  C   LIG    1      -39.278  76.800  23.837  0.00  0.00    +0.114 A 
ATOM      6  C   LIG    1      -38.622  76.438  25.001  0.00  0.00    +0.031 A 
ENDROOT
BRANCH   1   7
ATOM      7  C   LIG    1      -37.969  77.138  27.352  0.00  0.00    +0.195 C 
ATOM      8  O   LIG    1      -38.670  76.659  28.257  0.00  0.00    -0.287 OA
BRANCH   7  16
ATOM      9  N   LIG    1      -34.343  77.468  27.629  0.00  0.00    -0.343 N 
ATOM     10  C   LIG    1      -34.716  78.711  28.101  0.00  0.00    +0.053 A 
ATOM     11  C   LIG    1      -33.974  79.801  28.566  0.00  0.00    +0.046 A 
ATOM     12  C   LIG    1      -34.700  80.935  28.890  0.00  0.00    +0.113 A 
ATOM     13  N   LIG    1      -36.035  81.059  28.762  0.00  0.00    -0.263 NA
ATOM     14  C   LIG    1      -36.746  79.997  28.313  0.00  0.00    +0.121 A 
ATOM     15  C   LIG    1      -36.108  78.784  28.006  0.00  0.00    +0.029 A 
ATOM     16  C   LIG    1      -36.585  77.498  27.593  0.00  0.00    +0.049 A 
ATOM     17  C   LIG    1      -35.463  76.699  27.417  0.00  0.00    +0.099 A 
BRANCH   9  19
ATOM     18  C   LIG    1      -32.286  78.021  26.347  0.00  0.00    +0.030 C 
ATOM     19  C   LIG    1      -32.990  77.030  27.280  0.00  0.00    +0.081 C 
ATOM     20  C   LIG    1      -32.136  76.719  28.505  0.00  0.00    +0.030 C 
ENDBRANCH   9  19
ENDBRANCH   7  16
ENDBRANCH   1   7
BRANCH   3  21
ATOM     21  N   LIG    1      -40.434  80.127  24.360  0.00  0.00    -0.197 NA
ATOM     22  C   LIG    1      -39.979  80.861  23.399  0.00  0.00    +0.195 C 
BRANCH  22  23
ATOM     23  O   LIG    1      -38.924  80.523  22.622  0.00  0.00    -0.495 OA
ATOM     24  H   LIG    1      -38.894  79.567  22.423  0.00  0.00    +0.293 HD
ENDBRANCH  22  23
BRANCH  22  25
ATOM     25  C   LIG    1      -40.597  82.183  23.042  0.00  0.00    +0.150 C 
BRANCH  25  26
ATOM     26  C   LIG    1      -39.642  83.308  23.327  0.00  0.00    +0.050 A 
ATOM     27  N   LIG    1      -38.608  83.033  24.166  0.00  0.00    -0.258 NA
ATOM     28  C   LIG    1      -37.750  84.051  24.436  0.00  0.00    +0.131 A 
ATOM     29  C   LIG    1      -37.896  85.336  23.940  0.00  0.00    +0.059 A 
ATOM     30 CL   LIG    1      -36.770  86.571  24.330  0.00  0.00    -0.082 Cl
ATOM     31  C   LIG    1      -38.980  85.605  23.115  0.00  0.00    +0.023 A 
ATOM     32  C   LIG    1      -39.872  84.578  22.805  0.00  0.00    +0.025 A 
ENDBRANCH  25  26
ENDBRANCH  22  25
ENDBRANCH   3  21
TORSDOF 7
ENDMDL
MODEL 6
REMARK VINA RESULT:      -5.4     13.239     18.006
REMARK  Name = pdb/CHEMBL3978653.pdb
REMARK                            x       y       z     vdW  Elec       q    Type
REMARK                         _______ _______ _______ _____ _____    ______ ____
ROOT
ATOM      1  C   LIG    1      -37.538  80.447  27.585  0.00  0.00    +0.027 A 
ATOM      2  C   LIG    1      -38.372  79.479  27.032  0.00  0.00    +0.060 A 
ATOM      3  C   LIG    1      -39.253  79.823  26.027  0.00  0.00    +0.157 A 
ATOM      4  N   LIG    1      -39.337  81.091  25.563  0.00  0.00    -0.236 NA
ATOM      5  C   LIG    1      -38.501  82.014  26.095  0.00  0.00    +0.114 A 
ATOM      6  C   LIG    1      -37.593  81.750  27.105  0.00  0.00    +0.031 A 
ENDROOT
BRANCH   1   7
ATOM      7  C   LIG    1      -36.603  79.984  28.637  0.00  0.00    +0.195 C 
ATOM      8  O   LIG    1      -36.478  80.680  29.657  0.00  0.00    -0.287 OA
BRANCH   7  16
ATOM      9  N   LIG    1      -35.213  76.618  28.373  0.00  0.00    -0.343 N 
ATOM     10  C   LIG    1      -34.171  77.333  27.817  0.00  0.00    +0.053 A 
ATOM     11  C   LIG    1      -32.932  76.941  27.301  0.00  0.00    +0.046 A 
ATOM     12  C   LIG    1      -32.161  77.946  26.743  0.00  0.00    +0.113 A 
ATOM     13  N   LIG    1      -32.532  79.237  26.644  0.00  0.00    -0.263 NA
ATOM     14  C   LIG    1      -33.733  79.609  27.148  0.00  0.00    +0.121 A 
ATOM     15  C   LIG    1      -34.567  78.673  27.781  0.00  0.00    +0.029 A 
ATOM     16  C   LIG    1      -35.825  78.774  28.459  0.00  0.00    +0.049 A 
ATOM     17  C   LIG    1      -36.166  77.487  28.852  0.00  0.00    +0.099 A 
BRANCH   9  19
ATOM     18  C   LIG    1      -35.285  74.571  29.781  0.00  0.00    +0.030 C 
ATOM     19  C   LIG    1      -35.381  75.163  28.372  0.00  0.00    +0.081 C 
ATOM     20  C   LIG    1      -36.659  74.718  27.668  0.00  0.00    +0.030 C 
ENDBRANCH   9  19
ENDBRANCH   7  16
ENDBRANCH   1   7
BRANCH   3  21
ATOM     21  N   LIG    1      -40.196  78.943  25.479  0.00  0.00    -0.197 NA
ATOM     22  C   LIG    1      -40.059  78.474  24.283  0.00  0.00    +0.195 C 
BRANCH  22  23
ATOM     23  O   LIG    1      -39.032  78.787  23.459  0.00  0.00    -0.495 OA
ATOM     24  H   LIG    1      -38.715  79.702  23.585  0.00  0.00    +0.293 HD
ENDBRANCH  22  23
BRANCH  22  25
ATOM     25  C   LIG    1      -41.044  77.510  23.686  0.00  0.00    +0.150 C 
BRANCH  25  26
ATOM     26  C   LIG    1      -40.590  76.092  23.892  0.00  0.00    +0.050 A 
ATOM     27  N   LIG    1      -39.353  75.920  24.429  0.00  0.00    -0.258 NA
ATOM     28  C   LIG    1      -38.933  74.640  24.606  0.00  0.00    +0.131 A 
ATOM     29  C   LIG    1      -39.672  73.527  24.238  0.00  0.00    +0.059 A 
ATOM     30 CL   LIG    1      -39.072  71.940  24.491  0.00  0.00    -0.082 Cl
ATOM     31  C   LIG    1      -40.917  73.727  23.656  0.00  0.00    +0.023 A 
ATOM     32  C   LIG    1      -41.385  75.028  23.475  0.00  0.00    +0.025 A 
ENDBRANCH  25  26
ENDBRANCH  22  25
ENDBRANCH   3  21
TORSDOF 7
ENDMDL
MODEL 7
REMARK VINA RESULT:      -5.4      5.623      8.890
REMARK  Name = pdb/CHEMBL3978653.pdb
REMARK                            x       y       z     vdW  Elec       q    Type
REMARK                         _______ _______ _______ _____ _____    ______ ____
ROOT
ATOM      1  C   LIG    1      -29.613  75.301  32.632  0.00  0.00    +0.027 A 
ATOM      2  C   LIG    1      -28.780  75.984  31.753  0.00  0.00    +0.060 A 
ATOM      3  C   LIG    1      -27.416  75.774  31.793  0.00  0.00    +0.157 A 
ATOM      4  N   LIG    1      -26.858  74.918  32.680  0.00  0.00    -0.236 NA
ATOM      5  C   LIG    1      -27.686  74.242  33.511  0.00  0.00    +0.114 A 
ATOM      6  C   LIG    1      -29.061  74.398  33.535  0.00  0.00    +0.031 A 
ENDROOT
BRANCH   1   7
ATOM      7  C   LIG    1      -31.065  75.563  32.500  0.00  0.00    +0.195 C 
ATOM      8  O   LIG    1      -31.683  75.961  33.500  0.00  0.00    -0.287 OA
BRANCH   7  16
ATOM      9  N   LIG    1      -32.675  75.613  29.223  0.00  0.00    -0.343 N 
ATOM     10  C   LIG    1      -32.694  74.253  29.460  0.00  0.00    +0.053 A 
ATOM     11  C   LIG    1      -33.179  73.176  28.711  0.00  0.00    +0.046 A 
ATOM     12  C   LIG    1      -32.950  71.917  29.241  0.00  0.00    +0.113 A 
ATOM     13  N   LIG    1      -32.283  71.672  30.385  0.00  0.00    -0.263 NA
ATOM     14  C   LIG    1      -31.819  72.721  31.105  0.00  0.00    +0.121 A 
ATOM     15  C   LIG    1      -32.045  74.040  30.679  0.00  0.00    +0.029 A 
ATOM     16  C   LIG    1      -31.752  75.322  31.246  0.00  0.00    +0.049 A 
ATOM     17  C   LIG    1      -32.201  76.269  30.335  0.00  0.00    +0.099 A 
BRANCH   9  19
ATOM     18  C   LIG    1      -34.494  76.394  27.720  0.00  0.00    +0.030 C 
ATOM     19  C   LIG    1      -32.986  76.291  27.962  0.00  0.00    +0.081 C 
ATOM     20  C   LIG    1      -32.309  77.653  27.843  0.00  0.00    +0.030 C 
ENDBRANCH   9  19
ENDBRANCH   7  16
ENDBRANCH   1   7
BRANCH   3  21
ATOM     21  N   LIG    1      -26.492  76.485  31.016  0.00  0.00    -0.197 NA
ATOM     22  C   LIG    1      -25.735  77.393  31.539  0.00  0.00    +0.195 C 
BRANCH  22  23
ATOM     23  O   LIG    1      -25.769  77.749  32.844  0.00  0.00    -0.495 OA
ATOM     24  H   LIG    1      -24.909  78.087  33.163  0.00  0.00    +0.293 HD
ENDBRANCH  22  23
BRANCH  22  25
ATOM     25  C   LIG    1      -24.721  78.150  30.729  0.00  0.00    +0.150 C 
BRANCH  25  26
ATOM     26  C   LIG    1      -23.399  77.434  30.733  0.00  0.00    +0.050 A 
ATOM     27  N   LIG    1      -22.828  77.215  31.948  0.00  0.00    -0.258 NA
ATOM     28  C   LIG    1      -21.627  76.579  31.956  0.00  0.00    +0.131 A 
ATOM     29  C   LIG    1      -20.953  76.188  30.810  0.00  0.00    +0.059 A 
ATOM     30 CL   LIG    1      -19.436  75.392  30.902  0.00  0.00    -0.082 Cl
ATOM     31  C   LIG    1      -21.536  76.456  29.579  0.00  0.00    +0.023 A 
ATOM     32  C   LIG    1      -22.776  77.092  29.536  0.00  0.00    +0.025 A 
ENDBRANCH  25  26
ENDBRANCH  22  25
ENDBRANCH   3  21
TORSDOF 7
ENDMDL
MODEL 8
REMARK VINA RESULT:      -5.4     18.301     20.425
REMARK  Name = pdb/CHEMBL3978653.pdb
REMARK                            x       y       z     vdW  Elec       q    Type
REMARK                         _______ _______ _______ _____ _____    ______ ____
ROOT
ATOM      1  C   LIG    1      -21.747  82.630  15.368  0.00  0.00    +0.027 A 
ATOM      2  C   LIG    1      -22.475  83.799  15.168  0.00  0.00    +0.060 A 
ATOM      3  C   LIG    1      -22.001  84.765  14.302  0.00  0.00    +0.157 A 
ATOM      4  N   LIG    1      -20.832  84.610  13.641  0.00  0.00    -0.236 NA
ATOM      5  C   LIG    1      -20.149  83.456  13.828  0.00  0.00    +0.114 A 
ATOM      6  C   LIG    1      -20.554  82.442  14.679  0.00  0.00    +0.031 A 
ENDROOT
BRANCH   1   7
ATOM      7  C   LIG    1      -22.343  81.635  16.289  0.00  0.00    +0.195 C 
ATOM      8  O   LIG    1      -22.501  81.957  17.477  0.00  0.00    -0.287 OA
BRANCH   7  16
ATOM      9  N   LIG    1      -23.812  78.578  14.936  0.00  0.00    -0.343 N 
ATOM     10  C   LIG    1      -22.522  78.132  15.145  0.00  0.00    +0.053 A 
ATOM     11  C   LIG    1      -21.910  76.893  14.930  0.00  0.00    +0.046 A 
ATOM     12  C   LIG    1      -20.551  76.834  15.187  0.00  0.00    +0.113 A 
ATOM     13  N   LIG    1      -19.798  77.875  15.593  0.00  0.00    -0.263 NA
ATOM     14  C   LIG    1      -20.399  79.071  15.800  0.00  0.00    +0.121 A 
ATOM     15  C   LIG    1      -21.784  79.220  15.617  0.00  0.00    +0.029 A 
ATOM     16  C   LIG    1      -22.692  80.307  15.823  0.00  0.00    +0.049 A 
ATOM     17  C   LIG    1      -23.945  79.853  15.435  0.00  0.00    +0.099 A 
BRANCH   9  19
ATOM     18  C   LIG    1      -26.265  78.400  14.580  0.00  0.00    +0.030 C 
ATOM     19  C   LIG    1      -24.873  77.888  14.200  0.00  0.00    +0.081 C 
ATOM     20  C   LIG    1      -24.662  77.924  12.689  0.00  0.00    +0.030 C 
ENDBRANCH   9  19
ENDBRANCH   7  16
ENDBRANCH   1   7
BRANCH   3  21
ATOM     21  N   LIG    1      -22.613  86.011  14.112  0.00  0.00    -0.197 NA
ATOM     22  C   LIG    1      -22.093  87.094  14.588  0.00  0.00    +0.195 C 
BRANCH  22  23
ATOM     23  O   LIG    1      -20.949  87.130  15.311  0.00  0.00    -0.495 OA
ATOM     24  H   LIG    1      -21.115  87.178  16.273  0.00  0.00    +0.293 HD
ENDBRANCH  22  23
BRANCH  22  25
ATOM     25  C   LIG    1      -22.719  88.442  14.374  0.00  0.00    +0.150 C 
BRANCH  25  26
ATOM     26  C   LIG    1      -22.555  88.881  12.945  0.00  0.00    +0.050 A 
ATOM     27  N   LIG    1      -21.306  88.786  12.418  0.00  0.00    -0.258 NA
ATOM     28  C   LIG    1      -21.151  89.194  11.131  0.00  0.00    +0.131 A 
ATOM     29  C   LIG    1      -22.173  89.725  10.361  0.00  0.00    +0.059 A 
ATOM     30 CL   LIG    1      -21.898  90.221   8.741  0.00  0.00    -0.082 Cl
ATOM     31  C   LIG    1      -23.432  89.848  10.932  0.00  0.00    +0.023 A 
ATOM     32  C   LIG    1      -23.629  89.424  12.246  0.00  0.00    +0.025 A 
ENDBRANCH  25  26
ENDBRANCH  22  25
ENDBRANCH   3  21
TORSDOF 7
ENDMDL
MODEL 9
REMARK VINA RESULT:      -5.3     12.664     16.574
REMARK  Name = pdb/CHEMBL3978653.pdb
REMARK                            x       y       z     vdW  Elec       q    Type
REMARK                         _______ _______ _______ _____ _____    ______ ____
ROOT
ATOM      1  C   LIG    1      -34.505  73.533  28.229  0.00  0.00    +0.027 A 
ATOM      2  C   LIG    1      -35.760  73.988  27.836  0.00  0.00    +0.060 A 
ATOM      3  C   LIG    1      -36.701  73.092  27.369  0.00  0.00    +0.157 A 
ATOM      4  N   LIG    1      -36.432  71.770  27.273  0.00  0.00    -0.236 NA
ATOM      5  C   LIG    1      -35.215  71.342  27.682  0.00  0.00    +0.114 A 
ATOM      6  C   LIG    1      -34.218  72.175  28.159  0.00  0.00    +0.031 A 
ENDROOT
BRANCH   1   7
ATOM      7  C   LIG    1      -33.568  74.558  28.745  0.00  0.00    +0.195 C 
ATOM      8  O   LIG    1      -32.412  74.205  29.030  0.00  0.00    -0.287 OA
BRANCH   7  16
ATOM      9  N   LIG    1      -34.884  77.773  29.867  0.00  0.00    -0.343 N 
ATOM     10  C   LIG    1      -34.225  78.188  28.727  0.00  0.00    +0.053 A 
ATOM     11  C   LIG    1      -34.082  79.444  28.130  0.00  0.00    +0.046 A 
ATOM     12  C   LIG    1      -33.267  79.495  27.011  0.00  0.00    +0.113 A 
ATOM     13  N   LIG    1      -32.603  78.443  26.493  0.00  0.00    -0.263 NA
ATOM     14  C   LIG    1      -32.750  77.230  27.077  0.00  0.00    +0.121 A 
ATOM     15  C   LIG    1      -33.595  77.065  28.187  0.00  0.00    +0.029 A 
ATOM     16  C   LIG    1      -34.002  75.925  28.953  0.00  0.00    +0.049 A 
ATOM     17  C   LIG    1      -34.838  76.401  29.954  0.00  0.00    +0.099 A 
BRANCH   9  19
ATOM     18  C   LIG    1      -36.896  78.235  31.252  0.00  0.00    +0.030 C 
ATOM     19  C   LIG    1      -35.455  78.625  30.912  0.00  0.00    +0.081 C 
ATOM     20  C   LIG    1      -34.586  78.683  32.165  0.00  0.00    +0.030 C 
ENDBRANCH   9  19
ENDBRANCH   7  16
ENDBRANCH   1   7
BRANCH   3  21
ATOM     21  N   LIG    1      -37.953  73.466  26.863  0.00  0.00    -0.197 NA
ATOM     22  C   LIG    1      -38.186  73.476  25.592  0.00  0.00    +0.195 C 
BRANCH  22  23
ATOM     23  O   LIG    1      -37.269  73.152  24.651  0.00  0.00    -0.495 OA
ATOM     24  H   LIG    1      -37.408  73.630  23.810  0.00  0.00    +0.293 HD
ENDBRANCH  22  23
BRANCH  22  25
ATOM     25  C   LIG    1      -39.528  73.849  25.029  0.00  0.00    +0.150 C 
BRANCH  25  26
ATOM     26  C   LIG    1      -39.524  75.275  24.551  0.00  0.00    +0.050 A 
ATOM     27  N   LIG    1      -38.439  76.025  24.882  0.00  0.00    -0.258 NA
ATOM     28  C   LIG    1      -38.437  77.318  24.463  0.00  0.00    +0.131 A 
ATOM     29  C   LIG    1      -39.479  77.905  23.765  0.00  0.00    +0.059 A 
ATOM     30 CL   LIG    1      -39.404  79.547  23.272  0.00  0.00    -0.082 Cl
ATOM     31  C   LIG    1      -40.594  77.130  23.471  0.00  0.00    +0.023 A 
ATOM     32  C   LIG    1      -40.621  75.796  23.872  0.00  0.00    +0.025 A 
ENDBRANCH  25  26
ENDBRANCH  22  25
ENDBRANCH   3  21
TORSDOF 7
ENDMDL
