MODEL 1
REMARK VINA RESULT:      -6.2      0.000      0.000
REMARK  Name = pdb/CHEMBL1230609.pdb
REMARK                            x       y       z     vdW  Elec       q    Type
REMARK                         _______ _______ _______ _____ _____    ______ ____
ROOT
ATOM      1  C   LIG    1      -39.384  71.576  24.524  0.00  0.00    +0.164 A 
ATOM      2  C   LIG    1      -38.292  71.844  25.361  0.00  0.00    +0.167 A 
ATOM      3  F   LIG    1      -37.642  70.831  25.958  0.00  0.00    -0.202 F 
ATOM      4  C   LIG    1      -37.855  73.150  25.612  0.00  0.00    +0.065 A 
ATOM      5  C   LIG    1      -38.543  74.230  25.058  0.00  0.00    +0.036 A 
ATOM      6  C   LIG    1      -39.629  73.998  24.224  0.00  0.00    +0.027 A 
ATOM      7  C   LIG    1      -40.035  72.680  23.943  0.00  0.00    +0.051 A 
ENDROOT
BRANCH   5   8
ATOM      8  N   LIG    1      -38.218  75.536  25.468  0.00  0.00    -0.285 N 
ATOM      9  H   LIG    1      -37.241  75.787  25.412  0.00  0.00    +0.155 HD
ATOM     10  C   LIG    1      -38.828  76.101  26.579  0.00  0.00    +0.232 C 
ATOM     11  O   LIG    1      -39.720  75.564  27.244  0.00  0.00    -0.274 OA
BRANCH  10  12
ATOM     12  C   LIG    1      -38.320  77.428  27.008  0.00  0.00    +0.123 C 
ATOM     13  C   LIG    1      -39.343  78.491  27.415  0.00  0.00    +0.027 C 
ATOM     14  C   LIG    1      -38.655  78.614  26.093  0.00  0.00    +0.027 C 
BRANCH  12  15
ATOM     15  C   LIG    1      -37.004  77.473  27.714  0.00  0.00    +0.232 C 
ATOM     16  N   LIG    1      -35.904  76.997  27.018  0.00  0.00    -0.285 N 
ATOM     17  H   LIG    1      -36.008  76.808  26.024  0.00  0.00    +0.155 HD
ATOM     18  O   LIG    1      -36.990  77.942  28.853  0.00  0.00    -0.274 OA
BRANCH  16  19
ATOM     19  C   LIG    1      -34.624  76.825  27.597  0.00  0.00    +0.034 A 
ATOM     20  C   LIG    1      -33.679  77.855  27.517  0.00  0.00    +0.026 A 
ATOM     21  C   LIG    1      -32.402  77.681  28.075  0.00  0.00    +0.040 A 
ATOM     22  C   LIG    1      -32.067  76.471  28.677  0.00  0.00    +0.124 A 
ATOM     23  F   LIG    1      -30.838  76.294  29.177  0.00  0.00    -0.205 F 
ATOM     24  C   LIG    1      -32.988  75.441  28.755  0.00  0.00    +0.040 A 
ATOM     25  C   LIG    1      -34.260  75.624  28.220  0.00  0.00    +0.026 A 
ENDBRANCH  16  19
ENDBRANCH  12  15
ENDBRANCH  10  12
ENDBRANCH   5   8
BRANCH   1  26
ATOM     26  O   LIG    1      -39.781  70.245  24.366  0.00  0.00    -0.452 OA
BRANCH  26  34
ATOM     27  C   LIG    1      -36.048  68.153  23.016  0.00  0.00    +0.162 A 
ATOM     28  C   LIG    1      -36.219  67.280  21.930  0.00  0.00    +0.164 A 
ATOM     29  C   LIG    1      -37.490  67.209  21.356  0.00  0.00    +0.077 A 
ATOM     30  C   LIG    1      -38.519  68.076  21.682  0.00  0.00    +0.078 A 
ATOM     31  N   LIG    1      -39.556  68.086  20.837  0.00  0.00    -0.255 NA
ATOM     32  C   LIG    1      -40.534  68.982  21.044  0.00  0.00    +0.115 A 
ATOM     33  C   LIG    1      -40.615  69.760  22.171  0.00  0.00    +0.066 A 
ATOM     34  C   LIG    1      -39.609  69.638  23.129  0.00  0.00    +0.139 A 
ATOM     35  C   LIG    1      -38.420  68.904  22.812  0.00  0.00    +0.046 A 
ATOM     36  C   LIG    1      -37.155  68.926  23.471  0.00  0.00    +0.063 A 
BRANCH  27  38
ATOM     37  C   LIG    1      -35.022  68.779  25.093  0.00  0.00    +0.277 C 
ATOM     38  O   LIG    1      -34.898  68.392  23.729  0.00  0.00    -0.491 OA
ENDBRANCH  27  38
BRANCH  28  39
ATOM     39  O   LIG    1      -35.180  66.514  21.433  0.00  0.00    -0.488 OA
BRANCH  39  40
ATOM     40  C   LIG    1      -35.328  65.083  21.599  0.00  0.00    +0.230 C 
BRANCH  40  41
ATOM     41  C   LIG    1      -34.966  64.327  20.318  0.00  0.00    +0.056 C 
BRANCH  41  42
ATOM     42  C   LIG    1      -34.989  65.218  19.052  0.00  0.00    +0.088 C 
BRANCH  42  43
ATOM     43  N   LIG    1      -35.855  64.786  17.936  0.00  0.00    -0.298 NA
ATOM     44  C   LIG    1      -35.386  65.203  16.594  0.00  0.00    +0.112 C 
ATOM     45  C   LIG    1      -35.488  66.718  16.356  0.00  0.00    +0.175 C 
ATOM     46  O   LIG    1      -36.849  67.150  16.468  0.00  0.00    -0.377 OA
ATOM     47  C   LIG    1      -37.386  66.823  17.756  0.00  0.00    +0.175 C 
ATOM     48  C   LIG    1      -37.236  65.321  18.089  0.00  0.00    +0.112 C 
ENDBRANCH  42  43
ENDBRANCH  41  42
ENDBRANCH  40  41
ENDBRANCH  39  40
ENDBRANCH  28  39
ENDBRANCH  26  34
ENDBRANCH   1  26
TORSDOF 12
ENDMDL
MODEL 2
REMARK VINA RESULT:      -6.2      3.205      4.812
REMARK  Name = pdb/CHEMBL1230609.pdb
REMARK                            x       y       z     vdW  Elec       q    Type
REMARK                         _______ _______ _______ _____ _____    ______ ____
ROOT
ATOM      1  C   LIG    1      -39.564  74.636  25.590  0.00  0.00    +0.164 A 
ATOM      2  C   LIG    1      -38.746  74.224  26.651  0.00  0.00    +0.167 A 
ATOM      3  F   LIG    1      -39.182  73.284  27.506  0.00  0.00    -0.202 F 
ATOM      4  C   LIG    1      -37.477  74.775  26.863  0.00  0.00    +0.065 A 
ATOM      5  C   LIG    1      -37.015  75.797  26.032  0.00  0.00    +0.036 A 
ATOM      6  C   LIG    1      -37.802  76.226  24.971  0.00  0.00    +0.027 A 
ATOM      7  C   LIG    1      -39.059  75.638  24.739  0.00  0.00    +0.051 A 
ENDROOT
BRANCH   5   8
ATOM      8  N   LIG    1      -35.829  76.472  26.367  0.00  0.00    -0.285 N 
ATOM      9  H   LIG    1      -34.982  75.923  26.336  0.00  0.00    +0.155 HD
ATOM     10  C   LIG    1      -35.806  77.387  27.411  0.00  0.00    +0.232 C 
ATOM     11  O   LIG    1      -36.793  77.727  28.072  0.00  0.00    -0.274 OA
BRANCH  10  12
ATOM     12  C   LIG    1      -34.479  77.946  27.772  0.00  0.00    +0.123 C 
ATOM     13  C   LIG    1      -33.235  77.131  27.409  0.00  0.00    +0.027 C 
ATOM     14  C   LIG    1      -33.683  77.179  28.836  0.00  0.00    +0.027 C 
BRANCH  12  15
ATOM     15  C   LIG    1      -34.325  79.432  27.756  0.00  0.00    +0.232 C 
ATOM     16  N   LIG    1      -35.047  80.146  28.700  0.00  0.00    -0.285 N 
ATOM     17  H   LIG    1      -35.499  79.631  29.451  0.00  0.00    +0.155 HD
ATOM     18  O   LIG    1      -33.557  79.910  26.920  0.00  0.00    -0.274 OA
BRANCH  16  19
ATOM     19  C   LIG    1      -35.132  81.559  28.716  0.00  0.00    +0.034 A 
ATOM     20  C   LIG    1      -34.458  82.286  29.704  0.00  0.00    +0.026 A 
ATOM     21  C   LIG    1      -34.556  83.686  29.734  0.00  0.00    +0.040 A 
ATOM     22  C   LIG    1      -35.351  84.347  28.801  0.00  0.00    +0.124 A 
ATOM     23  F   LIG    1      -35.472  85.679  28.852  0.00  0.00    -0.205 F 
ATOM     24  C   LIG    1      -36.031  83.640  27.824  0.00  0.00    +0.040 A 
ATOM     25  C   LIG    1      -35.915  82.253  27.783  0.00  0.00    +0.026 A 
ENDBRANCH  16  19
ENDBRANCH  12  15
ENDBRANCH  10  12
ENDBRANCH   5   8
BRANCH   1  26
ATOM     26  O   LIG    1      -40.836  74.066  25.479  0.00  0.00    -0.452 OA
BRANCH  26  34
ATOM     27  C   LIG    1      -39.056  70.288  23.837  0.00  0.00    +0.162 A 
ATOM     28  C   LIG    1      -39.826  69.653  22.850  0.00  0.00    +0.164 A 
ATOM     29  C   LIG    1      -41.003  70.286  22.445  0.00  0.00    +0.077 A 
ATOM     30  C   LIG    1      -41.344  71.571  22.830  0.00  0.00    +0.078 A 
ATOM     31  N   LIG    1      -42.323  72.146  22.123  0.00  0.00    -0.255 NA
ATOM     32  C   LIG    1      -42.623  73.429  22.381  0.00  0.00    +0.115 A 
ATOM     33  C   LIG    1      -42.109  74.121  23.448  0.00  0.00    +0.066 A 
ATOM     34  C   LIG    1      -41.199  73.468  24.280  0.00  0.00    +0.139 A 
ATOM     35  C   LIG    1      -40.652  72.208  23.874  0.00  0.00    +0.046 A 
ATOM     36  C   LIG    1      -39.495  71.536  24.367  0.00  0.00    +0.063 A 
BRANCH  27  38
ATOM     37  C   LIG    1      -37.891  69.320  25.697  0.00  0.00    +0.277 C 
ATOM     38  O   LIG    1      -37.869  69.861  24.382  0.00  0.00    -0.491 OA
ENDBRANCH  27  38
BRANCH  28  39
ATOM     39  O   LIG    1      -39.447  68.447  22.286  0.00  0.00    -0.488 OA
BRANCH  39  40
ATOM     40  C   LIG    1      -39.154  68.489  20.869  0.00  0.00    +0.230 C 
BRANCH  40  41
ATOM     41  C   LIG    1      -37.700  68.894  20.607  0.00  0.00    +0.056 C 
BRANCH  41  42
ATOM     42  C   LIG    1      -36.682  68.116  21.475  0.00  0.00    +0.088 C 
BRANCH  42  43
ATOM     43  N   LIG    1      -36.551  66.665  21.231  0.00  0.00    -0.298 NA
ATOM     44  C   LIG    1      -35.437  66.015  21.957  0.00  0.00    +0.112 C 
ATOM     45  C   LIG    1      -34.049  66.433  21.447  0.00  0.00    +0.175 C 
ATOM     46  O   LIG    1      -33.898  66.082  20.067  0.00  0.00    -0.377 OA
ATOM     47  C   LIG    1      -34.916  66.698  19.268  0.00  0.00    +0.175 C 
ATOM     48  C   LIG    1      -36.338  66.382  19.784  0.00  0.00    +0.112 C 
ENDBRANCH  42  43
ENDBRANCH  41  42
ENDBRANCH  40  41
ENDBRANCH  39  40
ENDBRANCH  28  39
ENDBRANCH  26  34
ENDBRANCH   1  26
TORSDOF 12
ENDMDL
MODEL 3
REMARK VINA RESULT:      -6.2      5.478      9.186
REMARK  Name = pdb/CHEMBL1230609.pdb
REMARK                            x       y       z     vdW  Elec       q    Type
REMARK                         _______ _______ _______ _____ _____    ______ ____
ROOT
ATOM      1  C   LIG    1      -33.166  77.539  28.589  0.00  0.00    +0.164 A 
ATOM      2  C   LIG    1      -32.817  78.265  27.442  0.00  0.00    +0.167 A 
ATOM      3  F   LIG    1      -31.951  77.743  26.557  0.00  0.00    -0.202 F 
ATOM      4  C   LIG    1      -33.335  79.540  27.187  0.00  0.00    +0.065 A 
ATOM      5  C   LIG    1      -34.190  80.140  28.113  0.00  0.00    +0.036 A 
ATOM      6  C   LIG    1      -34.556  79.445  29.259  0.00  0.00    +0.027 A 
ATOM      7  C   LIG    1      -34.064  78.147  29.487  0.00  0.00    +0.051 A 
ENDROOT
BRANCH   5   8
ATOM      8  N   LIG    1      -34.550  81.488  27.943  0.00  0.00    -0.285 N 
ATOM      9  H   LIG    1      -34.196  82.132  28.635  0.00  0.00    +0.155 HD
ATOM     10  C   LIG    1      -35.832  81.831  27.536  0.00  0.00    +0.232 C 
ATOM     11  O   LIG    1      -36.717  81.023  27.235  0.00  0.00    -0.274 OA
BRANCH  10  12
ATOM     12  C   LIG    1      -36.153  83.280  27.515  0.00  0.00    +0.123 C 
ATOM     13  C   LIG    1      -37.557  83.698  27.072  0.00  0.00    +0.027 C 
ATOM     14  C   LIG    1      -36.409  83.901  26.135  0.00  0.00    +0.027 C 
BRANCH  12  15
ATOM     15  C   LIG    1      -35.494  84.152  28.534  0.00  0.00    +0.232 C 
ATOM     16  N   LIG    1      -34.535  85.040  28.072  0.00  0.00    -0.285 N 
ATOM     17  H   LIG    1      -34.451  85.178  27.068  0.00  0.00    +0.155 HD
ATOM     18  O   LIG    1      -35.862  84.029  29.703  0.00  0.00    -0.274 OA
BRANCH  16  19
ATOM     19  C   LIG    1      -33.713  85.817  28.923  0.00  0.00    +0.034 A 
ATOM     20  C   LIG    1      -32.612  85.228  29.557  0.00  0.00    +0.026 A 
ATOM     21  C   LIG    1      -31.805  85.991  30.415  0.00  0.00    +0.040 A 
ATOM     22  C   LIG    1      -32.121  87.325  30.662  0.00  0.00    +0.124 A 
ATOM     23  F   LIG    1      -31.372  88.042  31.508  0.00  0.00    -0.205 F 
ATOM     24  C   LIG    1      -33.211  87.918  30.049  0.00  0.00    +0.040 A 
ATOM     25  C   LIG    1      -33.998  87.165  29.181  0.00  0.00    +0.026 A 
ENDBRANCH  16  19
ENDBRANCH  12  15
ENDBRANCH  10  12
ENDBRANCH   5   8
BRANCH   1  26
ATOM     26  O   LIG    1      -32.565  76.292  28.787  0.00  0.00    -0.452 OA
BRANCH  26  34
ATOM     27  C   LIG    1      -31.285  72.142  29.915  0.00  0.00    +0.162 A 
ATOM     28  C   LIG    1      -32.330  71.212  30.031  0.00  0.00    +0.164 A 
ATOM     29  C   LIG    1      -33.620  71.652  29.724  0.00  0.00    +0.077 A 
ATOM     30  C   LIG    1      -33.884  72.881  29.146  0.00  0.00    +0.078 A 
ATOM     31  N   LIG    1      -35.109  73.027  28.630  0.00  0.00    -0.255 NA
ATOM     32  C   LIG    1      -35.388  74.158  27.963  0.00  0.00    +0.115 A 
ATOM     33  C   LIG    1      -34.548  75.242  27.940  0.00  0.00    +0.066 A 
ATOM     34  C   LIG    1      -33.329  75.146  28.611  0.00  0.00    +0.139 A 
ATOM     35  C   LIG    1      -32.887  73.870  29.089  0.00  0.00    +0.046 A 
ATOM     36  C   LIG    1      -31.577  73.469  29.484  0.00  0.00    +0.063 A 
BRANCH  27  38
ATOM     37  C   LIG    1      -29.358  72.599  31.269  0.00  0.00    +0.277 C 
ATOM     38  O   LIG    1      -29.948  71.938  30.156  0.00  0.00    -0.491 OA
ENDBRANCH  27  38
BRANCH  28  39
ATOM     39  O   LIG    1      -32.110  69.905  30.431  0.00  0.00    -0.488 OA
BRANCH  39  40
ATOM     40  C   LIG    1      -32.133  68.920  29.370  0.00  0.00    +0.230 C 
BRANCH  40  41
ATOM     41  C   LIG    1      -33.391  68.049  29.438  0.00  0.00    +0.056 C 
BRANCH  41  42
ATOM     42  C   LIG    1      -33.833  67.500  28.060  0.00  0.00    +0.088 C 
BRANCH  42  43
ATOM     43  N   LIG    1      -35.077  68.046  27.480  0.00  0.00    -0.298 NA
ATOM     44  C   LIG    1      -35.569  67.325  26.285  0.00  0.00    +0.112 C 
ATOM     45  C   LIG    1      -34.672  67.506  25.050  0.00  0.00    +0.175 C 
ATOM     46  O   LIG    1      -34.594  68.891  24.690  0.00  0.00    -0.377 OA
ATOM     47  C   LIG    1      -34.088  69.675  25.779  0.00  0.00    +0.175 C 
ATOM     48  C   LIG    1      -34.902  69.469  27.077  0.00  0.00    +0.112 C 
ENDBRANCH  42  43
ENDBRANCH  41  42
ENDBRANCH  40  41
ENDBRANCH  39  40
ENDBRANCH  28  39
ENDBRANCH  26  34
ENDBRANCH   1  26
TORSDOF 12
ENDMDL
MODEL 4
REMARK VINA RESULT:      -6.2      3.126     11.797
REMARK  Name = pdb/CHEMBL1230609.pdb
REMARK                            x       y       z     vdW  Elec       q    Type
REMARK                         _______ _______ _______ _____ _____    ______ ____
ROOT
ATOM      1  C   LIG    1      -32.799  73.375  29.026  0.00  0.00    +0.164 A 
ATOM      2  C   LIG    1      -33.794  73.308  28.042  0.00  0.00    +0.167 A 
ATOM      3  F   LIG    1      -34.307  74.439  27.529  0.00  0.00    -0.202 F 
ATOM      4  C   LIG    1      -34.292  72.085  27.575  0.00  0.00    +0.065 A 
ATOM      5  C   LIG    1      -33.827  70.891  28.128  0.00  0.00    +0.036 A 
ATOM      6  C   LIG    1      -32.839  70.925  29.104  0.00  0.00    +0.027 A 
ATOM      7  C   LIG    1      -32.315  72.156  29.537  0.00  0.00    +0.051 A 
ENDROOT
BRANCH   5   8
ATOM      8  N   LIG    1      -34.465  69.684  27.793  0.00  0.00    -0.285 N 
ATOM      9  H   LIG    1      -34.537  69.000  28.532  0.00  0.00    +0.155 HD
ATOM     10  C   LIG    1      -34.239  69.082  26.562  0.00  0.00    +0.232 C 
ATOM     11  O   LIG    1      -33.541  69.560  25.661  0.00  0.00    -0.274 OA
BRANCH  10  12
ATOM     12  C   LIG    1      -34.854  67.747  26.356  0.00  0.00    +0.123 C 
ATOM     13  C   LIG    1      -35.257  66.944  27.595  0.00  0.00    +0.027 C 
ATOM     14  C   LIG    1      -34.036  66.540  26.832  0.00  0.00    +0.027 C 
BRANCH  12  15
ATOM     15  C   LIG    1      -35.697  67.551  25.137  0.00  0.00    +0.232 C 
ATOM     16  N   LIG    1      -35.162  67.979  23.932  0.00  0.00    -0.285 N 
ATOM     17  H   LIG    1      -34.179  68.237  23.906  0.00  0.00    +0.155 HD
ATOM     18  O   LIG    1      -36.793  67.012  25.291  0.00  0.00    -0.274 OA
BRANCH  16  19
ATOM     19  C   LIG    1      -35.891  68.009  22.719  0.00  0.00    +0.034 A 
ATOM     20  C   LIG    1      -36.959  68.902  22.570  0.00  0.00    +0.026 A 
ATOM     21  C   LIG    1      -37.696  68.922  21.376  0.00  0.00    +0.040 A 
ATOM     22  C   LIG    1      -37.385  68.030  20.353  0.00  0.00    +0.124 A 
ATOM     23  F   LIG    1      -38.111  68.025  19.228  0.00  0.00    -0.205 F 
ATOM     24  C   LIG    1      -36.338  67.135  20.489  0.00  0.00    +0.040 A 
ATOM     25  C   LIG    1      -35.595  67.132  21.667  0.00  0.00    +0.026 A 
ENDBRANCH  16  19
ENDBRANCH  12  15
ENDBRANCH  10  12
ENDBRANCH   5   8
BRANCH   1  26
ATOM     26  O   LIG    1      -32.394  74.639  29.467  0.00  0.00    -0.452 OA
BRANCH  26  34
ATOM     27  C   LIG    1      -34.234  78.526  28.183  0.00  0.00    +0.162 A 
ATOM     28  C   LIG    1      -35.376  78.906  28.906  0.00  0.00    +0.164 A 
ATOM     29  C   LIG    1      -35.769  78.087  29.967  0.00  0.00    +0.077 A 
ATOM     30  C   LIG    1      -34.997  77.043  30.444  0.00  0.00    +0.078 A 
ATOM     31  N   LIG    1      -35.350  76.562  31.641  0.00  0.00    -0.255 NA
ATOM     32  C   LIG    1      -34.575  75.621  32.202  0.00  0.00    +0.115 A 
ATOM     33  C   LIG    1      -33.548  75.000  31.538  0.00  0.00    +0.066 A 
ATOM     34  C   LIG    1      -33.275  75.396  30.229  0.00  0.00    +0.139 A 
ATOM     35  C   LIG    1      -33.895  76.577  29.707  0.00  0.00    +0.046 A 
ATOM     36  C   LIG    1      -33.529  77.347  28.564  0.00  0.00    +0.063 A 
BRANCH  27  38
ATOM     37  C   LIG    1      -32.442  78.657  26.594  0.00  0.00    +0.277 C 
ATOM     38  O   LIG    1      -33.661  79.172  27.115  0.00  0.00    -0.491 OA
ENDBRANCH  27  38
BRANCH  28  39
ATOM     39  O   LIG    1      -36.096  80.046  28.595  0.00  0.00    -0.488 OA
BRANCH  39  40
ATOM     40  C   LIG    1      -37.043  79.906  27.509  0.00  0.00    +0.230 C 
BRANCH  40  41
ATOM     41  C   LIG    1      -38.311  79.174  27.959  0.00  0.00    +0.056 C 
BRANCH  41  42
ATOM     42  C   LIG    1      -38.600  77.889  27.147  0.00  0.00    +0.088 C 
BRANCH  42  43
ATOM     43  N   LIG    1      -37.617  77.506  26.112  0.00  0.00    -0.298 NA
ATOM     44  C   LIG    1      -38.208  77.130  24.808  0.00  0.00    +0.112 C 
ATOM     45  C   LIG    1      -38.985  75.804  24.850  0.00  0.00    +0.175 C 
ATOM     46  O   LIG    1      -38.119  74.731  25.233  0.00  0.00    -0.377 OA
ATOM     47  C   LIG    1      -37.521  74.985  26.511  0.00  0.00    +0.175 C 
ATOM     48  C   LIG    1      -36.793  76.348  26.557  0.00  0.00    +0.112 C 
ENDBRANCH  42  43
ENDBRANCH  41  42
ENDBRANCH  40  41
ENDBRANCH  39  40
ENDBRANCH  28  39
ENDBRANCH  26  34
ENDBRANCH   1  26
TORSDOF 12
ENDMDL
MODEL 5
REMARK VINA RESULT:      -6.1      4.118     13.412
REMARK  Name = pdb/CHEMBL1230609.pdb
REMARK                            x       y       z     vdW  Elec       q    Type
REMARK                         _______ _______ _______ _____ _____    ______ ____
ROOT
ATOM      1  C   LIG    1      -34.009  75.224  28.946  0.00  0.00    +0.164 A 
ATOM      2  C   LIG    1      -32.970  74.289  29.052  0.00  0.00    +0.167 A 
ATOM      3  F   LIG    1      -31.800  74.648  29.606  0.00  0.00    -0.202 F 
ATOM      4  C   LIG    1      -33.105  72.977  28.582  0.00  0.00    +0.065 A 
ATOM      5  C   LIG    1      -34.284  72.585  27.946  0.00  0.00    +0.036 A 
ATOM      6  C   LIG    1      -35.332  73.489  27.827  0.00  0.00    +0.027 A 
ATOM      7  C   LIG    1      -35.204  74.793  28.339  0.00  0.00    +0.051 A 
ENDROOT
BRANCH   5   8
ATOM      8  N   LIG    1      -34.338  71.332  27.311  0.00  0.00    -0.285 N 
ATOM      9  H   LIG    1      -34.798  71.311  26.412  0.00  0.00    +0.155 HD
ATOM     10  C   LIG    1      -34.591  70.179  28.041  0.00  0.00    +0.232 C 
ATOM     11  O   LIG    1      -34.721  70.136  29.270  0.00  0.00    -0.274 OA
BRANCH  10  12
ATOM     12  C   LIG    1      -34.760  68.927  27.262  0.00  0.00    +0.123 C 
ATOM     13  C   LIG    1      -35.457  67.747  27.943  0.00  0.00    +0.027 C 
ATOM     14  C   LIG    1      -33.974  67.706  27.756  0.00  0.00    +0.027 C 
BRANCH  12  15
ATOM     15  C   LIG    1      -34.958  69.050  25.786  0.00  0.00    +0.232 C 
ATOM     16  N   LIG    1      -36.151  68.565  25.272  0.00  0.00    -0.285 N 
ATOM     17  H   LIG    1      -36.890  68.315  25.925  0.00  0.00    +0.155 HD
ATOM     18  O   LIG    1      -34.058  69.586  25.139  0.00  0.00    -0.274 OA
BRANCH  16  19
ATOM     19  C   LIG    1      -36.424  68.463  23.887  0.00  0.00    +0.034 A 
ATOM     20  C   LIG    1      -37.395  69.288  23.306  0.00  0.00    +0.026 A 
ATOM     21  C   LIG    1      -37.681  69.176  21.936  0.00  0.00    +0.040 A 
ATOM     22  C   LIG    1      -37.021  68.223  21.164  0.00  0.00    +0.124 A 
ATOM     23  F   LIG    1      -37.320  68.093  19.866  0.00  0.00    -0.205 F 
ATOM     24  C   LIG    1      -36.066  67.395  21.727  0.00  0.00    +0.040 A 
ATOM     25  C   LIG    1      -35.769  67.521  23.082  0.00  0.00    +0.026 A 
ENDBRANCH  16  19
ENDBRANCH  12  15
ENDBRANCH  10  12
ENDBRANCH   5   8
BRANCH   1  26
ATOM     26  O   LIG    1      -33.772  76.525  29.399  0.00  0.00    -0.452 OA
BRANCH  26  34
ATOM     27  C   LIG    1      -36.714  79.889  28.987  0.00  0.00    +0.162 A 
ATOM     28  C   LIG    1      -36.237  81.008  28.285  0.00  0.00    +0.164 A 
ATOM     29  C   LIG    1      -34.953  80.928  27.743  0.00  0.00    +0.077 A 
ATOM     30  C   LIG    1      -34.216  79.758  27.708  0.00  0.00    +0.078 A 
ATOM     31  N   LIG    1      -33.157  79.765  26.891  0.00  0.00    -0.255 NA
ATOM     32  C   LIG    1      -32.466  78.624  26.736  0.00  0.00    +0.115 A 
ATOM     33  C   LIG    1      -32.677  77.508  27.505  0.00  0.00    +0.066 A 
ATOM     34  C   LIG    1      -33.685  77.552  28.468  0.00  0.00    +0.139 A 
ATOM     35  C   LIG    1      -34.613  78.644  28.467  0.00  0.00    +0.046 A 
ATOM     36  C   LIG    1      -35.885  78.736  29.106  0.00  0.00    +0.063 A 
BRANCH  27  38
ATOM     37  C   LIG    1      -38.925  78.963  28.927  0.00  0.00    +0.277 C 
ATOM     38  O   LIG    1      -37.936  79.736  29.595  0.00  0.00    -0.491 OA
ENDBRANCH  27  38
BRANCH  28  39
ATOM     39  O   LIG    1      -36.999  82.152  28.123  0.00  0.00    -0.488 OA
BRANCH  39  40
ATOM     40  C   LIG    1      -36.337  83.392  28.468  0.00  0.00    +0.230 C 
BRANCH  40  41
ATOM     41  C   LIG    1      -37.222  84.605  28.167  0.00  0.00    +0.056 C 
BRANCH  41  42
ATOM     42  C   LIG    1      -37.830  84.583  26.745  0.00  0.00    +0.088 C 
BRANCH  42  43
ATOM     43  N   LIG    1      -36.896  84.431  25.611  0.00  0.00    -0.298 NA
ATOM     44  C   LIG    1      -36.354  85.704  25.082  0.00  0.00    +0.112 C 
ATOM     45  C   LIG    1      -37.407  86.564  24.364  0.00  0.00    +0.175 C 
ATOM     46  O   LIG    1      -37.951  85.854  23.246  0.00  0.00    -0.377 OA
ATOM     47  C   LIG    1      -38.538  84.614  23.663  0.00  0.00    +0.175 C 
ATOM     48  C   LIG    1      -37.549  83.739  24.465  0.00  0.00    +0.112 C 
ENDBRANCH  42  43
ENDBRANCH  41  42
ENDBRANCH  40  41
ENDBRANCH  39  40
ENDBRANCH  28  39
ENDBRANCH  26  34
ENDBRANCH   1  26
TORSDOF 12
ENDMDL
MODEL 6
REMARK VINA RESULT:      -6.1      9.985     14.326
REMARK  Name = pdb/CHEMBL1230609.pdb
REMARK                            x       y       z     vdW  Elec       q    Type
REMARK                         _______ _______ _______ _____ _____    ______ ____
ROOT
ATOM      1  C   LIG    1      -32.511  75.890  30.077  0.00  0.00    +0.164 A 
ATOM      2  C   LIG    1      -32.522  76.447  31.363  0.00  0.00    +0.167 A 
ATOM      3  F   LIG    1      -33.585  77.158  31.776  0.00  0.00    -0.202 F 
ATOM      4  C   LIG    1      -31.443  76.300  32.242  0.00  0.00    +0.065 A 
ATOM      5  C   LIG    1      -30.297  75.621  31.826  0.00  0.00    +0.036 A 
ATOM      6  C   LIG    1      -30.256  75.056  30.558  0.00  0.00    +0.027 A 
ATOM      7  C   LIG    1      -31.361  75.173  29.696  0.00  0.00    +0.051 A 
ENDROOT
BRANCH   5   8
ATOM      8  N   LIG    1      -29.151  75.643  32.641  0.00  0.00    -0.285 N 
ATOM      9  H   LIG    1      -29.289  75.382  33.607  0.00  0.00    +0.155 HD
ATOM     10  C   LIG    1      -28.213  76.659  32.516  0.00  0.00    +0.232 C 
ATOM     11  O   LIG    1      -28.260  77.562  31.673  0.00  0.00    -0.274 OA
BRANCH  10  12
ATOM     12  C   LIG    1      -27.111  76.667  33.510  0.00  0.00    +0.123 C 
ATOM     13  C   LIG    1      -27.389  76.082  34.896  0.00  0.00    +0.027 C 
ATOM     14  C   LIG    1      -27.306  77.567  34.737  0.00  0.00    +0.027 C 
BRANCH  12  15
ATOM     15  C   LIG    1      -25.714  76.519  32.998  0.00  0.00    +0.232 C 
ATOM     16  N   LIG    1      -25.225  77.548  32.208  0.00  0.00    -0.285 N 
ATOM     17  H   LIG    1      -25.758  78.413  32.160  0.00  0.00    +0.155 HD
ATOM     18  O   LIG    1      -25.098  75.505  33.327  0.00  0.00    -0.274 OA
BRANCH  16  19
ATOM     19  C   LIG    1      -23.989  77.488  31.521  0.00  0.00    +0.034 A 
ATOM     20  C   LIG    1      -23.967  77.204  30.151  0.00  0.00    +0.026 A 
ATOM     21  C   LIG    1      -22.742  77.125  29.470  0.00  0.00    +0.040 A 
ATOM     22  C   LIG    1      -21.548  77.298  30.167  0.00  0.00    +0.124 A 
ATOM     23  F   LIG    1      -20.379  77.187  29.524  0.00  0.00    -0.205 F 
ATOM     24  C   LIG    1      -21.554  77.570  31.524  0.00  0.00    +0.040 A 
ATOM     25  C   LIG    1      -22.772  77.669  32.192  0.00  0.00    +0.026 A 
ENDBRANCH  16  19
ENDBRANCH  12  15
ENDBRANCH  10  12
ENDBRANCH   5   8
BRANCH   1  26
ATOM     26  O   LIG    1      -33.612  76.127  29.248  0.00  0.00    -0.452 OA
BRANCH  26  34
ATOM     27  C   LIG    1      -36.042  79.877  29.659  0.00  0.00    +0.162 A 
ATOM     28  C   LIG    1      -35.563  80.974  28.925  0.00  0.00    +0.164 A 
ATOM     29  C   LIG    1      -34.448  80.767  28.111  0.00  0.00    +0.077 A 
ATOM     30  C   LIG    1      -33.916  79.515  27.857  0.00  0.00    +0.078 A 
ATOM     31  N   LIG    1      -33.064  79.445  26.829  0.00  0.00    -0.255 NA
ATOM     32  C   LIG    1      -32.599  78.238  26.470  0.00  0.00    +0.115 A 
ATOM     33  C   LIG    1      -32.806  77.102  27.211  0.00  0.00    +0.066 A 
ATOM     34  C   LIG    1      -33.571  77.204  28.373  0.00  0.00    +0.139 A 
ATOM     35  C   LIG    1      -34.306  78.407  28.629  0.00  0.00    +0.046 A 
ATOM     36  C   LIG    1      -35.387  78.617  29.535  0.00  0.00    +0.063 A 
BRANCH  27  38
ATOM     37  C   LIG    1      -38.126  78.866  30.279  0.00  0.00    +0.277 C 
ATOM     38  O   LIG    1      -37.117  79.841  30.512  0.00  0.00    -0.491 OA
ENDBRANCH  27  38
BRANCH  28  39
ATOM     39  O   LIG    1      -36.163  82.220  28.991  0.00  0.00    -0.488 OA
BRANCH  39  40
ATOM     40  C   LIG    1      -35.255  83.340  29.118  0.00  0.00    +0.230 C 
BRANCH  40  41
ATOM     41  C   LIG    1      -35.990  84.677  28.984  0.00  0.00    +0.056 C 
BRANCH  41  42
ATOM     42  C   LIG    1      -37.111  84.657  27.917  0.00  0.00    +0.088 C 
BRANCH  42  43
ATOM     43  N   LIG    1      -36.894  85.452  26.691  0.00  0.00    -0.298 NA
ATOM     44  C   LIG    1      -38.132  85.821  25.968  0.00  0.00    +0.112 C 
ATOM     45  C   LIG    1      -38.836  84.623  25.311  0.00  0.00    +0.175 C 
ATOM     46  O   LIG    1      -37.972  84.000  24.354  0.00  0.00    -0.377 OA
ATOM     47  C   LIG    1      -36.750  83.570  24.970  0.00  0.00    +0.175 C 
ATOM     48  C   LIG    1      -36.037  84.717  25.720  0.00  0.00    +0.112 C 
ENDBRANCH  42  43
ENDBRANCH  41  42
ENDBRANCH  40  41
ENDBRANCH  39  40
ENDBRANCH  28  39
ENDBRANCH  26  34
ENDBRANCH   1  26
TORSDOF 12
ENDMDL
MODEL 7
REMARK VINA RESULT:      -6.1      3.932     10.809
REMARK  Name = pdb/CHEMBL1230609.pdb
REMARK                            x       y       z     vdW  Elec       q    Type
REMARK                         _______ _______ _______ _____ _____    ______ ____
ROOT
ATOM      1  C   LIG    1      -38.611  67.955  21.771  0.00  0.00    +0.164 A 
ATOM      2  C   LIG    1      -38.020  66.686  21.844  0.00  0.00    +0.167 A 
ATOM      3  F   LIG    1      -38.380  65.835  22.819  0.00  0.00    -0.202 F 
ATOM      4  C   LIG    1      -37.042  66.272  20.932  0.00  0.00    +0.065 A 
ATOM      5  C   LIG    1      -36.599  67.152  19.942  0.00  0.00    +0.036 A 
ATOM      6  C   LIG    1      -37.166  68.415  19.843  0.00  0.00    +0.027 A 
ATOM      7  C   LIG    1      -38.178  68.809  20.738  0.00  0.00    +0.051 A 
ENDROOT
BRANCH   5   8
ATOM      8  N   LIG    1      -35.488  66.798  19.156  0.00  0.00    -0.285 N 
ATOM      9  H   LIG    1      -35.640  66.064  18.480  0.00  0.00    +0.155 HD
ATOM     10  C   LIG    1      -34.220  66.722  19.716  0.00  0.00    +0.232 C 
ATOM     11  O   LIG    1      -33.948  67.008  20.888  0.00  0.00    -0.274 OA
BRANCH  10  12
ATOM     12  C   LIG    1      -33.139  66.212  18.837  0.00  0.00    +0.123 C 
ATOM     13  C   LIG    1      -33.404  64.932  18.041  0.00  0.00    +0.027 C 
ATOM     14  C   LIG    1      -32.510  64.872  19.238  0.00  0.00    +0.027 C 
BRANCH  12  15
ATOM     15  C   LIG    1      -32.236  67.215  18.195  0.00  0.00    +0.232 C 
ATOM     16  N   LIG    1      -31.443  67.976  19.041  0.00  0.00    -0.285 N 
ATOM     17  H   LIG    1      -31.385  67.704  20.019  0.00  0.00    +0.155 HD
ATOM     18  O   LIG    1      -32.249  67.280  16.965  0.00  0.00    -0.274 OA
BRANCH  16  19
ATOM     19  C   LIG    1      -30.656  69.068  18.605  0.00  0.00    +0.034 A 
ATOM     20  C   LIG    1      -29.261  69.005  18.704  0.00  0.00    +0.026 A 
ATOM     21  C   LIG    1      -28.478  70.094  18.290  0.00  0.00    +0.040 A 
ATOM     22  C   LIG    1      -29.093  71.249  17.812  0.00  0.00    +0.124 A 
ATOM     23  F   LIG    1      -28.348  72.300  17.451  0.00  0.00    -0.205 F 
ATOM     24  C   LIG    1      -30.472  71.330  17.718  0.00  0.00    +0.040 A 
ATOM     25  C   LIG    1      -31.245  70.239  18.109  0.00  0.00    +0.026 A 
ENDBRANCH  16  19
ENDBRANCH  12  15
ENDBRANCH  10  12
ENDBRANCH   5   8
BRANCH   1  26
ATOM     26  O   LIG    1      -39.545  68.304  22.752  0.00  0.00    -0.452 OA
BRANCH  26  34
ATOM     27  C   LIG    1      -36.282  69.264  25.679  0.00  0.00    +0.162 A 
ATOM     28  C   LIG    1      -36.083  70.635  25.913  0.00  0.00    +0.164 A 
ATOM     29  C   LIG    1      -36.946  71.528  25.277  0.00  0.00    +0.077 A 
ATOM     30  C   LIG    1      -38.079  71.129  24.589  0.00  0.00    +0.078 A 
ATOM     31  N   LIG    1      -38.959  72.097  24.311  0.00  0.00    -0.255 NA
ATOM     32  C   LIG    1      -40.123  71.752  23.739  0.00  0.00    +0.115 A 
ATOM     33  C   LIG    1      -40.382  70.492  23.262  0.00  0.00    +0.066 A 
ATOM     34  C   LIG    1      -39.398  69.515  23.415  0.00  0.00    +0.139 A 
ATOM     35  C   LIG    1      -38.271  69.777  24.260  0.00  0.00    +0.046 A 
ATOM     36  C   LIG    1      -37.346  68.851  24.826  0.00  0.00    +0.063 A 
BRANCH  27  38
ATOM     37  C   LIG    1      -34.455  67.726  25.452  0.00  0.00    +0.277 C 
ATOM     38  O   LIG    1      -35.568  68.211  26.195  0.00  0.00    -0.491 OA
ENDBRANCH  27  38
BRANCH  28  39
ATOM     39  O   LIG    1      -35.076  71.099  26.742  0.00  0.00    -0.488 OA
BRANCH  39  40
ATOM     40  C   LIG    1      -35.455  72.174  27.635  0.00  0.00    +0.230 C 
BRANCH  40  41
ATOM     41  C   LIG    1      -34.372  72.440  28.685  0.00  0.00    +0.056 C 
BRANCH  41  42
ATOM     42  C   LIG    1      -33.534  73.708  28.396  0.00  0.00    +0.088 C 
BRANCH  42  43
ATOM     43  N   LIG    1      -33.935  74.955  29.078  0.00  0.00    -0.298 NA
ATOM     44  C   LIG    1      -34.445  76.015  28.178  0.00  0.00    +0.112 C 
ATOM     45  C   LIG    1      -33.361  76.619  27.271  0.00  0.00    +0.175 C 
ATOM     46  O   LIG    1      -32.326  77.215  28.060  0.00  0.00    -0.377 OA
ATOM     47  C   LIG    1      -31.738  76.252  28.946  0.00  0.00    +0.175 C 
ATOM     48  C   LIG    1      -32.793  75.547  29.828  0.00  0.00    +0.112 C 
ENDBRANCH  42  43
ENDBRANCH  41  42
ENDBRANCH  40  41
ENDBRANCH  39  40
ENDBRANCH  28  39
ENDBRANCH  26  34
ENDBRANCH   1  26
TORSDOF 12
ENDMDL
MODEL 8
REMARK VINA RESULT:      -6.0      7.202     12.501
REMARK  Name = pdb/CHEMBL1230609.pdb
REMARK                            x       y       z     vdW  Elec       q    Type
REMARK                         _______ _______ _______ _____ _____    ______ ____
ROOT
ATOM      1  C   LIG    1      -42.959  73.260  22.560  0.00  0.00    +0.164 A 
ATOM      2  C   LIG    1      -43.414  74.570  22.352  0.00  0.00    +0.167 A 
ATOM      3  F   LIG    1      -43.284  75.486  23.325  0.00  0.00    -0.202 F 
ATOM      4  C   LIG    1      -44.021  74.959  21.152  0.00  0.00    +0.065 A 
ATOM      5  C   LIG    1      -44.228  74.019  20.141  0.00  0.00    +0.036 A 
ATOM      6  C   LIG    1      -43.786  72.714  20.317  0.00  0.00    +0.027 A 
ATOM      7  C   LIG    1      -43.140  72.341  21.510  0.00  0.00    +0.051 A 
ENDROOT
BRANCH   5   8
ATOM      8  N   LIG    1      -45.005  74.371  19.023  0.00  0.00    -0.285 N 
ATOM      9  H   LIG    1      -44.581  75.017  18.374  0.00  0.00    +0.155 HD
ATOM     10  C   LIG    1      -46.368  74.599  19.154  0.00  0.00    +0.232 C 
ATOM     11  O   LIG    1      -47.010  74.458  20.201  0.00  0.00    -0.274 OA
BRANCH  10  12
ATOM     12  C   LIG    1      -47.074  75.094  17.946  0.00  0.00    +0.123 C 
ATOM     13  C   LIG    1      -48.590  75.286  18.028  0.00  0.00    +0.027 C 
ATOM     14  C   LIG    1      -48.045  74.115  17.274  0.00  0.00    +0.027 C 
BRANCH  12  15
ATOM     15  C   LIG    1      -46.336  76.034  17.047  0.00  0.00    +0.232 C 
ATOM     16  N   LIG    1      -46.726  77.364  17.078  0.00  0.00    -0.285 N 
ATOM     17  H   LIG    1      -47.358  77.664  17.816  0.00  0.00    +0.155 HD
ATOM     18  O   LIG    1      -45.429  75.562  16.361  0.00  0.00    -0.274 OA
BRANCH  16  19
ATOM     19  C   LIG    1      -46.238  78.344  16.180  0.00  0.00    +0.034 A 
ATOM     20  C   LIG    1      -46.707  78.375  14.861  0.00  0.00    +0.026 A 
ATOM     21  C   LIG    1      -46.212  79.333  13.963  0.00  0.00    +0.040 A 
ATOM     22  C   LIG    1      -45.230  80.230  14.376  0.00  0.00    +0.124 A 
ATOM     23  F   LIG    1      -44.733  81.120  13.509  0.00  0.00    -0.205 F 
ATOM     24  C   LIG    1      -44.750  80.205  15.674  0.00  0.00    +0.040 A 
ATOM     25  C   LIG    1      -45.258  79.267  16.569  0.00  0.00    +0.026 A 
ENDBRANCH  16  19
ENDBRANCH  12  15
ENDBRANCH  10  12
ENDBRANCH   5   8
BRANCH   1  26
ATOM     26  O   LIG    1      -42.407  72.946  23.806  0.00  0.00    -0.452 OA
BRANCH  26  34
ATOM     27  C   LIG    1      -39.237  75.995  24.695  0.00  0.00    +0.162 A 
ATOM     28  C   LIG    1      -38.011  75.464  25.126  0.00  0.00    +0.164 A 
ATOM     29  C   LIG    1      -37.890  74.073  25.166  0.00  0.00    +0.077 A 
ATOM     30  C   LIG    1      -38.838  73.215  24.637  0.00  0.00    +0.078 A 
ATOM     31  N   LIG    1      -38.442  71.948  24.470  0.00  0.00    -0.255 NA
ATOM     32  C   LIG    1      -39.282  71.094  23.863  0.00  0.00    +0.115 A 
ATOM     33  C   LIG    1      -40.586  71.404  23.572  0.00  0.00    +0.066 A 
ATOM     34  C   LIG    1      -41.046  72.682  23.888  0.00  0.00    +0.139 A 
ATOM     35  C   LIG    1      -40.108  73.693  24.274  0.00  0.00    +0.046 A 
ATOM     36  C   LIG    1      -40.284  75.108  24.311  0.00  0.00    +0.063 A 
BRANCH  27  38
ATOM     37  C   LIG    1      -39.886  77.812  23.270  0.00  0.00    +0.277 C 
ATOM     38  O   LIG    1      -39.582  77.319  24.569  0.00  0.00    -0.491 OA
ENDBRANCH  27  38
BRANCH  28  39
ATOM     39  O   LIG    1      -36.951  76.272  25.499  0.00  0.00    -0.488 OA
BRANCH  39  40
ATOM     40  C   LIG    1      -36.944  76.688  26.886  0.00  0.00    +0.230 C 
BRANCH  40  41
ATOM     41  C   LIG    1      -35.838  75.985  27.678  0.00  0.00    +0.056 C 
BRANCH  41  42
ATOM     42  C   LIG    1      -34.413  76.363  27.209  0.00  0.00    +0.088 C 
BRANCH  42  43
ATOM     43  N   LIG    1      -33.544  77.063  28.177  0.00  0.00    -0.298 NA
ATOM     44  C   LIG    1      -34.181  78.211  28.861  0.00  0.00    +0.112 C 
ATOM     45  C   LIG    1      -34.449  79.404  27.930  0.00  0.00    +0.175 C 
ATOM     46  O   LIG    1      -33.221  79.888  27.374  0.00  0.00    -0.377 OA
ATOM     47  C   LIG    1      -32.541  78.851  26.654  0.00  0.00    +0.175 C 
ATOM     48  C   LIG    1      -32.317  77.588  27.516  0.00  0.00    +0.112 C 
ENDBRANCH  42  43
ENDBRANCH  41  42
ENDBRANCH  40  41
ENDBRANCH  39  40
ENDBRANCH  28  39
ENDBRANCH  26  34
ENDBRANCH   1  26
TORSDOF 12
ENDMDL
MODEL 9
REMARK VINA RESULT:      -5.9      9.288     14.914
REMARK  Name = pdb/CHEMBL1230609.pdb
REMARK                            x       y       z     vdW  Elec       q    Type
REMARK                         _______ _______ _______ _____ _____    ______ ____
ROOT
ATOM      1  C   LIG    1      -32.229  75.895  31.209  0.00  0.00    +0.164 A 
ATOM      2  C   LIG    1      -32.078  76.453  32.486  0.00  0.00    +0.167 A 
ATOM      3  F   LIG    1      -33.161  76.707  33.238  0.00  0.00    -0.202 F 
ATOM      4  C   LIG    1      -30.819  76.773  33.008  0.00  0.00    +0.065 A 
ATOM      5  C   LIG    1      -29.675  76.580  32.231  0.00  0.00    +0.036 A 
ATOM      6  C   LIG    1      -29.793  76.027  30.962  0.00  0.00    +0.027 A 
ATOM      7  C   LIG    1      -31.058  75.669  30.461  0.00  0.00    +0.051 A 
ENDROOT
BRANCH   5   8
ATOM      8  N   LIG    1      -28.442  77.080  32.686  0.00  0.00    -0.285 N 
ATOM      9  H   LIG    1      -27.926  77.649  32.032  0.00  0.00    +0.155 HD
ATOM     10  C   LIG    1      -27.597  76.287  33.451  0.00  0.00    +0.232 C 
ATOM     11  O   LIG    1      -27.862  75.145  33.841  0.00  0.00    -0.274 OA
BRANCH  10  12
ATOM     12  C   LIG    1      -26.264  76.858  33.769  0.00  0.00    +0.123 C 
ATOM     13  C   LIG    1      -25.632  76.497  35.115  0.00  0.00    +0.027 C 
ATOM     14  C   LIG    1      -26.212  77.863  34.927  0.00  0.00    +0.027 C 
BRANCH  12  15
ATOM     15  C   LIG    1      -25.319  77.088  32.635  0.00  0.00    +0.232 C 
ATOM     16  N   LIG    1      -24.177  76.301  32.603  0.00  0.00    -0.285 N 
ATOM     17  H   LIG    1      -24.122  75.507  33.235  0.00  0.00    +0.155 HD
ATOM     18  O   LIG    1      -25.630  77.944  31.806  0.00  0.00    -0.274 OA
BRANCH  16  19
ATOM     19  C   LIG    1      -23.114  76.502  31.690  0.00  0.00    +0.034 A 
ATOM     20  C   LIG    1      -22.060  77.360  32.027  0.00  0.00    +0.026 A 
ATOM     21  C   LIG    1      -21.013  77.575  31.117  0.00  0.00    +0.040 A 
ATOM     22  C   LIG    1      -21.041  76.961  29.867  0.00  0.00    +0.124 A 
ATOM     23  F   LIG    1      -20.061  77.195  28.987  0.00  0.00    -0.205 F 
ATOM     24  C   LIG    1      -22.082  76.118  29.517  0.00  0.00    +0.040 A 
ATOM     25  C   LIG    1      -23.109  75.889  30.430  0.00  0.00    +0.026 A 
ENDBRANCH  16  19
ENDBRANCH  12  15
ENDBRANCH  10  12
ENDBRANCH   5   8
BRANCH   1  26
ATOM     26  O   LIG    1      -33.527  75.650  30.748  0.00  0.00    -0.452 OA
BRANCH  26  34
ATOM     27  C   LIG    1      -34.812  79.929  30.335  0.00  0.00    +0.162 A 
ATOM     28  C   LIG    1      -34.796  80.427  29.022  0.00  0.00    +0.164 A 
ATOM     29  C   LIG    1      -34.456  79.538  28.001  0.00  0.00    +0.077 A 
ATOM     30  C   LIG    1      -34.316  78.175  28.197  0.00  0.00    +0.078 A 
ATOM     31  N   LIG    1      -34.301  77.429  27.087  0.00  0.00    -0.255 NA
ATOM     32  C   LIG    1      -34.274  76.094  27.220  0.00  0.00    +0.115 A 
ATOM     33  C   LIG    1      -34.079  75.462  28.422  0.00  0.00    +0.066 A 
ATOM     34  C   LIG    1      -33.940  76.249  29.565  0.00  0.00    +0.139 A 
ATOM     35  C   LIG    1      -34.241  77.648  29.497  0.00  0.00    +0.046 A 
ATOM     36  C   LIG    1      -34.497  78.559  30.565  0.00  0.00    +0.063 A 
BRANCH  27  38
ATOM     37  C   LIG    1      -35.031  79.910  32.724  0.00  0.00    +0.277 C 
ATOM     38  O   LIG    1      -35.120  80.609  31.488  0.00  0.00    -0.491 OA
ENDBRANCH  27  38
BRANCH  28  39
ATOM     39  O   LIG    1      -35.107  81.744  28.732  0.00  0.00    -0.488 OA
BRANCH  39  40
ATOM     40  C   LIG    1      -35.754  81.963  27.456  0.00  0.00    +0.230 C 
BRANCH  40  41
ATOM     41  C   LIG    1      -36.662  83.196  27.490  0.00  0.00    +0.056 C 
BRANCH  41  42
ATOM     42  C   LIG    1      -35.895  84.528  27.310  0.00  0.00    +0.088 C 
BRANCH  42  43
ATOM     43  N   LIG    1      -36.077  85.561  28.351  0.00  0.00    -0.298 NA
ATOM     44  C   LIG    1      -35.272  86.787  28.151  0.00  0.00    +0.112 C 
ATOM     45  C   LIG    1      -33.764  86.566  28.345  0.00  0.00    +0.175 C 
ATOM     46  O   LIG    1      -33.494  86.111  29.676  0.00  0.00    -0.377 OA
ATOM     47  C   LIG    1      -34.204  84.897  29.956  0.00  0.00    +0.175 C 
ATOM     48  C   LIG    1      -35.722  85.033  29.698  0.00  0.00    +0.112 C 
ENDBRANCH  42  43
ENDBRANCH  41  42
ENDBRANCH  40  41
ENDBRANCH  39  40
ENDBRANCH  28  39
ENDBRANCH  26  34
ENDBRANCH   1  26
TORSDOF 12
ENDMDL
