MODEL 1
REMARK VINA RESULT:      -6.1      0.000      0.000
REMARK  Name = pdb/CHEMBL3914864.pdb
REMARK                            x       y       z     vdW  Elec       q    Type
REMARK                         _______ _______ _______ _____ _____    ______ ____
ROOT
ATOM      1  C   LIG    1      -33.756  72.876  28.684  0.00  0.00    +0.042 A 
ATOM      2  C   LIG    1      -34.987  72.831  27.954  0.00  0.00    +0.042 A 
ATOM      3  C   LIG    1      -35.611  71.596  27.630  0.00  0.00    +0.086 A 
ATOM      4  C   LIG    1      -34.938  70.460  28.057  0.00  0.00    +0.138 A 
ATOM      5  N   LIG    1      -33.811  70.454  28.801  0.00  0.00    -0.260 NA
ATOM      6  C   LIG    1      -33.263  71.660  29.077  0.00  0.00    +0.122 A 
ENDROOT
BRANCH   1   7
ATOM      7  C   LIG    1      -33.069  74.213  28.929  0.00  0.00    +0.197 C 
ATOM      8  O   LIG    1      -31.883  74.220  29.175  0.00  0.00    -0.287 OA
BRANCH   7  17
ATOM      9  N   LIG    1      -35.633  76.926  28.963  0.00  0.00    -0.336 N 
ATOM     10  C   LIG    1      -34.575  77.638  28.403  0.00  0.00    +0.089 A 
ATOM     11  C   LIG    1      -34.403  78.965  27.974  0.00  0.00    +0.165 A 
ATOM     12  F   LIG    1      -35.308  79.927  28.143  0.00  0.00    -0.202 F 
ATOM     13  C   LIG    1      -33.187  79.310  27.408  0.00  0.00    +0.151 A 
ATOM     14  N   LIG    1      -32.157  78.462  27.237  0.00  0.00    -0.260 NA
ATOM     15  C   LIG    1      -32.298  77.184  27.664  0.00  0.00    +0.121 A 
ATOM     16  C   LIG    1      -33.486  76.734  28.275  0.00  0.00    +0.032 A 
ATOM     17  C   LIG    1      -33.851  75.482  28.905  0.00  0.00    +0.049 A 
ATOM     18  C   LIG    1      -35.110  75.723  29.404  0.00  0.00    +0.099 A 
BRANCH   9  20
ATOM     19  C   LIG    1      -37.904  75.948  29.440  0.00  0.00    +0.036 C 
ATOM     20  C   LIG    1      -37.103  77.216  28.979  0.00  0.00    +0.063 C 
ATOM     21  C   LIG    1      -37.600  77.555  27.558  0.00  0.00    +0.036 C 
BRANCH  20  22
ATOM     22  C   LIG    1      -37.536  78.309  29.993  0.00  0.00    +0.183 C 
BRANCH  22  23
ATOM     23  O   LIG    1      -38.155  79.438  29.412  0.00  0.00    -0.393 OA
ATOM     24  H   LIG    1      -38.155  80.155  30.072  0.00  0.00    +0.209 HD
ENDBRANCH  22  23
ENDBRANCH  20  22
ENDBRANCH   9  20
ENDBRANCH   7  17
ENDBRANCH   1   7
BRANCH   3  25
ATOM     25  N   LIG    1      -36.809  71.616  26.878  0.00  0.00    -0.216 NA
ATOM     26  C   LIG    1      -36.909  71.592  25.586  0.00  0.00    +0.192 C 
BRANCH  26  27
ATOM     27  O   LIG    1      -35.896  71.398  24.711  0.00  0.00    -0.495 OA
ATOM     28  H   LIG    1      -36.138  70.716  24.064  0.00  0.00    +0.293 HD
ENDBRANCH  26  27
BRANCH  26  29
ATOM     29  C   LIG    1      -38.216  71.633  24.834  0.00  0.00    +0.130 C 
BRANCH  29  30
ATOM     30  C   LIG    1      -38.788  73.007  24.635  0.00  0.00    -0.038 A 
ATOM     31  C   LIG    1      -38.069  74.150  25.003  0.00  0.00    +0.004 A 
ATOM     32  C   LIG    1      -38.616  75.419  24.807  0.00  0.00    +0.012 A 
ATOM     33  C   LIG    1      -39.886  75.565  24.226  0.00  0.00    +0.055 A 
ATOM     34  C   LIG    1      -40.589  74.418  23.833  0.00  0.00    +0.012 A 
ATOM     35  C   LIG    1      -40.043  73.151  24.034  0.00  0.00    +0.004 A 
BRANCH  33  36
ATOM     36  C   LIG    1      -40.475  76.940  24.039  0.00  0.00    +0.417 C 
ATOM     37  F   LIG    1      -40.230  77.448  22.799  0.00  0.00    -0.166 F 
ATOM     38  F   LIG    1      -39.969  77.847  24.920  0.00  0.00    -0.166 F 
ATOM     39  F   LIG    1      -41.827  76.981  24.198  0.00  0.00    -0.166 F 
ENDBRANCH  33  36
ENDBRANCH  29  30
ENDBRANCH  26  29
ENDBRANCH   3  25
TORSDOF 10
ENDMDL
MODEL 2
REMARK VINA RESULT:      -6.1     18.499     21.363
REMARK  Name = pdb/CHEMBL3914864.pdb
REMARK                            x       y       z     vdW  Elec       q    Type
REMARK                         _______ _______ _______ _____ _____    ______ ____
ROOT
ATOM      1  C   LIG    1      -22.867  82.214  14.713  0.00  0.00    +0.042 A 
ATOM      2  C   LIG    1      -22.798  80.822  14.389  0.00  0.00    +0.042 A 
ATOM      3  C   LIG    1      -22.539  79.842  15.384  0.00  0.00    +0.086 A 
ATOM      4  C   LIG    1      -22.347  80.335  16.668  0.00  0.00    +0.138 A 
ATOM      5  N   LIG    1      -22.465  81.630  17.032  0.00  0.00    -0.260 NA
ATOM      6  C   LIG    1      -22.713  82.516  16.040  0.00  0.00    +0.122 A 
ENDROOT
BRANCH   1   7
ATOM      7  C   LIG    1      -23.052  83.242  13.603  0.00  0.00    +0.197 C 
ATOM      8  O   LIG    1      -23.930  83.064  12.787  0.00  0.00    -0.287 OA
BRANCH   7  17
ATOM      9  N   LIG    1      -21.396  86.543  13.056  0.00  0.00    -0.336 N 
ATOM     10  C   LIG    1      -20.258  85.754  13.205  0.00  0.00    +0.089 A 
ATOM     11  C   LIG    1      -18.877  86.013  13.198  0.00  0.00    +0.165 A 
ATOM     12  F   LIG    1      -18.347  87.233  13.142  0.00  0.00    -0.202 F 
ATOM     13  C   LIG    1      -18.017  84.936  13.335  0.00  0.00    +0.151 A 
ATOM     14  N   LIG    1      -18.409  83.656  13.471  0.00  0.00    -0.260 NA
ATOM     15  C   LIG    1      -19.738  83.391  13.501  0.00  0.00    +0.121 A 
ATOM     16  C   LIG    1      -20.700  84.416  13.393  0.00  0.00    +0.032 A 
ATOM     17  C   LIG    1      -22.144  84.420  13.503  0.00  0.00    +0.049 A 
ATOM     18  C   LIG    1      -22.475  85.752  13.415  0.00  0.00    +0.099 A 
BRANCH   9  20
ATOM     19  C   LIG    1      -20.968  88.996  13.428  0.00  0.00    +0.036 C 
ATOM     20  C   LIG    1      -21.565  87.909  12.466  0.00  0.00    +0.063 C 
ATOM     21  C   LIG    1      -23.062  88.243  12.302  0.00  0.00    +0.036 C 
BRANCH  20  22
ATOM     22  C   LIG    1      -20.797  88.140  11.136  0.00  0.00    +0.183 C 
BRANCH  22  23
ATOM     23  O   LIG    1      -19.838  89.176  11.183  0.00  0.00    -0.393 OA
ATOM     24  H   LIG    1      -19.138  88.969  10.538  0.00  0.00    +0.209 HD
ENDBRANCH  22  23
ENDBRANCH  20  22
ENDBRANCH   9  20
ENDBRANCH   7  17
ENDBRANCH   1   7
BRANCH   3  25
ATOM     25  N   LIG    1      -22.449  78.484  14.996  0.00  0.00    -0.216 NA
ATOM     26  C   LIG    1      -21.365  77.781  14.898  0.00  0.00    +0.192 C 
BRANCH  26  27
ATOM     27  O   LIG    1      -20.127  78.163  15.286  0.00  0.00    -0.495 OA
ATOM     28  H   LIG    1      -19.519  78.147  14.530  0.00  0.00    +0.293 HD
ENDBRANCH  26  27
BRANCH  26  29
ATOM     29  C   LIG    1      -21.326  76.337  14.461  0.00  0.00    +0.130 C 
BRANCH  29  30
ATOM     30  C   LIG    1      -21.430  75.336  15.575  0.00  0.00    -0.038 A 
ATOM     31  C   LIG    1      -20.285  74.757  16.137  0.00  0.00    +0.004 A 
ATOM     32  C   LIG    1      -20.403  73.831  17.174  0.00  0.00    +0.012 A 
ATOM     33  C   LIG    1      -21.666  73.480  17.676  0.00  0.00    +0.055 A 
ATOM     34  C   LIG    1      -22.807  74.084  17.130  0.00  0.00    +0.012 A 
ATOM     35  C   LIG    1      -22.688  75.005  16.090  0.00  0.00    +0.004 A 
BRANCH  33  36
ATOM     36  C   LIG    1      -21.781  72.462  18.782  0.00  0.00    +0.417 C 
ATOM     37  F   LIG    1      -22.063  71.214  18.315  0.00  0.00    -0.166 F 
ATOM     38  F   LIG    1      -22.773  72.763  19.666  0.00  0.00    -0.166 F 
ATOM     39  F   LIG    1      -20.646  72.334  19.526  0.00  0.00    -0.166 F 
ENDBRANCH  33  36
ENDBRANCH  29  30
ENDBRANCH  26  29
ENDBRANCH   3  25
TORSDOF 10
ENDMDL
MODEL 3
REMARK VINA RESULT:      -6.1      7.589     10.563
REMARK  Name = pdb/CHEMBL3914864.pdb
REMARK                            x       y       z     vdW  Elec       q    Type
REMARK                         _______ _______ _______ _____ _____    ______ ____
ROOT
ATOM      1  C   LIG    1      -25.479  71.770  31.739  0.00  0.00    +0.042 A 
ATOM      2  C   LIG    1      -26.899  71.939  31.794  0.00  0.00    +0.042 A 
ATOM      3  C   LIG    1      -27.773  71.125  31.025  0.00  0.00    +0.086 A 
ATOM      4  C   LIG    1      -27.151  70.179  30.222  0.00  0.00    +0.138 A 
ATOM      5  N   LIG    1      -25.822  69.939  30.185  0.00  0.00    -0.260 NA
ATOM      6  C   LIG    1      -25.042  70.748  30.938  0.00  0.00    +0.122 A 
ENDROOT
BRANCH   1   7
ATOM      7  C   LIG    1      -24.572  72.725  32.503  0.00  0.00    +0.197 C 
ATOM      8  O   LIG    1      -24.286  72.461  33.651  0.00  0.00    -0.287 OA
BRANCH   7  17
ATOM      9  N   LIG    1      -22.655  75.631  31.155  0.00  0.00    -0.336 N 
ATOM     10  C   LIG    1      -23.937  76.172  31.093  0.00  0.00    +0.089 A 
ATOM     11  C   LIG    1      -24.464  77.399  30.655  0.00  0.00    +0.165 A 
ATOM     12  F   LIG    1      -23.749  78.345  30.049  0.00  0.00    -0.202 F 
ATOM     13  C   LIG    1      -25.827  77.604  30.795  0.00  0.00    +0.151 A 
ATOM     14  N   LIG    1      -26.684  76.712  31.323  0.00  0.00    -0.260 NA
ATOM     15  C   LIG    1      -26.195  75.515  31.731  0.00  0.00    +0.121 A 
ATOM     16  C   LIG    1      -24.828  75.195  31.614  0.00  0.00    +0.032 A 
ATOM     17  C   LIG    1      -24.081  73.979  31.864  0.00  0.00    +0.049 A 
ATOM     18  C   LIG    1      -22.808  74.286  31.445  0.00  0.00    +0.099 A 
BRANCH   9  20
ATOM     19  C   LIG    1      -20.177  75.250  31.393  0.00  0.00    +0.036 C 
ATOM     20  C   LIG    1      -21.314  76.297  31.118  0.00  0.00    +0.063 C 
ATOM     21  C   LIG    1      -21.209  77.359  32.233  0.00  0.00    +0.036 C 
BRANCH  20  22
ATOM     22  C   LIG    1      -20.928  76.899  29.741  0.00  0.00    +0.183 C 
BRANCH  22  23
ATOM     23  O   LIG    1      -21.723  76.455  28.661  0.00  0.00    -0.393 OA
ATOM     24  H   LIG    1      -22.425  77.115  28.512  0.00  0.00    +0.209 HD
ENDBRANCH  22  23
ENDBRANCH  20  22
ENDBRANCH   9  20
ENDBRANCH   7  17
ENDBRANCH   1   7
BRANCH   3  25
ATOM     25  N   LIG    1      -29.166  71.364  31.097  0.00  0.00    -0.216 NA
ATOM     26  C   LIG    1      -29.984  71.459  30.096  0.00  0.00    +0.192 C 
BRANCH  26  27
ATOM     27  O   LIG    1      -29.693  71.206  28.800  0.00  0.00    -0.495 OA
ATOM     28  H   LIG    1      -28.926  71.731  28.520  0.00  0.00    +0.293 HD
ENDBRANCH  26  27
BRANCH  26  29
ATOM     29  C   LIG    1      -31.461  71.733  30.230  0.00  0.00    +0.130 C 
BRANCH  29  30
ATOM     30  C   LIG    1      -31.908  73.062  29.692  0.00  0.00    -0.038 A 
ATOM     31  C   LIG    1      -33.077  73.178  28.930  0.00  0.00    +0.004 A 
ATOM     32  C   LIG    1      -33.477  74.423  28.442  0.00  0.00    +0.012 A 
ATOM     33  C   LIG    1      -32.722  75.574  28.720  0.00  0.00    +0.055 A 
ATOM     34  C   LIG    1      -31.569  75.456  29.508  0.00  0.00    +0.012 A 
ATOM     35  C   LIG    1      -31.168  74.211  29.991  0.00  0.00    +0.004 A 
BRANCH  33  36
ATOM     36  C   LIG    1      -33.154  76.908  28.169  0.00  0.00    +0.417 C 
ATOM     37  F   LIG    1      -34.277  77.384  28.775  0.00  0.00    -0.166 F 
ATOM     38  F   LIG    1      -33.443  76.853  26.839  0.00  0.00    -0.166 F 
ATOM     39  F   LIG    1      -32.215  77.885  28.305  0.00  0.00    -0.166 F 
ENDBRANCH  33  36
ENDBRANCH  29  30
ENDBRANCH  26  29
ENDBRANCH   3  25
TORSDOF 10
ENDMDL
MODEL 4
REMARK VINA RESULT:      -6.1     17.121     19.891
REMARK  Name = pdb/CHEMBL3914864.pdb
REMARK                            x       y       z     vdW  Elec       q    Type
REMARK                         _______ _______ _______ _____ _____    ______ ____
ROOT
ATOM      1  C   LIG    1      -20.707  80.800  15.931  0.00  0.00    +0.042 A 
ATOM      2  C   LIG    1      -20.191  79.560  16.426  0.00  0.00    +0.042 A 
ATOM      3  C   LIG    1      -18.846  79.170  16.189  0.00  0.00    +0.086 A 
ATOM      4  C   LIG    1      -18.092  80.062  15.440  0.00  0.00    +0.138 A 
ATOM      5  N   LIG    1      -18.514  81.270  15.007  0.00  0.00    -0.260 NA
ATOM      6  C   LIG    1      -19.805  81.585  15.264  0.00  0.00    +0.122 A 
ENDROOT
BRANCH   1   7
ATOM      7  C   LIG    1      -22.180  81.139  16.124  0.00  0.00    +0.197 C 
ATOM      8  O   LIG    1      -22.489  81.891  17.023  0.00  0.00    -0.287 OA
BRANCH   7  17
ATOM      9  N   LIG    1      -24.457  78.940  14.147  0.00  0.00    -0.336 N 
ATOM     10  C   LIG    1      -24.721  80.149  13.509  0.00  0.00    +0.089 A 
ATOM     11  C   LIG    1      -25.573  80.542  12.464  0.00  0.00    +0.165 A 
ATOM     12  F   LIG    1      -26.469  79.741  11.891  0.00  0.00    -0.202 F 
ATOM     13  C   LIG    1      -25.530  81.865  12.056  0.00  0.00    +0.151 A 
ATOM     14  N   LIG    1      -24.726  82.803  12.590  0.00  0.00    -0.260 NA
ATOM     15  C   LIG    1      -23.913  82.447  13.614  0.00  0.00    +0.121 A 
ATOM     16  C   LIG    1      -23.895  81.132  14.121  0.00  0.00    +0.032 A 
ATOM     17  C   LIG    1      -23.220  80.526  15.250  0.00  0.00    +0.049 A 
ATOM     18  C   LIG    1      -23.708  79.241  15.272  0.00  0.00    +0.099 A 
BRANCH   9  20
ATOM     19  C   LIG    1      -23.923  76.523  14.614  0.00  0.00    +0.036 C 
ATOM     20  C   LIG    1      -24.715  77.531  13.708  0.00  0.00    +0.063 C 
ATOM     21  C   LIG    1      -24.209  77.314  12.267  0.00  0.00    +0.036 C 
BRANCH  20  22
ATOM     22  C   LIG    1      -26.190  77.068  13.854  0.00  0.00    +0.183 C 
BRANCH  22  23
ATOM     23  O   LIG    1      -26.884  77.648  14.939  0.00  0.00    -0.393 OA
ATOM     24  H   LIG    1      -26.239  77.834  15.645  0.00  0.00    +0.209 HD
ENDBRANCH  22  23
ENDBRANCH  20  22
ENDBRANCH   9  20
ENDBRANCH   7  17
ENDBRANCH   1   7
BRANCH   3  25
ATOM     25  N   LIG    1      -18.405  77.917  16.675  0.00  0.00    -0.216 NA
ATOM     26  C   LIG    1      -18.167  76.856  15.969  0.00  0.00    +0.192 C 
BRANCH  26  27
ATOM     27  O   LIG    1      -18.156  76.782  14.619  0.00  0.00    -0.495 OA
ATOM     28  H   LIG    1      -17.672  75.991  14.331  0.00  0.00    +0.293 HD
ENDBRANCH  26  27
BRANCH  26  29
ATOM     29  C   LIG    1      -17.714  75.537  16.544  0.00  0.00    +0.130 C 
BRANCH  29  30
ATOM     30  C   LIG    1      -18.816  74.670  17.081  0.00  0.00    -0.038 A 
ATOM     31  C   LIG    1      -18.633  73.896  18.234  0.00  0.00    +0.004 A 
ATOM     32  C   LIG    1      -19.671  73.100  18.718  0.00  0.00    +0.012 A 
ATOM     33  C   LIG    1      -20.914  73.074  18.066  0.00  0.00    +0.055 A 
ATOM     34  C   LIG    1      -21.101  73.871  16.929  0.00  0.00    +0.012 A 
ATOM     35  C   LIG    1      -20.062  74.663  16.443  0.00  0.00    +0.004 A 
BRANCH  33  36
ATOM     36  C   LIG    1      -22.019  72.192  18.587  0.00  0.00    +0.417 C 
ATOM     37  F   LIG    1      -21.973  72.043  19.940  0.00  0.00    -0.166 F 
ATOM     38  F   LIG    1      -21.968  70.932  18.071  0.00  0.00    -0.166 F 
ATOM     39  F   LIG    1      -23.268  72.659  18.307  0.00  0.00    -0.166 F 
ENDBRANCH  33  36
ENDBRANCH  29  30
ENDBRANCH  26  29
ENDBRANCH   3  25
TORSDOF 10
ENDMDL
MODEL 5
REMARK VINA RESULT:      -6.0      7.964     12.411
REMARK  Name = pdb/CHEMBL3914864.pdb
REMARK                            x       y       z     vdW  Elec       q    Type
REMARK                         _______ _______ _______ _____ _____    ______ ____
ROOT
ATOM      1  C   LIG    1      -29.921  75.293  31.867  0.00  0.00    +0.042 A 
ATOM      2  C   LIG    1      -28.859  76.099  31.344  0.00  0.00    +0.042 A 
ATOM      3  C   LIG    1      -27.924  76.739  32.201  0.00  0.00    +0.086 A 
ATOM      4  C   LIG    1      -28.127  76.536  33.559  0.00  0.00    +0.138 A 
ATOM      5  N   LIG    1      -29.073  75.735  34.096  0.00  0.00    -0.260 NA
ATOM      6  C   LIG    1      -29.934  75.153  33.229  0.00  0.00    +0.122 A 
ENDROOT
BRANCH   1   7
ATOM      7  C   LIG    1      -30.959  74.702  30.921  0.00  0.00    +0.197 C 
ATOM      8  O   LIG    1      -30.837  73.548  30.574  0.00  0.00    -0.287 OA
BRANCH   7  17
ATOM      9  N   LIG    1      -33.309  76.883  29.008  0.00  0.00    -0.336 N 
ATOM     10  C   LIG    1      -33.866  77.028  30.276  0.00  0.00    +0.089 A 
ATOM     11  C   LIG    1      -34.975  77.723  30.787  0.00  0.00    +0.165 A 
ATOM     12  F   LIG    1      -35.862  78.369  30.033  0.00  0.00    -0.202 F 
ATOM     13  C   LIG    1      -35.199  77.670  32.153  0.00  0.00    +0.151 A 
ATOM     14  N   LIG    1      -34.428  76.999  33.028  0.00  0.00    -0.260 NA
ATOM     15  C   LIG    1      -33.367  76.305  32.550  0.00  0.00    +0.121 A 
ATOM     16  C   LIG    1      -33.062  76.274  31.174  0.00  0.00    +0.032 A 
ATOM     17  C   LIG    1      -32.077  75.541  30.404  0.00  0.00    +0.049 A 
ATOM     18  C   LIG    1      -32.374  75.865  29.102  0.00  0.00    +0.099 A 
BRANCH   9  20
ATOM     19  C   LIG    1      -33.468  79.240  28.136  0.00  0.00    +0.036 C 
ATOM     20  C   LIG    1      -33.470  77.713  27.772  0.00  0.00    +0.063 C 
ATOM     21  C   LIG    1      -34.830  77.424  27.103  0.00  0.00    +0.036 C 
BRANCH  20  22
ATOM     22  C   LIG    1      -32.310  77.582  26.748  0.00  0.00    +0.183 C 
BRANCH  22  23
ATOM     23  O   LIG    1      -32.298  78.575  25.743  0.00  0.00    -0.393 OA
ATOM     24  H   LIG    1      -31.745  79.313  26.055  0.00  0.00    +0.209 HD
ENDBRANCH  22  23
ENDBRANCH  20  22
ENDBRANCH   9  20
ENDBRANCH   7  17
ENDBRANCH   1   7
BRANCH   3  25
ATOM     25  N   LIG    1      -26.918  77.551  31.627  0.00  0.00    -0.216 NA
ATOM     26  C   LIG    1      -25.790  77.147  31.134  0.00  0.00    +0.192 C 
BRANCH  26  27
ATOM     27  O   LIG    1      -25.417  75.861  30.943  0.00  0.00    -0.495 OA
ATOM     28  H   LIG    1      -26.169  75.337  30.624  0.00  0.00    +0.293 HD
ENDBRANCH  26  27
BRANCH  26  29
ATOM     29  C   LIG    1      -24.743  78.061  30.548  0.00  0.00    +0.130 C 
BRANCH  29  30
ATOM     30  C   LIG    1      -23.338  77.534  30.609  0.00  0.00    -0.038 A 
ATOM     31  C   LIG    1      -22.677  77.098  29.455  0.00  0.00    +0.004 A 
ATOM     32  C   LIG    1      -21.370  76.615  29.533  0.00  0.00    +0.012 A 
ATOM     33  C   LIG    1      -20.698  76.573  30.765  0.00  0.00    +0.055 A 
ATOM     34  C   LIG    1      -21.354  77.038  31.912  0.00  0.00    +0.012 A 
ATOM     35  C   LIG    1      -22.661  77.516  31.834  0.00  0.00    +0.004 A 
BRANCH  33  36
ATOM     36  C   LIG    1      -19.294  76.029  30.838  0.00  0.00    +0.417 C 
ATOM     37  F   LIG    1      -19.265  74.669  30.898  0.00  0.00    -0.166 F 
ATOM     38  F   LIG    1      -18.624  76.465  31.941  0.00  0.00    -0.166 F 
ATOM     39  F   LIG    1      -18.519  76.372  29.771  0.00  0.00    -0.166 F 
ENDBRANCH  33  36
ENDBRANCH  29  30
ENDBRANCH  26  29
ENDBRANCH   3  25
TORSDOF 10
ENDMDL
MODEL 6
REMARK VINA RESULT:      -6.0     18.429     21.397
REMARK  Name = pdb/CHEMBL3914864.pdb
REMARK                            x       y       z     vdW  Elec       q    Type
REMARK                         _______ _______ _______ _____ _____    ______ ____
ROOT
ATOM      1  C   LIG    1      -22.841  82.120  14.597  0.00  0.00    +0.042 A 
ATOM      2  C   LIG    1      -22.701  80.729  14.289  0.00  0.00    +0.042 A 
ATOM      3  C   LIG    1      -22.430  79.770  15.301  0.00  0.00    +0.086 A 
ATOM      4  C   LIG    1      -22.300  80.282  16.585  0.00  0.00    +0.138 A 
ATOM      5  N   LIG    1      -22.487  81.573  16.933  0.00  0.00    -0.260 NA
ATOM      6  C   LIG    1      -22.741  82.439  15.925  0.00  0.00    +0.122 A 
ENDROOT
BRANCH   1   7
ATOM      7  C   LIG    1      -23.036  83.130  13.472  0.00  0.00    +0.197 C 
ATOM      8  O   LIG    1      -24.013  83.027  12.763  0.00  0.00    -0.287 OA
BRANCH   7  17
ATOM      9  N   LIG    1      -20.120  85.241  12.484  0.00  0.00    -0.336 N 
ATOM     10  C   LIG    1      -20.642  86.053  13.487  0.00  0.00    +0.089 A 
ATOM     11  C   LIG    1      -20.287  87.302  14.023  0.00  0.00    +0.165 A 
ATOM     12  F   LIG    1      -19.321  88.077  13.533  0.00  0.00    -0.202 F 
ATOM     13  C   LIG    1      -21.037  87.790  15.079  0.00  0.00    +0.151 A 
ATOM     14  N   LIG    1      -22.085  87.152  15.632  0.00  0.00    -0.260 NA
ATOM     15  C   LIG    1      -22.455  85.955  15.113  0.00  0.00    +0.121 A 
ATOM     16  C   LIG    1      -21.773  85.379  14.023  0.00  0.00    +0.032 A 
ATOM     17  C   LIG    1      -22.022  84.195  13.226  0.00  0.00    +0.049 A 
ATOM     18  C   LIG    1      -21.060  84.253  12.246  0.00  0.00    +0.099 A 
BRANCH   9  20
ATOM     19  C   LIG    1      -18.585  86.477  10.916  0.00  0.00    +0.036 C 
ATOM     20  C   LIG    1      -18.764  85.227  11.848  0.00  0.00    +0.063 C 
ATOM     21  C   LIG    1      -18.604  83.984  10.948  0.00  0.00    +0.036 C 
BRANCH  20  22
ATOM     22  C   LIG    1      -17.580  85.346  12.845  0.00  0.00    +0.183 C 
BRANCH  22  23
ATOM     23  O   LIG    1      -16.875  86.569  12.779  0.00  0.00    -0.393 OA
ATOM     24  H   LIG    1      -17.461  87.273  13.111  0.00  0.00    +0.209 HD
ENDBRANCH  22  23
ENDBRANCH  20  22
ENDBRANCH   9  20
ENDBRANCH   7  17
ENDBRANCH   1   7
BRANCH   3  25
ATOM     25  N   LIG    1      -22.268  78.415  14.929  0.00  0.00    -0.216 NA
ATOM     26  C   LIG    1      -21.174  77.724  14.990  0.00  0.00    +0.192 C 
BRANCH  26  27
ATOM     27  O   LIG    1      -20.010  78.120  15.554  0.00  0.00    -0.495 OA
ATOM     28  H   LIG    1      -20.150  78.347  16.487  0.00  0.00    +0.293 HD
ENDBRANCH  26  27
BRANCH  26  29
ATOM     29  C   LIG    1      -21.054  76.282  14.562  0.00  0.00    +0.130 C 
BRANCH  29  30
ATOM     30  C   LIG    1      -21.272  75.278  15.656  0.00  0.00    -0.038 A 
ATOM     31  C   LIG    1      -20.194  74.613  16.254  0.00  0.00    +0.004 A 
ATOM     32  C   LIG    1      -20.417  73.686  17.272  0.00  0.00    +0.012 A 
ATOM     33  C   LIG    1      -21.721  73.418  17.719  0.00  0.00    +0.055 A 
ATOM     34  C   LIG    1      -22.793  74.107  17.137  0.00  0.00    +0.012 A 
ATOM     35  C   LIG    1      -22.569  75.030  16.117  0.00  0.00    +0.004 A 
BRANCH  33  36
ATOM     36  C   LIG    1      -21.950  72.398  18.805  0.00  0.00    +0.417 C 
ATOM     37  F   LIG    1      -22.209  71.156  18.307  0.00  0.00    -0.166 F 
ATOM     38  F   LIG    1      -23.012  72.711  19.598  0.00  0.00    -0.166 F 
ATOM     39  F   LIG    1      -20.888  72.247  19.646  0.00  0.00    -0.166 F 
ENDBRANCH  33  36
ENDBRANCH  29  30
ENDBRANCH  26  29
ENDBRANCH   3  25
TORSDOF 10
ENDMDL
MODEL 7
REMARK VINA RESULT:      -6.0      2.972      6.234
REMARK  Name = pdb/CHEMBL3914864.pdb
REMARK                            x       y       z     vdW  Elec       q    Type
REMARK                         _______ _______ _______ _____ _____    ______ ____
ROOT
ATOM      1  C   LIG    1      -33.439  74.986  28.748  0.00  0.00    +0.042 A 
ATOM      2  C   LIG    1      -34.376  75.206  27.688  0.00  0.00    +0.042 A 
ATOM      3  C   LIG    1      -34.867  76.506  27.392  0.00  0.00    +0.086 A 
ATOM      4  C   LIG    1      -34.385  77.523  28.205  0.00  0.00    +0.138 A 
ATOM      5  N   LIG    1      -33.455  77.374  29.173  0.00  0.00    -0.260 NA
ATOM      6  C   LIG    1      -33.026  76.112  29.409  0.00  0.00    +0.122 A 
ENDROOT
BRANCH   1   7
ATOM      7  C   LIG    1      -33.010  73.566  29.097  0.00  0.00    +0.197 C 
ATOM      8  O   LIG    1      -31.874  73.380  29.477  0.00  0.00    -0.287 OA
BRANCH   7  17
ATOM      9  N   LIG    1      -35.018  70.610  28.018  0.00  0.00    -0.336 N 
ATOM     10  C   LIG    1      -35.865  71.093  29.011  0.00  0.00    +0.089 A 
ATOM     11  C   LIG    1      -37.094  70.670  29.544  0.00  0.00    +0.165 A 
ATOM     12  F   LIG    1      -37.695  69.527  29.219  0.00  0.00    -0.202 F 
ATOM     13  C   LIG    1      -37.679  71.455  30.524  0.00  0.00    +0.151 A 
ATOM     14  N   LIG    1      -37.155  72.598  31.002  0.00  0.00    -0.260 NA
ATOM     15  C   LIG    1      -35.959  73.010  30.514  0.00  0.00    +0.121 A 
ATOM     16  C   LIG    1      -35.267  72.273  29.532  0.00  0.00    +0.032 A 
ATOM     17  C   LIG    1      -33.957  72.426  28.933  0.00  0.00    +0.049 A 
ATOM     18  C   LIG    1      -33.833  71.318  28.129  0.00  0.00    +0.099 A 
BRANCH   9  20
ATOM     19  C   LIG    1      -36.595  70.062  26.132  0.00  0.00    +0.036 C 
ATOM     20  C   LIG    1      -35.281  69.660  26.890  0.00  0.00    +0.063 C 
ATOM     21  C   LIG    1      -35.506  68.232  27.431  0.00  0.00    +0.036 C 
BRANCH  20  22
ATOM     22  C   LIG    1      -34.202  69.666  25.773  0.00  0.00    +0.183 C 
BRANCH  22  23
ATOM     23  O   LIG    1      -34.548  68.931  24.617  0.00  0.00    -0.393 OA
ATOM     24  H   LIG    1      -33.839  69.052  23.959  0.00  0.00    +0.209 HD
ENDBRANCH  22  23
ENDBRANCH  20  22
ENDBRANCH   9  20
ENDBRANCH   7  17
ENDBRANCH   1   7
BRANCH   3  25
ATOM     25  N   LIG    1      -35.817  76.655  26.355  0.00  0.00    -0.216 NA
ATOM     26  C   LIG    1      -37.100  76.498  26.456  0.00  0.00    +0.192 C 
BRANCH  26  27
ATOM     27  O   LIG    1      -37.792  76.304  27.602  0.00  0.00    -0.495 OA
ATOM     28  H   LIG    1      -38.158  75.406  27.624  0.00  0.00    +0.293 HD
ENDBRANCH  26  27
BRANCH  26  29
ATOM     29  C   LIG    1      -38.068  76.653  25.309  0.00  0.00    +0.130 C 
BRANCH  29  30
ATOM     30  C   LIG    1      -38.721  75.378  24.858  0.00  0.00    -0.038 A 
ATOM     31  C   LIG    1      -38.090  74.141  25.030  0.00  0.00    +0.004 A 
ATOM     32  C   LIG    1      -38.715  72.968  24.607  0.00  0.00    +0.012 A 
ATOM     33  C   LIG    1      -39.990  73.012  24.018  0.00  0.00    +0.055 A 
ATOM     34  C   LIG    1      -40.630  74.250  23.876  0.00  0.00    +0.012 A 
ATOM     35  C   LIG    1      -40.001  75.422  24.294  0.00  0.00    +0.004 A 
BRANCH  33  36
ATOM     36  C   LIG    1      -40.645  71.739  23.546  0.00  0.00    +0.417 C 
ATOM     37  F   LIG    1      -41.356  71.122  24.531  0.00  0.00    -0.166 F 
ATOM     38  F   LIG    1      -39.741  70.820  23.107  0.00  0.00    -0.166 F 
ATOM     39  F   LIG    1      -41.519  71.924  22.517  0.00  0.00    -0.166 F 
ENDBRANCH  33  36
ENDBRANCH  29  30
ENDBRANCH  26  29
ENDBRANCH   3  25
TORSDOF 10
ENDMDL
MODEL 8
REMARK VINA RESULT:      -5.9     12.601     16.791
REMARK  Name = pdb/CHEMBL3914864.pdb
REMARK                            x       y       z     vdW  Elec       q    Type
REMARK                         _______ _______ _______ _____ _____    ______ ____
ROOT
ATOM      1  C   LIG    1      -20.533  77.036  30.590  0.00  0.00    +0.042 A 
ATOM      2  C   LIG    1      -20.477  77.902  31.729  0.00  0.00    +0.042 A 
ATOM      3  C   LIG    1      -19.240  78.263  32.326  0.00  0.00    +0.086 A 
ATOM      4  C   LIG    1      -18.112  77.708  31.737  0.00  0.00    +0.138 A 
ATOM      5  N   LIG    1      -18.109  76.939  30.627  0.00  0.00    -0.260 NA
ATOM      6  C   LIG    1      -19.318  76.630  30.104  0.00  0.00    +0.122 A 
ENDROOT
BRANCH   1   7
ATOM      7  C   LIG    1      -21.882  76.596  30.037  0.00  0.00    +0.197 C 
ATOM      8  O   LIG    1      -22.002  76.460  28.839  0.00  0.00    -0.287 OA
BRANCH   7  17
ATOM      9  N   LIG    1      -24.497  76.657  32.701  0.00  0.00    -0.336 N 
ATOM     10  C   LIG    1      -24.708  75.366  32.224  0.00  0.00    +0.089 A 
ATOM     11  C   LIG    1      -25.607  74.336  32.545  0.00  0.00    +0.165 A 
ATOM     12  F   LIG    1      -26.614  74.466  33.407  0.00  0.00    -0.202 F 
ATOM     13  C   LIG    1      -25.484  73.135  31.867  0.00  0.00    +0.151 A 
ATOM     14  N   LIG    1      -24.561  72.882  30.921  0.00  0.00    -0.260 NA
ATOM     15  C   LIG    1      -23.699  73.872  30.583  0.00  0.00    +0.121 A 
ATOM     16  C   LIG    1      -23.752  75.141  31.195  0.00  0.00    +0.032 A 
ATOM     17  C   LIG    1      -23.041  76.378  30.950  0.00  0.00    +0.049 A 
ATOM     18  C   LIG    1      -23.634  77.272  31.809  0.00  0.00    +0.099 A 
BRANCH   9  20
ATOM     19  C   LIG    1      -24.327  78.753  34.087  0.00  0.00    +0.036 C 
ATOM     20  C   LIG    1      -24.912  77.300  33.989  0.00  0.00    +0.063 C 
ATOM     21  C   LIG    1      -24.341  76.516  35.189  0.00  0.00    +0.036 C 
BRANCH  20  22
ATOM     22  C   LIG    1      -26.442  77.513  34.143  0.00  0.00    +0.183 C 
BRANCH  22  23
ATOM     23  O   LIG    1      -27.157  77.546  32.924  0.00  0.00    -0.393 OA
ATOM     24  H   LIG    1      -26.741  78.213  32.349  0.00  0.00    +0.209 HD
ENDBRANCH  22  23
ENDBRANCH  20  22
ENDBRANCH   9  20
ENDBRANCH   7  17
ENDBRANCH   1   7
BRANCH   3  25
ATOM     25  N   LIG    1      -19.253  79.095  33.470  0.00  0.00    -0.216 NA
ATOM     26  C   LIG    1      -19.498  78.726  34.688  0.00  0.00    +0.192 C 
BRANCH  26  27
ATOM     27  O   LIG    1      -19.646  77.454  35.123  0.00  0.00    -0.495 OA
ATOM     28  H   LIG    1      -18.781  77.070  35.339  0.00  0.00    +0.293 HD
ENDBRANCH  26  27
BRANCH  26  29
ATOM     29  C   LIG    1      -19.516  79.662  35.871  0.00  0.00    +0.130 C 
BRANCH  29  30
ATOM     30  C   LIG    1      -20.849  80.289  36.161  0.00  0.00    -0.038 A 
ATOM     31  C   LIG    1      -21.268  81.443  35.488  0.00  0.00    +0.004 A 
ATOM     32  C   LIG    1      -22.513  82.008  35.769  0.00  0.00    +0.012 A 
ATOM     33  C   LIG    1      -23.365  81.420  36.718  0.00  0.00    +0.055 A 
ATOM     34  C   LIG    1      -22.952  80.249  37.368  0.00  0.00    +0.012 A 
ATOM     35  C   LIG    1      -21.707  79.688  37.089  0.00  0.00    +0.004 A 
BRANCH  33  36
ATOM     36  C   LIG    1      -24.697  82.052  37.028  0.00  0.00    +0.417 C 
ATOM     37  F   LIG    1      -24.839  83.278  36.451  0.00  0.00    -0.166 F 
ATOM     38  F   LIG    1      -24.884  82.245  38.363  0.00  0.00    -0.166 F 
ATOM     39  F   LIG    1      -25.763  81.317  36.605  0.00  0.00    -0.166 F 
ENDBRANCH  33  36
ENDBRANCH  29  30
ENDBRANCH  26  29
ENDBRANCH   3  25
TORSDOF 10
ENDMDL
MODEL 9
REMARK VINA RESULT:      -5.9     12.138     16.705
REMARK  Name = pdb/CHEMBL3914864.pdb
REMARK                            x       y       z     vdW  Elec       q    Type
REMARK                         _______ _______ _______ _____ _____    ______ ____
ROOT
ATOM      1  C   LIG    1      -20.417  76.924  30.469  0.00  0.00    +0.042 A 
ATOM      2  C   LIG    1      -20.477  77.841  31.567  0.00  0.00    +0.042 A 
ATOM      3  C   LIG    1      -19.300  78.277  32.232  0.00  0.00    +0.086 A 
ATOM      4  C   LIG    1      -18.113  77.743  31.751  0.00  0.00    +0.138 A 
ATOM      5  N   LIG    1      -18.001  76.927  30.680  0.00  0.00    -0.260 NA
ATOM      6  C   LIG    1      -19.157  76.546  30.089  0.00  0.00    +0.122 A 
ENDROOT
BRANCH   1   7
ATOM      7  C   LIG    1      -21.706  76.405  29.844  0.00  0.00    +0.197 C 
ATOM      8  O   LIG    1      -21.860  76.524  28.648  0.00  0.00    -0.287 OA
BRANCH   7  17
ATOM      9  N   LIG    1      -23.997  74.237  31.841  0.00  0.00    -0.336 N 
ATOM     10  C   LIG    1      -24.824  75.349  31.698  0.00  0.00    +0.089 A 
ATOM     11  C   LIG    1      -26.115  75.674  32.145  0.00  0.00    +0.165 A 
ATOM     12  F   LIG    1      -26.830  74.918  32.976  0.00  0.00    -0.202 F 
ATOM     13  C   LIG    1      -26.647  76.892  31.755  0.00  0.00    +0.151 A 
ATOM     14  N   LIG    1      -26.013  77.788  30.976  0.00  0.00    -0.260 NA
ATOM     15  C   LIG    1      -24.758  77.500  30.554  0.00  0.00    +0.121 A 
ATOM     16  C   LIG    1      -24.115  76.297  30.912  0.00  0.00    +0.032 A 
ATOM     17  C   LIG    1      -22.772  75.802  30.694  0.00  0.00    +0.049 A 
ATOM     18  C   LIG    1      -22.743  74.617  31.391  0.00  0.00    +0.099 A 
BRANCH   9  20
ATOM     19  C   LIG    1      -23.078  71.896  31.970  0.00  0.00    +0.036 C 
ATOM     20  C   LIG    1      -24.320  72.823  32.216  0.00  0.00    +0.063 C 
ATOM     21  C   LIG    1      -25.457  72.278  31.327  0.00  0.00    +0.036 C 
BRANCH  20  22
ATOM     22  C   LIG    1      -24.641  72.610  33.720  0.00  0.00    +0.183 C 
BRANCH  22  23
ATOM     23  O   LIG    1      -24.128  73.608  34.578  0.00  0.00    -0.393 OA
ATOM     24  H   LIG    1      -23.732  74.306  34.026  0.00  0.00    +0.209 HD
ENDBRANCH  22  23
ENDBRANCH  20  22
ENDBRANCH   9  20
ENDBRANCH   7  17
ENDBRANCH   1   7
BRANCH   3  25
ATOM     25  N   LIG    1      -19.427  79.158  33.332  0.00  0.00    -0.216 NA
ATOM     26  C   LIG    1      -19.465  78.826  34.584  0.00  0.00    +0.192 C 
BRANCH  26  27
ATOM     27  O   LIG    1      -19.247  77.591  35.090  0.00  0.00    -0.495 OA
ATOM     28  H   LIG    1      -18.726  77.650  35.907  0.00  0.00    +0.293 HD
ENDBRANCH  26  27
BRANCH  26  29
ATOM     29  C   LIG    1      -19.620  79.808  35.719  0.00  0.00    +0.130 C 
BRANCH  29  30
ATOM     30  C   LIG    1      -21.037  80.194  36.032  0.00  0.00    -0.038 A 
ATOM     31  C   LIG    1      -21.902  79.305  36.682  0.00  0.00    +0.004 A 
ATOM     32  C   LIG    1      -23.214  79.683  36.967  0.00  0.00    +0.012 A 
ATOM     33  C   LIG    1      -23.679  80.962  36.620  0.00  0.00    +0.055 A 
ATOM     34  C   LIG    1      -22.800  81.858  35.995  0.00  0.00    +0.012 A 
ATOM     35  C   LIG    1      -21.491  81.477  35.707  0.00  0.00    +0.004 A 
BRANCH  33  36
ATOM     36  C   LIG    1      -25.105  81.350  36.914  0.00  0.00    +0.417 C 
ATOM     37  F   LIG    1      -25.420  82.583  36.430  0.00  0.00    -0.166 F 
ATOM     38  F   LIG    1      -25.367  81.396  38.250  0.00  0.00    -0.166 F 
ATOM     39  F   LIG    1      -26.024  80.496  36.384  0.00  0.00    -0.166 F 
ENDBRANCH  33  36
ENDBRANCH  29  30
ENDBRANCH  26  29
ENDBRANCH   3  25
TORSDOF 10
ENDMDL
