MODEL 1
REMARK VINA RESULT:      -6.3      0.000      0.000
REMARK  Name = pdb/CHEMBL3671130.pdb
REMARK                            x       y       z     vdW  Elec       q    Type
REMARK                         _______ _______ _______ _____ _____    ______ ____
ROOT
ATOM      1  C   LIG    1      -21.028  77.247  31.525  0.00  0.00    +0.126 A 
ATOM      2  N   LIG    1      -22.087  77.538  32.254  0.00  0.00    -0.212 NA
ATOM      3  C   LIG    1      -23.324  77.478  31.654  0.00  0.00    +0.170 A 
ATOM      4  C   LIG    1      -24.598  77.715  32.139  0.00  0.00    +0.101 A 
ATOM      5  C   LIG    1      -25.444  77.483  31.034  0.00  0.00    +0.150 A 
ATOM      6  N   LIG    1      -24.780  77.140  29.929  0.00  0.00    -0.173 NA
ATOM      7  N   LIG    1      -23.484  77.122  30.315  0.00  0.00    -0.221 N 
ATOM      8  C   LIG    1      -22.386  76.780  29.549  0.00  0.00    +0.118 A 
ATOM      9  C   LIG    1      -21.161  76.796  30.085  0.00  0.00    +0.063 A 
ENDROOT
BRANCH   1  11
ATOM     10  C   LIG    1      -19.165  78.633  32.509  0.00  0.00    +0.108 C 
ATOM     11  N   LIG    1      -19.758  77.338  32.091  0.00  0.00    -0.308 N 
ATOM     12  C   LIG    1      -18.685  76.395  31.769  0.00  0.00    +0.107 C 
ATOM     13  C   LIG    1      -17.542  77.287  31.327  0.00  0.00    +0.021 C 
ATOM     14  C   LIG    1      -17.645  78.443  32.301  0.00  0.00    +0.029 C 
BRANCH  10  18
ATOM     15  F   LIG    1      -21.508  81.311  35.923  0.00  0.00    -0.205 F 
ATOM     16  C   LIG    1      -20.645  80.333  35.625  0.00  0.00    +0.124 A 
ATOM     17  C   LIG    1      -20.394  80.026  34.288  0.00  0.00    +0.046 A 
ATOM     18  C   LIG    1      -19.490  79.007  33.945  0.00  0.00    +0.011 A 
ATOM     19  C   LIG    1      -18.857  78.327  34.999  0.00  0.00    +0.129 A 
ATOM     20  F   LIG    1      -17.966  77.364  34.728  0.00  0.00    -0.205 F 
ATOM     21  C   LIG    1      -19.115  78.629  36.338  0.00  0.00    +0.041 A 
ATOM     22  C   LIG    1      -20.016  79.642  36.653  0.00  0.00    +0.041 A 
ENDBRANCH  10  18
ENDBRANCH   1  11
BRANCH   4  23
ATOM     23  C   LIG    1      -25.010  78.107  33.478  0.00  0.00    +0.254 C 
ATOM     24  N   LIG    1      -24.011  78.739  34.183  0.00  0.00    -0.266 N 
ATOM     25  H   LIG    1      -23.105  78.798  33.730  0.00  0.00    +0.157 HD
ATOM     26  O   LIG    1      -26.130  77.826  33.879  0.00  0.00    -0.270 OA
BRANCH  24  27
ATOM     27  C   LIG    1      -24.128  79.251  35.475  0.00  0.00    +0.125 A 
ATOM     28  N   LIG    1      -24.713  80.440  35.693  0.00  0.00    -0.240 NA
ATOM     29  C   LIG    1      -24.757  80.900  36.962  0.00  0.00    +0.113 A 
ATOM     30  C   LIG    1      -24.247  80.209  38.047  0.00  0.00    +0.020 A 
ATOM     31  C   LIG    1      -23.655  78.976  37.812  0.00  0.00    +0.005 A 
ATOM     32  C   LIG    1      -23.583  78.495  36.508  0.00  0.00    +0.044 A 
ENDBRANCH  24  27
ENDBRANCH   4  23
TORSDOF 4
ENDMDL
MODEL 2
REMARK VINA RESULT:      -6.1     19.085     21.918
REMARK  Name = pdb/CHEMBL3671130.pdb
REMARK                            x       y       z     vdW  Elec       q    Type
REMARK                         _______ _______ _______ _____ _____    ______ ____
ROOT
ATOM      1  C   LIG    1      -23.317  86.634  12.233  0.00  0.00    +0.126 A 
ATOM      2  N   LIG    1      -23.580  85.342  12.260  0.00  0.00    -0.212 NA
ATOM      3  C   LIG    1      -24.495  84.847  11.361  0.00  0.00    +0.170 A 
ATOM      4  C   LIG    1      -24.973  83.568  11.137  0.00  0.00    +0.101 A 
ATOM      5  C   LIG    1      -25.891  83.715  10.077  0.00  0.00    +0.150 A 
ATOM      6  N   LIG    1      -26.011  84.975   9.658  0.00  0.00    -0.173 NA
ATOM      7  N   LIG    1      -25.144  85.665  10.435  0.00  0.00    -0.221 N 
ATOM      8  C   LIG    1      -24.852  87.014  10.371  0.00  0.00    +0.118 A 
ATOM      9  C   LIG    1      -23.952  87.547  11.204  0.00  0.00    +0.063 A 
ENDROOT
BRANCH   1  11
ATOM     10  C   LIG    1      -21.815  86.362  14.240  0.00  0.00    +0.108 C 
ATOM     11  N   LIG    1      -22.425  87.173  13.158  0.00  0.00    -0.308 N 
ATOM     12  C   LIG    1      -22.478  88.576  13.575  0.00  0.00    +0.107 C 
ATOM     13  C   LIG    1      -22.561  88.500  15.087  0.00  0.00    +0.021 C 
ATOM     14  C   LIG    1      -21.609  87.363  15.400  0.00  0.00    +0.029 C 
BRANCH  10  18
ATOM     15  F   LIG    1      -17.078  86.484  12.871  0.00  0.00    -0.205 F 
ATOM     16  C   LIG    1      -18.173  85.768  13.156  0.00  0.00    +0.124 A 
ATOM     17  C   LIG    1      -19.342  86.428  13.534  0.00  0.00    +0.046 A 
ATOM     18  C   LIG    1      -20.507  85.703  13.834  0.00  0.00    +0.011 A 
ATOM     19  C   LIG    1      -20.438  84.303  13.732  0.00  0.00    +0.129 A 
ATOM     20  F   LIG    1      -21.529  83.565  13.982  0.00  0.00    -0.205 F 
ATOM     21  C   LIG    1      -19.265  83.643  13.362  0.00  0.00    +0.041 A 
ATOM     22  C   LIG    1      -18.123  84.382  13.070  0.00  0.00    +0.041 A 
ENDBRANCH  10  18
ENDBRANCH   1  11
BRANCH   4  23
ATOM     23  C   LIG    1      -24.623  82.329  11.816  0.00  0.00    +0.254 C 
ATOM     24  N   LIG    1      -24.879  82.368  13.168  0.00  0.00    -0.266 N 
ATOM     25  H   LIG    1      -25.207  83.253  13.542  0.00  0.00    +0.157 HD
ATOM     26  O   LIG    1      -24.116  81.412  11.188  0.00  0.00    -0.270 OA
BRANCH  24  27
ATOM     27  C   LIG    1      -24.673  81.319  14.063  0.00  0.00    +0.125 A 
ATOM     28  N   LIG    1      -25.546  80.300  14.139  0.00  0.00    -0.240 NA
ATOM     29  C   LIG    1      -25.313  79.336  15.056  0.00  0.00    +0.113 A 
ATOM     30  C   LIG    1      -24.222  79.334  15.908  0.00  0.00    +0.020 A 
ATOM     31  C   LIG    1      -23.321  80.385  15.813  0.00  0.00    +0.005 A 
ATOM     32  C   LIG    1      -23.555  81.398  14.886  0.00  0.00    +0.044 A 
ENDBRANCH  24  27
ENDBRANCH   4  23
TORSDOF 4
ENDMDL
MODEL 3
REMARK VINA RESULT:      -6.0     15.319     19.400
REMARK  Name = pdb/CHEMBL3671130.pdb
REMARK                            x       y       z     vdW  Elec       q    Type
REMARK                         _______ _______ _______ _____ _____    ______ ____
ROOT
ATOM      1  C   LIG    1      -38.435  73.074  25.070  0.00  0.00    +0.126 A 
ATOM      2  N   LIG    1      -37.858  74.109  25.646  0.00  0.00    -0.212 NA
ATOM      3  C   LIG    1      -38.363  75.361  25.388  0.00  0.00    +0.170 A 
ATOM      4  C   LIG    1      -37.993  76.618  25.832  0.00  0.00    +0.101 A 
ATOM      5  C   LIG    1      -38.903  77.496  25.208  0.00  0.00    +0.150 A 
ATOM      6  N   LIG    1      -39.777  76.870  24.418  0.00  0.00    -0.173 NA
ATOM      7  N   LIG    1      -39.455  75.562  24.542  0.00  0.00    -0.221 N 
ATOM      8  C   LIG    1      -40.092  74.483  23.959  0.00  0.00    +0.118 A 
ATOM      9  C   LIG    1      -39.660  73.240  24.194  0.00  0.00    +0.063 A 
ENDROOT
BRANCH   1  11
ATOM     10  C   LIG    1      -38.757  70.574  25.162  0.00  0.00    +0.108 C 
ATOM     11  N   LIG    1      -37.921  71.795  25.279  0.00  0.00    -0.308 N 
ATOM     12  C   LIG    1      -36.810  71.536  26.196  0.00  0.00    +0.107 C 
ATOM     13  C   LIG    1      -37.350  70.467  27.125  0.00  0.00    +0.021 C 
ATOM     14  C   LIG    1      -38.134  69.585  26.174  0.00  0.00    +0.029 C 
BRANCH  10  18
ATOM     15  F   LIG    1      -36.596  68.613  21.186  0.00  0.00    -0.205 F 
ATOM     16  C   LIG    1      -37.710  69.031  21.799  0.00  0.00    +0.124 A 
ATOM     17  C   LIG    1      -37.628  69.544  23.093  0.00  0.00    +0.046 A 
ATOM     18  C   LIG    1      -38.781  69.994  23.758  0.00  0.00    +0.011 A 
ATOM     19  C   LIG    1      -39.999  69.906  23.065  0.00  0.00    +0.129 A 
ATOM     20  F   LIG    1      -41.125  70.346  23.643  0.00  0.00    -0.205 F 
ATOM     21  C   LIG    1      -40.082  69.384  21.772  0.00  0.00    +0.041 A 
ATOM     22  C   LIG    1      -38.927  68.944  21.133  0.00  0.00    +0.041 A 
ENDBRANCH  10  18
ENDBRANCH   1  11
BRANCH   4  23
ATOM     23  C   LIG    1      -36.919  76.987  26.743  0.00  0.00    +0.254 C 
ATOM     24  N   LIG    1      -35.740  76.329  26.476  0.00  0.00    -0.266 N 
ATOM     25  H   LIG    1      -35.767  75.630  25.741  0.00  0.00    +0.157 HD
ATOM     26  O   LIG    1      -37.135  77.771  27.655  0.00  0.00    -0.270 OA
BRANCH  24  27
ATOM     27  C   LIG    1      -34.539  76.505  27.163  0.00  0.00    +0.125 A 
ATOM     28  N   LIG    1      -33.760  77.573  26.922  0.00  0.00    -0.240 NA
ATOM     29  C   LIG    1      -32.589  77.664  27.589  0.00  0.00    +0.113 A 
ATOM     30  C   LIG    1      -32.157  76.728  28.512  0.00  0.00    +0.020 A 
ATOM     31  C   LIG    1      -32.974  75.635  28.762  0.00  0.00    +0.005 A 
ATOM     32  C   LIG    1      -34.176  75.515  28.070  0.00  0.00    +0.044 A 
ENDBRANCH  24  27
ENDBRANCH   4  23
TORSDOF 4
ENDMDL
MODEL 4
REMARK VINA RESULT:      -6.0     14.912     18.803
REMARK  Name = pdb/CHEMBL3671130.pdb
REMARK                            x       y       z     vdW  Elec       q    Type
REMARK                         _______ _______ _______ _____ _____    ______ ____
ROOT
ATOM      1  C   LIG    1      -38.548  77.514  26.756  0.00  0.00    +0.126 A 
ATOM      2  N   LIG    1      -37.663  78.485  26.869  0.00  0.00    -0.212 NA
ATOM      3  C   LIG    1      -36.778  78.436  27.921  0.00  0.00    +0.170 A 
ATOM      4  C   LIG    1      -35.750  79.280  28.303  0.00  0.00    +0.101 A 
ATOM      5  C   LIG    1      -35.216  78.682  29.464  0.00  0.00    +0.150 A 
ATOM      6  N   LIG    1      -35.847  77.561  29.813  0.00  0.00    -0.173 NA
ATOM      7  N   LIG    1      -36.792  77.403  28.857  0.00  0.00    -0.221 N 
ATOM      8  C   LIG    1      -37.691  76.360  28.732  0.00  0.00    +0.118 A 
ATOM      9  C   LIG    1      -38.559  76.341  27.715  0.00  0.00    +0.063 A 
ENDROOT
BRANCH   1  11
ATOM     10  C   LIG    1      -39.209  76.996  24.379  0.00  0.00    +0.108 C 
ATOM     11  N   LIG    1      -39.485  77.554  25.725  0.00  0.00    -0.308 N 
ATOM     12  C   LIG    1      -40.484  78.619  25.614  0.00  0.00    +0.107 C 
ATOM     13  C   LIG    1      -40.285  79.154  24.209  0.00  0.00    +0.021 C 
ATOM     14  C   LIG    1      -40.032  77.886  23.419  0.00  0.00    +0.029 C 
BRANCH  10  18
ATOM     15  F   LIG    1      -42.351  73.362  23.261  0.00  0.00    -0.205 F 
ATOM     16  C   LIG    1      -41.144  73.743  23.696  0.00  0.00    +0.124 A 
ATOM     17  C   LIG    1      -40.847  75.103  23.787  0.00  0.00    +0.046 A 
ATOM     18  C   LIG    1      -39.590  75.531  24.245  0.00  0.00    +0.011 A 
ATOM     19  C   LIG    1      -38.663  74.538  24.604  0.00  0.00    +0.129 A 
ATOM     20  F   LIG    1      -37.458  74.892  25.071  0.00  0.00    -0.205 F 
ATOM     21  C   LIG    1      -38.958  73.177  24.504  0.00  0.00    +0.041 A 
ATOM     22  C   LIG    1      -40.210  72.776  24.047  0.00  0.00    +0.041 A 
ENDBRANCH  10  18
ENDBRANCH   1  11
BRANCH   4  23
ATOM     23  C   LIG    1      -35.291  80.509  27.672  0.00  0.00    +0.254 C 
ATOM     24  N   LIG    1      -36.227  81.518  27.720  0.00  0.00    -0.266 N 
ATOM     25  H   LIG    1      -37.131  81.280  28.116  0.00  0.00    +0.157 HD
ATOM     26  O   LIG    1      -34.195  80.546  27.135  0.00  0.00    -0.270 OA
BRANCH  24  27
ATOM     27  C   LIG    1      -36.053  82.810  27.224  0.00  0.00    +0.125 A 
ATOM     28  N   LIG    1      -36.095  83.051  25.903  0.00  0.00    -0.240 NA
ATOM     29  C   LIG    1      -35.877  84.316  25.485  0.00  0.00    +0.113 A 
ATOM     30  C   LIG    1      -35.628  85.375  26.339  0.00  0.00    +0.020 A 
ATOM     31  C   LIG    1      -35.598  85.118  27.703  0.00  0.00    +0.005 A 
ATOM     32  C   LIG    1      -35.802  83.816  28.152  0.00  0.00    +0.044 A 
ENDBRANCH  24  27
ENDBRANCH   4  23
TORSDOF 4
ENDMDL
MODEL 5
REMARK VINA RESULT:      -5.8     12.771     16.924
REMARK  Name = pdb/CHEMBL3671130.pdb
REMARK                            x       y       z     vdW  Elec       q    Type
REMARK                         _______ _______ _______ _____ _____    ______ ____
ROOT
ATOM      1  C   LIG    1      -33.795  72.327  28.481  0.00  0.00    +0.126 A 
ATOM      2  N   LIG    1      -34.183  73.514  28.061  0.00  0.00    -0.212 NA
ATOM      3  C   LIG    1      -33.416  74.605  28.400  0.00  0.00    +0.170 A 
ATOM      4  C   LIG    1      -33.548  75.952  28.115  0.00  0.00    +0.101 A 
ATOM      5  C   LIG    1      -32.440  76.556  28.746  0.00  0.00    +0.150 A 
ATOM      6  N   LIG    1      -31.666  75.684  29.393  0.00  0.00    -0.173 NA
ATOM      7  N   LIG    1      -32.257  74.488  29.166  0.00  0.00    -0.221 N 
ATOM      8  C   LIG    1      -31.819  73.245  29.584  0.00  0.00    +0.118 A 
ATOM      9  C   LIG    1      -32.511  72.147  29.262  0.00  0.00    +0.063 A 
ENDROOT
BRANCH   1  11
ATOM     10  C   LIG    1      -36.047  71.198  28.354  0.00  0.00    +0.108 C 
ATOM     11  N   LIG    1      -34.572  71.207  28.189  0.00  0.00    -0.308 N 
ATOM     12  C   LIG    1      -34.061  69.841  28.318  0.00  0.00    +0.107 C 
ATOM     13  C   LIG    1      -35.073  69.162  29.220  0.00  0.00    +0.021 C 
ATOM     14  C   LIG    1      -36.383  69.732  28.715  0.00  0.00    +0.029 C 
BRANCH  10  18
ATOM     15  F   LIG    1      -37.156  70.930  23.556  0.00  0.00    -0.205 F 
ATOM     16  C   LIG    1      -37.336  71.518  24.745  0.00  0.00    +0.124 A 
ATOM     17  C   LIG    1      -36.629  71.051  25.853  0.00  0.00    +0.046 A 
ATOM     18  C   LIG    1      -36.795  71.652  27.112  0.00  0.00    +0.011 A 
ATOM     19  C   LIG    1      -37.689  72.732  27.197  0.00  0.00    +0.129 A 
ATOM     20  F   LIG    1      -37.864  73.358  28.369  0.00  0.00    -0.205 F 
ATOM     21  C   LIG    1      -38.402  73.194  26.089  0.00  0.00    +0.041 A 
ATOM     22  C   LIG    1      -38.223  72.582  24.852  0.00  0.00    +0.041 A 
ENDBRANCH  10  18
ENDBRANCH   1  11
BRANCH   4  23
ATOM     23  C   LIG    1      -34.578  76.628  27.340  0.00  0.00    +0.254 C 
ATOM     24  N   LIG    1      -35.699  75.851  27.146  0.00  0.00    -0.266 N 
ATOM     25  H   LIG    1      -35.657  74.900  27.496  0.00  0.00    +0.157 HD
ATOM     26  O   LIG    1      -34.374  77.749  26.900  0.00  0.00    -0.270 OA
BRANCH  24  27
ATOM     27  C   LIG    1      -36.852  76.247  26.470  0.00  0.00    +0.125 A 
ATOM     28  N   LIG    1      -36.874  76.312  25.128  0.00  0.00    -0.240 NA
ATOM     29  C   LIG    1      -38.008  76.743  24.535  0.00  0.00    +0.113 A 
ATOM     30  C   LIG    1      -39.148  77.105  25.230  0.00  0.00    +0.020 A 
ATOM     31  C   LIG    1      -39.120  77.022  26.615  0.00  0.00    +0.005 A 
ATOM     32  C   LIG    1      -37.953  76.598  27.245  0.00  0.00    +0.044 A 
ENDBRANCH  24  27
ENDBRANCH   4  23
TORSDOF 4
ENDMDL
MODEL 6
REMARK VINA RESULT:      -5.8     18.625     21.388
REMARK  Name = pdb/CHEMBL3671130.pdb
REMARK                            x       y       z     vdW  Elec       q    Type
REMARK                         _______ _______ _______ _____ _____    ______ ____
ROOT
ATOM      1  C   LIG    1      -23.755  85.591  12.149  0.00  0.00    +0.126 A 
ATOM      2  N   LIG    1      -24.211  84.354  12.179  0.00  0.00    -0.212 NA
ATOM      3  C   LIG    1      -25.264  84.031  11.356  0.00  0.00    +0.170 A 
ATOM      4  C   LIG    1      -25.950  82.846  11.154  0.00  0.00    +0.101 A 
ATOM      5  C   LIG    1      -26.921  83.163  10.181  0.00  0.00    +0.150 A 
ATOM      6  N   LIG    1      -26.881  84.438   9.796  0.00  0.00    -0.173 NA
ATOM      7  N   LIG    1      -25.855  84.964  10.504  0.00  0.00    -0.221 N 
ATOM      8  C   LIG    1      -25.365  86.255  10.436  0.00  0.00    +0.118 A 
ATOM      9  C   LIG    1      -24.326  86.620  11.195  0.00  0.00    +0.063 A 
ENDROOT
BRANCH   1  11
ATOM     10  C   LIG    1      -22.738  85.671  14.455  0.00  0.00    +0.108 C 
ATOM     11  N   LIG    1      -22.715  85.961  13.000  0.00  0.00    -0.308 N 
ATOM     12  C   LIG    1      -21.880  87.138  12.754  0.00  0.00    +0.107 C 
ATOM     13  C   LIG    1      -21.982  87.930  14.042  0.00  0.00    +0.021 C 
ATOM     14  C   LIG    1      -21.946  86.836  15.091  0.00  0.00    +0.029 C 
BRANCH  10  18
ATOM     15  F   LIG    1      -22.640  81.423  16.959  0.00  0.00    -0.205 F 
ATOM     16  C   LIG    1      -22.084  82.233  16.049  0.00  0.00    +0.124 A 
ATOM     17  C   LIG    1      -22.694  83.453  15.757  0.00  0.00    +0.046 A 
ATOM     18  C   LIG    1      -22.131  84.324  14.810  0.00  0.00    +0.011 A 
ATOM     19  C   LIG    1      -20.941  83.914  14.185  0.00  0.00    +0.129 A 
ATOM     20  F   LIG    1      -20.348  84.719  13.293  0.00  0.00    -0.205 F 
ATOM     21  C   LIG    1      -20.336  82.688  14.472  0.00  0.00    +0.041 A 
ATOM     22  C   LIG    1      -20.913  81.841  15.413  0.00  0.00    +0.041 A 
ENDBRANCH  10  18
ENDBRANCH   1  11
BRANCH   4  23
ATOM     23  C   LIG    1      -25.740  81.549  11.780  0.00  0.00    +0.254 C 
ATOM     24  N   LIG    1      -24.999  81.626  12.937  0.00  0.00    -0.266 N 
ATOM     25  H   LIG    1      -24.634  82.541  13.182  0.00  0.00    +0.157 HD
ATOM     26  O   LIG    1      -26.168  80.537  11.245  0.00  0.00    -0.270 OA
BRANCH  24  27
ATOM     27  C   LIG    1      -24.669  80.551  13.762  0.00  0.00    +0.125 A 
ATOM     28  N   LIG    1      -25.482  80.179  14.765  0.00  0.00    -0.240 NA
ATOM     29  C   LIG    1      -25.085  79.157  15.554  0.00  0.00    +0.113 A 
ATOM     30  C   LIG    1      -23.898  78.467  15.378  0.00  0.00    +0.020 A 
ATOM     31  C   LIG    1      -23.071  78.852  14.332  0.00  0.00    +0.005 A 
ATOM     32  C   LIG    1      -23.455  79.916  13.520  0.00  0.00    +0.044 A 
ENDBRANCH  24  27
ENDBRANCH   4  23
TORSDOF 4
ENDMDL
MODEL 7
REMARK VINA RESULT:      -5.7     12.339     16.290
REMARK  Name = pdb/CHEMBL3671130.pdb
REMARK                            x       y       z     vdW  Elec       q    Type
REMARK                         _______ _______ _______ _____ _____    ______ ____
ROOT
ATOM      1  C   LIG    1      -33.052  74.080  29.179  0.00  0.00    +0.126 A 
ATOM      2  N   LIG    1      -34.046  74.769  28.653  0.00  0.00    -0.212 NA
ATOM      3  C   LIG    1      -33.833  76.096  28.364  0.00  0.00    +0.170 A 
ATOM      4  C   LIG    1      -34.654  77.066  27.814  0.00  0.00    +0.101 A 
ATOM      5  C   LIG    1      -33.851  78.225  27.773  0.00  0.00    +0.150 A 
ATOM      6  N   LIG    1      -32.626  78.032  28.263  0.00  0.00    -0.173 NA
ATOM      7  N   LIG    1      -32.612  76.724  28.610  0.00  0.00    -0.221 N 
ATOM      8  C   LIG    1      -31.551  76.006  29.128  0.00  0.00    +0.118 A 
ATOM      9  C   LIG    1      -31.691  74.705  29.405  0.00  0.00    +0.063 A 
ENDROOT
BRANCH   1  11
ATOM     10  C   LIG    1      -34.588  72.105  29.500  0.00  0.00    +0.108 C 
ATOM     11  N   LIG    1      -33.248  72.743  29.521  0.00  0.00    -0.308 N 
ATOM     12  C   LIG    1      -32.395  72.047  30.486  0.00  0.00    +0.107 C 
ATOM     13  C   LIG    1      -33.376  71.490  31.499  0.00  0.00    +0.021 C 
ATOM     14  C   LIG    1      -34.522  71.038  30.616  0.00  0.00    +0.029 C 
BRANCH  10  18
ATOM     15  F   LIG    1      -33.736  69.062  25.714  0.00  0.00    -0.205 F 
ATOM     16  C   LIG    1      -34.512  69.987  26.291  0.00  0.00    +0.124 A 
ATOM     17  C   LIG    1      -34.145  70.511  27.530  0.00  0.00    +0.046 A 
ATOM     18  C   LIG    1      -34.938  71.487  28.157  0.00  0.00    +0.011 A 
ATOM     19  C   LIG    1      -36.097  71.905  27.482  0.00  0.00    +0.129 A 
ATOM     20  F   LIG    1      -36.875  72.852  28.023  0.00  0.00    -0.205 F 
ATOM     21  C   LIG    1      -36.468  71.373  26.245  0.00  0.00    +0.041 A 
ATOM     22  C   LIG    1      -35.668  70.407  25.644  0.00  0.00    +0.041 A 
ENDBRANCH  10  18
ENDBRANCH   1  11
BRANCH   4  23
ATOM     23  C   LIG    1      -36.033  76.950  27.363  0.00  0.00    +0.254 C 
ATOM     24  N   LIG    1      -36.140  76.405  26.104  0.00  0.00    -0.266 N 
ATOM     25  H   LIG    1      -35.271  76.214  25.616  0.00  0.00    +0.157 HD
ATOM     26  O   LIG    1      -36.942  77.360  28.069  0.00  0.00    -0.270 OA
BRANCH  24  27
ATOM     27  C   LIG    1      -37.334  76.146  25.431  0.00  0.00    +0.125 A 
ATOM     28  N   LIG    1      -37.998  77.133  24.805  0.00  0.00    -0.240 NA
ATOM     29  C   LIG    1      -39.170  76.826  24.208  0.00  0.00    +0.113 A 
ATOM     30  C   LIG    1      -39.715  75.554  24.195  0.00  0.00    +0.020 A 
ATOM     31  C   LIG    1      -39.016  74.540  24.834  0.00  0.00    +0.005 A 
ATOM     32  C   LIG    1      -37.815  74.841  25.471  0.00  0.00    +0.044 A 
ENDBRANCH  24  27
ENDBRANCH   4  23
TORSDOF 4
ENDMDL
MODEL 8
REMARK VINA RESULT:      -5.7     16.846     18.924
REMARK  Name = pdb/CHEMBL3671130.pdb
REMARK                            x       y       z     vdW  Elec       q    Type
REMARK                         _______ _______ _______ _____ _____    ______ ____
ROOT
ATOM      1  C   LIG    1      -20.587  77.489  15.233  0.00  0.00    +0.126 A 
ATOM      2  N   LIG    1      -21.824  77.910  15.056  0.00  0.00    -0.212 NA
ATOM      3  C   LIG    1      -22.154  79.163  15.516  0.00  0.00    +0.170 A 
ATOM      4  C   LIG    1      -23.338  79.879  15.479  0.00  0.00    +0.101 A 
ATOM      5  C   LIG    1      -23.031  81.101  16.113  0.00  0.00    +0.150 A 
ATOM      6  N   LIG    1      -21.768  81.169  16.536  0.00  0.00    -0.173 NA
ATOM      7  N   LIG    1      -21.229  79.988  16.155  0.00  0.00    -0.221 N 
ATOM      8  C   LIG    1      -19.920  79.574  16.315  0.00  0.00    +0.118 A 
ATOM      9  C   LIG    1      -19.535  78.375  15.866  0.00  0.00    +0.063 A 
ENDROOT
BRANCH   1  11
ATOM     10  C   LIG    1      -19.361  75.321  15.627  0.00  0.00    +0.108 C 
ATOM     11  N   LIG    1      -20.230  76.208  14.815  0.00  0.00    -0.308 N 
ATOM     12  C   LIG    1      -20.102  75.850  13.402  0.00  0.00    +0.107 C 
ATOM     13  C   LIG    1      -18.705  75.269  13.301  0.00  0.00    +0.021 C 
ATOM     14  C   LIG    1      -18.601  74.469  14.584  0.00  0.00    +0.029 C 
BRANCH  10  18
ATOM     15  F   LIG    1      -23.514  73.320  17.383  0.00  0.00    -0.205 F 
ATOM     16  C   LIG    1      -22.186  73.467  17.466  0.00  0.00    +0.124 A 
ATOM     17  C   LIG    1      -21.528  74.272  16.536  0.00  0.00    +0.046 A 
ATOM     18  C   LIG    1      -20.135  74.448  16.602  0.00  0.00    +0.011 A 
ATOM     19  C   LIG    1      -19.451  73.787  17.635  0.00  0.00    +0.129 A 
ATOM     20  F   LIG    1      -18.126  73.941  17.759  0.00  0.00    -0.205 F 
ATOM     21  C   LIG    1      -20.110  72.974  18.560  0.00  0.00    +0.041 A 
ATOM     22  C   LIG    1      -21.489  72.814  18.475  0.00  0.00    +0.041 A 
ENDBRANCH  10  18
ENDBRANCH   1  11
BRANCH   4  23
ATOM     23  C   LIG    1      -24.624  79.493  14.917  0.00  0.00    +0.254 C 
ATOM     24  N   LIG    1      -24.638  78.198  14.451  0.00  0.00    -0.266 N 
ATOM     25  H   LIG    1      -23.759  77.693  14.487  0.00  0.00    +0.157 HD
ATOM     26  O   LIG    1      -25.532  80.308  14.857  0.00  0.00    -0.270 OA
BRANCH  24  27
ATOM     27  C   LIG    1      -25.738  77.549  13.891  0.00  0.00    +0.125 A 
ATOM     28  N   LIG    1      -26.747  77.114  14.664  0.00  0.00    -0.240 NA
ATOM     29  C   LIG    1      -27.763  76.456  14.066  0.00  0.00    +0.113 A 
ATOM     30  C   LIG    1      -27.829  76.219  12.704  0.00  0.00    +0.020 A 
ATOM     31  C   LIG    1      -26.787  76.683  11.913  0.00  0.00    +0.005 A 
ATOM     32  C   LIG    1      -25.722  77.347  12.514  0.00  0.00    +0.044 A 
ENDBRANCH  24  27
ENDBRANCH   4  23
TORSDOF 4
ENDMDL
MODEL 9
REMARK VINA RESULT:      -5.6     17.034     21.016
REMARK  Name = pdb/CHEMBL3671130.pdb
REMARK                            x       y       z     vdW  Elec       q    Type
REMARK                         _______ _______ _______ _____ _____    ______ ____
ROOT
ATOM      1  C   LIG    1      -38.633  68.770  21.926  0.00  0.00    +0.126 A 
ATOM      2  N   LIG    1      -37.717  68.428  22.810  0.00  0.00    -0.212 NA
ATOM      3  C   LIG    1      -36.551  67.863  22.350  0.00  0.00    +0.170 A 
ATOM      4  C   LIG    1      -35.420  67.411  23.007  0.00  0.00    +0.101 A 
ATOM      5  C   LIG    1      -34.577  66.943  21.978  0.00  0.00    +0.150 A 
ATOM      6  N   LIG    1      -35.114  67.066  20.764  0.00  0.00    -0.173 NA
ATOM      7  N   LIG    1      -36.316  67.644  20.993  0.00  0.00    -0.221 N 
ATOM      8  C   LIG    1      -37.253  68.029  20.052  0.00  0.00    +0.118 A 
ATOM      9  C   LIG    1      -38.395  68.607  20.440  0.00  0.00    +0.063 A 
ENDROOT
BRANCH   1  11
ATOM     10  C   LIG    1      -40.063  69.730  23.769  0.00  0.00    +0.108 C 
ATOM     11  N   LIG    1      -39.843  69.308  22.363  0.00  0.00    -0.308 N 
ATOM     12  C   LIG    1      -41.126  68.948  21.758  0.00  0.00    +0.107 C 
ATOM     13  C   LIG    1      -41.965  68.492  22.936  0.00  0.00    +0.021 C 
ATOM     14  C   LIG    1      -41.571  69.484  24.011  0.00  0.00    +0.029 C 
BRANCH  10  18
ATOM     15  F   LIG    1      -40.867  74.589  23.510  0.00  0.00    -0.205 F 
ATOM     16  C   LIG    1      -40.084  73.574  23.895  0.00  0.00    +0.124 A 
ATOM     17  C   LIG    1      -40.489  72.263  23.639  0.00  0.00    +0.046 A 
ATOM     18  C   LIG    1      -39.685  71.178  24.028  0.00  0.00    +0.011 A 
ATOM     19  C   LIG    1      -38.473  71.474  24.673  0.00  0.00    +0.129 A 
ATOM     20  F   LIG    1      -37.656  70.477  25.041  0.00  0.00    -0.205 F 
ATOM     21  C   LIG    1      -38.073  72.786  24.936  0.00  0.00    +0.041 A 
ATOM     22  C   LIG    1      -38.885  73.845  24.543  0.00  0.00    +0.041 A 
ENDBRANCH  10  18
ENDBRANCH   1  11
BRANCH   4  23
ATOM     23  C   LIG    1      -35.129  67.410  24.434  0.00  0.00    +0.254 C 
ATOM     24  N   LIG    1      -35.061  68.677  24.968  0.00  0.00    -0.266 N 
ATOM     25  H   LIG    1      -35.150  69.449  24.315  0.00  0.00    +0.157 HD
ATOM     26  O   LIG    1      -34.931  66.354  25.015  0.00  0.00    -0.270 OA
BRANCH  24  27
ATOM     27  C   LIG    1      -34.830  68.981  26.309  0.00  0.00    +0.125 A 
ATOM     28  N   LIG    1      -35.848  69.064  27.181  0.00  0.00    -0.240 NA
ATOM     29  C   LIG    1      -35.562  69.403  28.456  0.00  0.00    +0.113 A 
ATOM     30  C   LIG    1      -34.281  69.656  28.915  0.00  0.00    +0.020 A 
ATOM     31  C   LIG    1      -33.235  69.556  28.009  0.00  0.00    +0.005 A 
ATOM     32  C   LIG    1      -33.513  69.226  26.685  0.00  0.00    +0.044 A 
ENDBRANCH  24  27
ENDBRANCH   4  23
TORSDOF 4
ENDMDL
