MODEL 1
REMARK VINA RESULT:      -6.3      0.000      0.000
REMARK  Name = pdb/CHEMBL1794056.pdb
REMARK                            x       y       z     vdW  Elec       q    Type
REMARK                         _______ _______ _______ _____ _____    ______ ____
ROOT
ATOM      1  C   LIG    1      -35.718  76.061  27.124  0.00  0.00    +0.078 C 
ATOM      2  N   LIG    1      -36.262  76.457  25.929  0.00  0.00    -0.363 N 
ATOM      3  H   LIG    1      -35.686  77.090  25.375  0.00  0.00    +0.165 HD
ENDROOT
BRANCH   1   6
ATOM      4  O   LIG    1      -34.573  78.858  27.454  0.00  0.00    -0.274 OA
ATOM      5  C   LIG    1      -34.069  77.838  27.872  0.00  0.00    +0.235 C 
ATOM      6  C   LIG    1      -34.588  76.438  27.726  0.00  0.00    +0.129 C 
ATOM      7  C   LIG    1      -33.631  75.539  28.370  0.00  0.00    -0.004 A 
ATOM      8  C   LIG    1      -33.570  74.163  28.509  0.00  0.00    +0.007 A 
ATOM      9  C   LIG    1      -32.460  73.619  29.161  0.00  0.00    +0.000 A 
ATOM     10  C   LIG    1      -31.442  74.451  29.661  0.00  0.00    +0.002 A 
ATOM     11  C   LIG    1      -31.514  75.841  29.521  0.00  0.00    +0.023 A 
ATOM     12  C   LIG    1      -32.615  76.356  28.869  0.00  0.00    +0.038 A 
ATOM     13  N   LIG    1      -32.883  77.697  28.587  0.00  0.00    -0.284 N 
ATOM     14  H   LIG    1      -32.299  78.479  28.838  0.00  0.00    +0.155 HD
ENDBRANCH   1   6
BRANCH   2  15
ATOM     15  C   LIG    1      -37.497  76.065  25.379  0.00  0.00    +0.039 A 
ATOM     16  C   LIG    1      -38.429  76.976  24.860  0.00  0.00    +0.027 A 
ATOM     17  C   LIG    1      -39.627  76.551  24.279  0.00  0.00    +0.030 A 
ATOM     18  C   LIG    1      -39.922  75.188  24.203  0.00  0.00    +0.067 A 
ATOM     19  C   LIG    1      -39.009  74.263  24.718  0.00  0.00    +0.030 A 
ATOM     20  C   LIG    1      -37.809  74.702  25.295  0.00  0.00    +0.027 A 
BRANCH  18  21
ATOM     21  N   LIG    1      -41.128  74.768  23.588  0.00  0.00    -0.220 N 
ATOM     22  N   LIG    1      -41.396  73.461  23.333  0.00  0.00    -0.154 NA
ATOM     23  C   LIG    1      -42.618  73.523  22.804  0.00  0.00    +0.245 A 
ATOM     24  N   LIG    1      -43.146  74.771  22.687  0.00  0.00    -0.222 NA
ATOM     25  C   LIG    1      -42.194  75.531  23.177  0.00  0.00    +0.225 A 
ENDBRANCH  18  21
ENDBRANCH   2  15
TORSDOF 3
ENDMDL
MODEL 2
REMARK VINA RESULT:      -6.0      2.103      8.980
REMARK  Name = pdb/CHEMBL1794056.pdb
REMARK                            x       y       z     vdW  Elec       q    Type
REMARK                         _______ _______ _______ _____ _____    ______ ____
ROOT
ATOM      1  C   LIG    1      -36.612  75.966  26.780  0.00  0.00    +0.078 C 
ATOM      2  N   LIG    1      -35.325  76.404  26.601  0.00  0.00    -0.363 N 
ATOM      3  H   LIG    1      -35.167  76.967  25.765  0.00  0.00    +0.165 HD
ENDROOT
BRANCH   1   6
ATOM      4  O   LIG    1      -38.135  78.474  25.981  0.00  0.00    -0.274 OA
ATOM      5  C   LIG    1      -38.394  77.348  25.616  0.00  0.00    +0.235 C 
ATOM      6  C   LIG    1      -37.682  76.082  25.989  0.00  0.00    +0.129 C 
ATOM      7  C   LIG    1      -38.367  74.973  25.325  0.00  0.00    -0.004 A 
ATOM      8  C   LIG    1      -38.179  73.602  25.335  0.00  0.00    +0.007 A 
ATOM      9  C   LIG    1      -39.070  72.813  24.602  0.00  0.00    +0.000 A 
ATOM     10  C   LIG    1      -40.121  73.402  23.875  0.00  0.00    +0.002 A 
ATOM     11  C   LIG    1      -40.300  74.790  23.867  0.00  0.00    +0.023 A 
ATOM     12  C   LIG    1      -39.413  75.549  24.602  0.00  0.00    +0.038 A 
ATOM     13  N   LIG    1      -39.415  76.935  24.765  0.00  0.00    -0.284 N 
ATOM     14  H   LIG    1      -40.073  77.575  24.349  0.00  0.00    +0.155 HD
ENDBRANCH   1   6
BRANCH   2  15
ATOM     15  C   LIG    1      -34.223  76.193  27.450  0.00  0.00    +0.039 A 
ATOM     16  C   LIG    1      -33.275  77.185  27.739  0.00  0.00    +0.027 A 
ATOM     17  C   LIG    1      -32.216  76.956  28.622  0.00  0.00    +0.030 A 
ATOM     18  C   LIG    1      -32.081  75.713  29.244  0.00  0.00    +0.067 A 
ATOM     19  C   LIG    1      -33.012  74.707  28.967  0.00  0.00    +0.030 A 
ATOM     20  C   LIG    1      -34.072  74.951  28.082  0.00  0.00    +0.027 A 
BRANCH  18  21
ATOM     21  N   LIG    1      -31.018  75.501  30.157  0.00  0.00    -0.220 N 
ATOM     22  N   LIG    1      -30.103  76.463  30.442  0.00  0.00    -0.154 NA
ATOM     23  C   LIG    1      -29.337  75.860  31.352  0.00  0.00    +0.245 A 
ATOM     24  N   LIG    1      -29.683  74.581  31.659  0.00  0.00    -0.222 NA
ATOM     25  C   LIG    1      -30.732  74.378  30.895  0.00  0.00    +0.225 A 
ENDBRANCH  18  21
ENDBRANCH   2  15
TORSDOF 3
ENDMDL
MODEL 3
REMARK VINA RESULT:      -5.8      4.962      7.538
REMARK  Name = pdb/CHEMBL1794056.pdb
REMARK                            x       y       z     vdW  Elec       q    Type
REMARK                         _______ _______ _______ _____ _____    ______ ____
ROOT
ATOM      1  C   LIG    1      -39.703  77.027  24.180  0.00  0.00    +0.078 C 
ATOM      2  N   LIG    1      -39.215  78.293  23.982  0.00  0.00    -0.363 N 
ATOM      3  H   LIG    1      -38.198  78.377  23.993  0.00  0.00    +0.165 HD
ENDROOT
BRANCH   1   6
ATOM      4  O   LIG    1      -36.926  76.647  25.360  0.00  0.00    -0.274 OA
ATOM      5  C   LIG    1      -37.693  75.756  25.066  0.00  0.00    +0.235 C 
ATOM      6  C   LIG    1      -39.064  75.891  24.474  0.00  0.00    +0.129 C 
ATOM      7  C   LIG    1      -39.597  74.544  24.271  0.00  0.00    -0.004 A 
ATOM      8  C   LIG    1      -40.778  74.065  23.732  0.00  0.00    +0.007 A 
ATOM      9  C   LIG    1      -40.946  72.679  23.649  0.00  0.00    +0.000 A 
ATOM     10  C   LIG    1      -39.941  71.806  24.105  0.00  0.00    +0.002 A 
ATOM     11  C   LIG    1      -38.753  72.300  24.654  0.00  0.00    +0.023 A 
ATOM     12  C   LIG    1      -38.606  73.670  24.721  0.00  0.00    +0.038 A 
ATOM     13  N   LIG    1      -37.504  74.383  25.196  0.00  0.00    -0.284 N 
ATOM     14  H   LIG    1      -36.659  73.979  25.569  0.00  0.00    +0.155 HD
ENDBRANCH   1   6
BRANCH   2  15
ATOM     15  C   LIG    1      -39.953  79.466  23.737  0.00  0.00    +0.039 A 
ATOM     16  C   LIG    1      -39.405  80.602  23.122  0.00  0.00    +0.027 A 
ATOM     17  C   LIG    1      -40.177  81.736  22.853  0.00  0.00    +0.030 A 
ATOM     18  C   LIG    1      -41.531  81.758  23.195  0.00  0.00    +0.067 A 
ATOM     19  C   LIG    1      -42.096  80.638  23.814  0.00  0.00    +0.030 A 
ATOM     20  C   LIG    1      -41.312  79.505  24.075  0.00  0.00    +0.027 A 
BRANCH  18  21
ATOM     21  N   LIG    1      -42.309  82.902  22.893  0.00  0.00    -0.220 N 
ATOM     22  N   LIG    1      -41.766  84.032  22.371  0.00  0.00    -0.154 NA
ATOM     23  C   LIG    1      -42.837  84.811  22.214  0.00  0.00    +0.245 A 
ATOM     24  N   LIG    1      -44.021  84.271  22.610  0.00  0.00    -0.222 NA
ATOM     25  C   LIG    1      -43.663  83.082  23.037  0.00  0.00    +0.225 A 
ENDBRANCH  18  21
ENDBRANCH   2  15
TORSDOF 3
ENDMDL
MODEL 4
REMARK VINA RESULT:      -5.8     18.543     19.832
REMARK  Name = pdb/CHEMBL1794056.pdb
REMARK                            x       y       z     vdW  Elec       q    Type
REMARK                         _______ _______ _______ _____ _____    ______ ____
ROOT
ATOM      1  C   LIG    1      -22.493  83.323  13.679  0.00  0.00    +0.078 C 
ATOM      2  N   LIG    1      -22.756  82.229  14.462  0.00  0.00    -0.363 N 
ATOM      3  H   LIG    1      -22.161  82.127  15.286  0.00  0.00    +0.165 HD
ENDROOT
BRANCH   1   6
ATOM      4  O   LIG    1      -19.487  82.906  13.873  0.00  0.00    -0.274 OA
ATOM      5  C   LIG    1      -20.048  83.980  13.852  0.00  0.00    +0.235 C 
ATOM      6  C   LIG    1      -21.523  84.237  13.768  0.00  0.00    +0.129 C 
ATOM      7  C   LIG    1      -21.726  85.685  13.797  0.00  0.00    -0.004 A 
ATOM      8  C   LIG    1      -22.857  86.483  13.787  0.00  0.00    +0.007 A 
ATOM      9  C   LIG    1      -22.682  87.867  13.874  0.00  0.00    +0.000 A 
ATOM     10  C   LIG    1      -21.394  88.425  13.963  0.00  0.00    +0.002 A 
ATOM     11  C   LIG    1      -20.256  87.610  13.967  0.00  0.00    +0.023 A 
ATOM     12  C   LIG    1      -20.451  86.247  13.887  0.00  0.00    +0.038 A 
ATOM     13  N   LIG    1      -19.477  85.248  13.905  0.00  0.00    -0.284 N 
ATOM     14  H   LIG    1      -18.482  85.398  13.970  0.00  0.00    +0.155 HD
ENDBRANCH   1   6
BRANCH   2  15
ATOM     15  C   LIG    1      -23.762  81.263  14.275  0.00  0.00    +0.039 A 
ATOM     16  C   LIG    1      -24.415  81.064  13.050  0.00  0.00    +0.027 A 
ATOM     17  C   LIG    1      -25.380  80.065  12.885  0.00  0.00    +0.030 A 
ATOM     18  C   LIG    1      -25.714  79.233  13.955  0.00  0.00    +0.067 A 
ATOM     19  C   LIG    1      -25.078  79.417  15.187  0.00  0.00    +0.030 A 
ATOM     20  C   LIG    1      -24.110  80.420  15.338  0.00  0.00    +0.027 A 
BRANCH  18  21
ATOM     21  N   LIG    1      -26.674  78.207  13.769  0.00  0.00    -0.220 N 
ATOM     22  N   LIG    1      -26.746  77.124  14.586  0.00  0.00    -0.154 NA
ATOM     23  C   LIG    1      -27.788  76.462  14.081  0.00  0.00    +0.245 A 
ATOM     24  N   LIG    1      -28.377  77.031  12.995  0.00  0.00    -0.222 NA
ATOM     25  C   LIG    1      -27.659  78.115  12.816  0.00  0.00    +0.225 A 
ENDBRANCH  18  21
ENDBRANCH   2  15
TORSDOF 3
ENDMDL
MODEL 5
REMARK VINA RESULT:      -5.7     18.161     19.623
REMARK  Name = pdb/CHEMBL1794056.pdb
REMARK                            x       y       z     vdW  Elec       q    Type
REMARK                         _______ _______ _______ _____ _____    ______ ____
ROOT
ATOM      1  C   LIG    1      -31.433  93.382  21.455  0.00  0.00    +0.078 C 
ATOM      2  N   LIG    1      -32.542  93.388  20.649  0.00  0.00    -0.363 N 
ATOM      3  H   LIG    1      -33.308  93.984  20.963  0.00  0.00    +0.165 HD
ENDROOT
BRANCH   1   6
ATOM      4  O   LIG    1      -32.581  92.654  24.176  0.00  0.00    -0.274 OA
ATOM      5  C   LIG    1      -31.806  93.561  23.959  0.00  0.00    +0.235 C 
ATOM      6  C   LIG    1      -31.222  93.965  22.638  0.00  0.00    +0.129 C 
ATOM      7  C   LIG    1      -30.362  95.126  22.867  0.00  0.00    -0.004 A 
ATOM      8  C   LIG    1      -29.611  95.929  22.027  0.00  0.00    +0.007 A 
ATOM      9  C   LIG    1      -28.927  97.009  22.591  0.00  0.00    +0.000 A 
ATOM     10  C   LIG    1      -29.001  97.263  23.973  0.00  0.00    +0.002 A 
ATOM     11  C   LIG    1      -29.758  96.442  24.817  0.00  0.00    +0.023 A 
ATOM     12  C   LIG    1      -30.429  95.386  24.238  0.00  0.00    +0.038 A 
ATOM     13  N   LIG    1      -31.263  94.462  24.870  0.00  0.00    -0.284 N 
ATOM     14  H   LIG    1      -31.477  94.441  25.854  0.00  0.00    +0.155 HD
ENDBRANCH   1   6
BRANCH   2  15
ATOM     15  C   LIG    1      -32.724  92.696  19.437  0.00  0.00    +0.039 A 
ATOM     16  C   LIG    1      -33.605  91.614  19.296  0.00  0.00    +0.027 A 
ATOM     17  C   LIG    1      -33.795  90.976  18.066  0.00  0.00    +0.030 A 
ATOM     18  C   LIG    1      -33.100  91.414  16.937  0.00  0.00    +0.067 A 
ATOM     19  C   LIG    1      -32.212  92.488  17.056  0.00  0.00    +0.030 A 
ATOM     20  C   LIG    1      -32.033  93.121  18.295  0.00  0.00    +0.027 A 
BRANCH  18  21
ATOM     21  N   LIG    1      -33.320  90.776  15.691  0.00  0.00    -0.220 N 
ATOM     22  N   LIG    1      -33.451  91.473  14.532  0.00  0.00    -0.154 NA
ATOM     23  C   LIG    1      -33.598  90.499  13.634  0.00  0.00    +0.245 A 
ATOM     24  N   LIG    1      -33.587  89.233  14.132  0.00  0.00    -0.222 NA
ATOM     25  C   LIG    1      -33.419  89.434  15.418  0.00  0.00    +0.225 A 
ENDBRANCH  18  21
ENDBRANCH   2  15
TORSDOF 3
ENDMDL
MODEL 6
REMARK VINA RESULT:      -5.6     19.960     21.836
REMARK  Name = pdb/CHEMBL1794056.pdb
REMARK                            x       y       z     vdW  Elec       q    Type
REMARK                         _______ _______ _______ _____ _____    ______ ____
ROOT
ATOM      1  C   LIG    1      -22.459  83.673  14.547  0.00  0.00    +0.078 C 
ATOM      2  N   LIG    1      -22.752  84.943  14.970  0.00  0.00    -0.363 N 
ATOM      3  H   LIG    1      -22.912  85.044  15.973  0.00  0.00    +0.165 HD
ENDROOT
BRANCH   1   6
ATOM      4  O   LIG    1      -22.420  83.222  17.554  0.00  0.00    -0.274 OA
ATOM      5  C   LIG    1      -22.426  82.350  16.712  0.00  0.00    +0.235 C 
ATOM      6  C   LIG    1      -22.435  82.521  15.222  0.00  0.00    +0.129 C 
ATOM      7  C   LIG    1      -22.415  81.188  14.621  0.00  0.00    -0.004 A 
ATOM      8  C   LIG    1      -22.376  80.740  13.312  0.00  0.00    +0.007 A 
ATOM      9  C   LIG    1      -22.319  79.361  13.093  0.00  0.00    +0.000 A 
ATOM     10  C   LIG    1      -22.307  78.461  14.174  0.00  0.00    +0.002 A 
ATOM     11  C   LIG    1      -22.353  78.923  15.495  0.00  0.00    +0.023 A 
ATOM     12  C   LIG    1      -22.402  80.287  15.688  0.00  0.00    +0.038 A 
ATOM     13  N   LIG    1      -22.422  80.972  16.904  0.00  0.00    -0.284 N 
ATOM     14  H   LIG    1      -22.413  80.546  17.818  0.00  0.00    +0.155 HD
ENDBRANCH   1   6
BRANCH   2  15
ATOM     15  C   LIG    1      -22.822  86.111  14.189  0.00  0.00    +0.039 A 
ATOM     16  C   LIG    1      -22.419  87.372  14.654  0.00  0.00    +0.027 A 
ATOM     17  C   LIG    1      -22.460  88.505  13.837  0.00  0.00    +0.030 A 
ATOM     18  C   LIG    1      -22.910  88.401  12.519  0.00  0.00    +0.067 A 
ATOM     19  C   LIG    1      -23.322  87.155  12.036  0.00  0.00    +0.030 A 
ATOM     20  C   LIG    1      -23.272  86.025  12.864  0.00  0.00    +0.027 A 
BRANCH  18  21
ATOM     21  N   LIG    1      -22.922  89.552  11.693  0.00  0.00    -0.220 N 
ATOM     22  N   LIG    1      -24.055  90.264  11.458  0.00  0.00    -0.154 NA
ATOM     23  C   LIG    1      -23.607  91.255  10.685  0.00  0.00    +0.245 A 
ATOM     24  N   LIG    1      -22.278  91.221  10.395  0.00  0.00    -0.222 NA
ATOM     25  C   LIG    1      -21.875  90.145  11.030  0.00  0.00    +0.225 A 
ENDBRANCH  18  21
ENDBRANCH   2  15
TORSDOF 3
ENDMDL
MODEL 7
REMARK VINA RESULT:      -5.4     21.549     24.045
REMARK  Name = pdb/CHEMBL1794056.pdb
REMARK                            x       y       z     vdW  Elec       q    Type
REMARK                         _______ _______ _______ _____ _____    ______ ____
ROOT
ATOM      1  C   LIG    1      -30.327  94.002  16.483  0.00  0.00    +0.078 C 
ATOM      2  N   LIG    1      -29.370  93.590  15.592  0.00  0.00    -0.363 N 
ATOM      3  H   LIG    1      -29.439  92.616  15.295  0.00  0.00    +0.165 HD
ENDROOT
BRANCH   1   6
ATOM      4  O   LIG    1      -32.287  91.996  15.308  0.00  0.00    -0.274 OA
ATOM      5  C   LIG    1      -32.229  92.322  16.473  0.00  0.00    +0.235 C 
ATOM      6  C   LIG    1      -31.290  93.311  17.098  0.00  0.00    +0.129 C 
ATOM      7  C   LIG    1      -31.610  93.391  18.523  0.00  0.00    -0.004 A 
ATOM      8  C   LIG    1      -31.108  94.151  19.565  0.00  0.00    +0.007 A 
ATOM      9  C   LIG    1      -31.694  94.002  20.826  0.00  0.00    +0.000 A 
ATOM     10  C   LIG    1      -32.758  93.103  21.022  0.00  0.00    +0.002 A 
ATOM     11  C   LIG    1      -33.255  92.335  19.963  0.00  0.00    +0.023 A 
ATOM     12  C   LIG    1      -32.667  92.501  18.727  0.00  0.00    +0.038 A 
ATOM     13  N   LIG    1      -33.014  91.872  17.531  0.00  0.00    -0.284 N 
ATOM     14  H   LIG    1      -33.748  91.191  17.416  0.00  0.00    +0.155 HD
ENDBRANCH   1   6
BRANCH   2  15
ATOM     15  C   LIG    1      -28.337  94.361  15.027  0.00  0.00    +0.039 A 
ATOM     16  C   LIG    1      -27.878  95.560  15.591  0.00  0.00    +0.027 A 
ATOM     17  C   LIG    1      -26.819  96.279  15.028  0.00  0.00    +0.030 A 
ATOM     18  C   LIG    1      -26.189  95.808  13.875  0.00  0.00    +0.067 A 
ATOM     19  C   LIG    1      -26.634  94.616  13.292  0.00  0.00    +0.030 A 
ATOM     20  C   LIG    1      -27.694  93.903  13.869  0.00  0.00    +0.027 A 
BRANCH  18  21
ATOM     21  N   LIG    1      -25.100  96.531  13.328  0.00  0.00    -0.220 N 
ATOM     22  N   LIG    1      -24.339  97.372  14.076  0.00  0.00    -0.154 NA
ATOM     23  C   LIG    1      -23.434  97.792  13.191  0.00  0.00    +0.245 A 
ATOM     24  N   LIG    1      -23.568  97.297  11.931  0.00  0.00    -0.222 NA
ATOM     25  C   LIG    1      -24.619  96.518  12.042  0.00  0.00    +0.225 A 
ENDBRANCH  18  21
ENDBRANCH   2  15
TORSDOF 3
ENDMDL
MODEL 8
REMARK VINA RESULT:      -5.4     17.429     20.789
REMARK  Name = pdb/CHEMBL1794056.pdb
REMARK                            x       y       z     vdW  Elec       q    Type
REMARK                         _______ _______ _______ _____ _____    ______ ____
ROOT
ATOM      1  C   LIG    1      -33.592  92.576  20.356  0.00  0.00    +0.078 C 
ATOM      2  N   LIG    1      -32.322  92.571  20.874  0.00  0.00    -0.363 N 
ATOM      3  H   LIG    1      -31.700  91.854  20.501  0.00  0.00    +0.165 HD
ENDROOT
BRANCH   1   6
ATOM      4  O   LIG    1      -35.950  90.714  20.824  0.00  0.00    -0.274 OA
ATOM      5  C   LIG    1      -35.351  90.841  19.778  0.00  0.00    +0.235 C 
ATOM      6  C   LIG    1      -34.179  91.736  19.501  0.00  0.00    +0.129 C 
ATOM      7  C   LIG    1      -33.782  91.532  18.108  0.00  0.00    -0.004 A 
ATOM      8  C   LIG    1      -32.762  92.050  17.329  0.00  0.00    +0.007 A 
ATOM      9  C   LIG    1      -32.644  91.589  16.014  0.00  0.00    +0.000 A 
ATOM     10  C   LIG    1      -33.541  90.632  15.505  0.00  0.00    +0.002 A 
ATOM     11  C   LIG    1      -34.573  90.118  16.299  0.00  0.00    +0.023 A 
ATOM     12  C   LIG    1      -34.667  90.582  17.594  0.00  0.00    +0.038 A 
ATOM     13  N   LIG    1      -35.587  90.193  18.569  0.00  0.00    -0.284 N 
ATOM     14  H   LIG    1      -36.324  89.517  18.446  0.00  0.00    +0.155 HD
ENDBRANCH   1   6
BRANCH   2  15
ATOM     15  C   LIG    1      -31.783  93.455  21.827  0.00  0.00    +0.039 A 
ATOM     16  C   LIG    1      -32.048  93.357  23.201  0.00  0.00    +0.027 A 
ATOM     17  C   LIG    1      -31.460  94.225  24.127  0.00  0.00    +0.030 A 
ATOM     18  C   LIG    1      -30.583  95.220  23.693  0.00  0.00    +0.067 A 
ATOM     19  C   LIG    1      -30.308  95.339  22.327  0.00  0.00    +0.030 A 
ATOM     20  C   LIG    1      -30.901  94.461  21.409  0.00  0.00    +0.027 A 
BRANCH  18  21
ATOM     21  N   LIG    1      -29.973  96.077  24.643  0.00  0.00    -0.220 N 
ATOM     22  N   LIG    1      -30.208  95.966  25.976  0.00  0.00    -0.154 NA
ATOM     23  C   LIG    1      -29.419  96.915  26.480  0.00  0.00    +0.245 A 
ATOM     24  N   LIG    1      -28.710  97.636  25.569  0.00  0.00    -0.222 NA
ATOM     25  C   LIG    1      -29.078  97.097  24.430  0.00  0.00    +0.225 A 
ENDBRANCH  18  21
ENDBRANCH   2  15
TORSDOF 3
ENDMDL
MODEL 9
REMARK VINA RESULT:      -5.3      9.409     14.318
REMARK  Name = pdb/CHEMBL1794056.pdb
REMARK                            x       y       z     vdW  Elec       q    Type
REMARK                         _______ _______ _______ _____ _____    ______ ____
ROOT
ATOM      1  C   LIG    1      -35.275  85.685  26.773  0.00  0.00    +0.078 C 
ATOM      2  N   LIG    1      -34.481  85.183  27.772  0.00  0.00    -0.363 N 
ATOM      3  H   LIG    1      -34.451  84.166  27.837  0.00  0.00    +0.165 HD
ENDROOT
BRANCH   1   6
ATOM      4  O   LIG    1      -35.762  82.703  26.436  0.00  0.00    -0.274 OA
ATOM      5  C   LIG    1      -36.304  83.580  25.799  0.00  0.00    +0.235 C 
ATOM      6  C   LIG    1      -36.091  85.060  25.921  0.00  0.00    +0.129 C 
ATOM      7  C   LIG    1      -36.945  85.716  24.931  0.00  0.00    -0.004 A 
ATOM      8  C   LIG    1      -37.132  87.039  24.570  0.00  0.00    +0.007 A 
ATOM      9  C   LIG    1      -38.017  87.313  23.524  0.00  0.00    +0.000 A 
ATOM     10  C   LIG    1      -38.697  86.272  22.866  0.00  0.00    +0.002 A 
ATOM     11  C   LIG    1      -38.506  84.938  23.242  0.00  0.00    +0.023 A 
ATOM     12  C   LIG    1      -37.624  84.689  24.272  0.00  0.00    +0.038 A 
ATOM     13  N   LIG    1      -37.255  83.447  24.792  0.00  0.00    -0.284 N 
ATOM     14  H   LIG    1      -37.602  82.553  24.481  0.00  0.00    +0.155 HD
ENDBRANCH   1   6
BRANCH   2  15
ATOM     15  C   LIG    1      -33.689  85.908  28.682  0.00  0.00    +0.039 A 
ATOM     16  C   LIG    1      -32.774  85.301  29.555  0.00  0.00    +0.027 A 
ATOM     17  C   LIG    1      -31.970  86.053  30.416  0.00  0.00    +0.030 A 
ATOM     18  C   LIG    1      -32.065  87.446  30.423  0.00  0.00    +0.067 A 
ATOM     19  C   LIG    1      -32.975  88.072  29.564  0.00  0.00    +0.030 A 
ATOM     20  C   LIG    1      -33.773  87.306  28.702  0.00  0.00    +0.027 A 
BRANCH  18  21
ATOM     21  N   LIG    1      -31.227  88.200  31.282  0.00  0.00    -0.220 N 
ATOM     22  N   LIG    1      -31.613  89.388  31.814  0.00  0.00    -0.154 NA
ATOM     23  C   LIG    1      -30.562  89.713  32.567  0.00  0.00    +0.245 A 
ATOM     24  N   LIG    1      -29.527  88.830  32.546  0.00  0.00    -0.222 NA
ATOM     25  C   LIG    1      -29.964  87.898  31.731  0.00  0.00    +0.225 A 
ENDBRANCH  18  21
ENDBRANCH   2  15
TORSDOF 3
ENDMDL
