MODEL 1
REMARK VINA RESULT:      -6.5      0.000      0.000
REMARK  Name = modded_pdb/CHEMBL2037209_nitrogen_modded_with_ethanol_version_1.pdb
REMARK                            x       y       z     vdW  Elec       q    Type
REMARK                         _______ _______ _______ _____ _____    ______ ____
ROOT
ATOM      1  C   LIG    1      -21.878  84.687  13.440  0.00  0.00    +0.038 A 
ATOM      2  C   LIG    1      -22.720  84.336  12.376  0.00  0.00    +0.046 A 
ATOM      3  C   LIG    1      -22.203  83.886  11.161  0.00  0.00    +0.033 A 
ATOM      4  C   LIG    1      -20.808  83.775  11.049  0.00  0.00    +0.023 A 
ATOM      5  C   LIG    1      -19.959  84.140  12.105  0.00  0.00    +0.004 A 
ATOM      6  C   LIG    1      -20.491  84.630  13.295  0.00  0.00    +0.023 A 
ENDROOT
BRANCH   1   8
ATOM      7  C   LIG    1      -22.595  84.152  15.788  0.00  0.00    +0.251 C 
ATOM      8  N   LIG    1      -22.487  85.015  14.673  0.00  0.00    -0.265 N 
ATOM      9  O   LIG    1      -22.874  84.601  16.905  0.00  0.00    -0.270 OA
BRANCH   7  14
ATOM     10  C   LIG    1      -23.401  80.411  15.391  0.00  0.00    +0.049 A 
ATOM     11  C   LIG    1      -22.181  79.811  15.741  0.00  0.00    +0.038 A 
ATOM     12  C   LIG    1      -21.056  80.593  15.987  0.00  0.00    +0.057 A 
ATOM     13  C   LIG    1      -21.173  81.986  15.895  0.00  0.00    +0.025 A 
ATOM     14  C   LIG    1      -22.394  82.640  15.690  0.00  0.00    +0.040 A 
ATOM     15  C   LIG    1      -23.501  81.823  15.368  0.00  0.00    +0.039 A 
BRANCH  10  20
ATOM     16  C   LIG    1      -27.216  78.327  12.937  0.00  0.00    +0.067 C 
ATOM     17  C   LIG    1      -26.192  78.668  13.946  0.00  0.00    +0.056 A 
ATOM     18  N   LIG    1      -26.251  78.187  15.225  0.00  0.00    -0.241 NA
ATOM     19  C   LIG    1      -25.221  78.724  15.846  0.00  0.00    +0.204 A 
ATOM     20  N   LIG    1      -24.500  79.574  15.038  0.00  0.00    -0.306 N 
ATOM     21  C   LIG    1      -25.091  79.478  13.795  0.00  0.00    +0.115 A 
ENDBRANCH  10  20
BRANCH  12  22
ATOM     22  C   LIG    1      -19.710  79.978  16.286  0.00  0.00    +0.418 C 
ATOM     23  F   LIG    1      -19.337  79.088  15.328  0.00  0.00    -0.166 F 
ATOM     24  F   LIG    1      -19.669  79.303  17.468  0.00  0.00    -0.166 F 
ATOM     25  F   LIG    1      -18.710  80.900  16.356  0.00  0.00    -0.166 F 
ENDBRANCH  12  22
ENDBRANCH   7  14
BRANCH   8  26
ATOM     26  C   LIG    1      -22.697  86.474  14.831  0.00  0.00    +0.141 C 
BRANCH  26  27
ATOM     27  C   LIG    1      -21.488  87.284  15.294  0.00  0.00    +0.175 C 
BRANCH  27  28
ATOM     28  O   LIG    1      -21.415  87.321  16.720  0.00  0.00    -0.393 OA
ATOM     29  H   LIG    1      -21.561  86.415  17.044  0.00  0.00    +0.209 HD
ENDBRANCH  27  28
ENDBRANCH  26  27
ENDBRANCH   8  26
ENDBRANCH   1   8
BRANCH   3  30
ATOM     30  N   LIG    1      -23.005  83.472  10.073  0.00  0.00    -0.314 N 
ATOM     31  H   LIG    1      -22.819  84.036   9.250  0.00  0.00    +0.152 HD
BRANCH  30  32
ATOM     32  C   LIG    1      -24.247  82.801  10.035  0.00  0.00    +0.033 A 
ATOM     33  C   LIG    1      -25.416  83.513   9.698  0.00  0.00    +0.047 A 
ATOM     34  C   LIG    1      -26.613  82.822   9.675  0.00  0.00    +0.043 A 
ATOM     35  N   LIG    1      -27.914  83.332   9.403  0.00  0.00    -0.281 N 
ATOM     36  H   LIG    1      -28.106  84.309   9.198  0.00  0.00    +0.155 HD
ATOM     37  C   LIG    1      -28.903  82.387   9.517  0.00  0.00    +0.249 C 
ATOM     38  O   LIG    1      -30.098  82.560   9.445  0.00  0.00    -0.270 OA
ATOM     39  C   LIG    1      -28.116  81.098   9.829  0.00  0.00    +0.048 C 
ATOM     40  C   LIG    1      -28.566  79.818   9.966  0.00  0.00    +0.039 C 
ATOM     41  C   LIG    1      -26.711  81.469   9.951  0.00  0.00    +0.008 A 
ATOM     42  C   LIG    1      -25.570  80.741  10.273  0.00  0.00    +0.012 A 
ATOM     43  C   LIG    1      -24.349  81.418  10.290  0.00  0.00    +0.024 A 
BRANCH  40  44
ATOM     44  C   LIG    1      -29.910  79.386   9.866  0.00  0.00    +0.040 A 
ATOM     45  N   LIG    1      -30.601  79.462   8.682  0.00  0.00    -0.361 N 
ATOM     46  H   LIG    1      -30.193  79.723   7.791  0.00  0.00    +0.165 HD
ATOM     47  C   LIG    1      -31.878  79.006   8.849  0.00  0.00    +0.083 A 
ATOM     48  C   LIG    1      -32.034  78.658  10.170  0.00  0.00    +0.019 A 
ATOM     49  C   LIG    1      -30.798  78.911  10.818  0.00  0.00    +0.027 A 
ENDBRANCH  40  44
ENDBRANCH  30  32
ENDBRANCH   3  30
TORSDOF 10
ENDMDL
MODEL 2
REMARK VINA RESULT:      -6.3     18.911     22.077
REMARK  Name = modded_pdb/CHEMBL2037209_nitrogen_modded_with_ethanol_version_1.pdb
REMARK                            x       y       z     vdW  Elec       q    Type
REMARK                         _______ _______ _______ _____ _____    ______ ____
ROOT
ATOM      1  C   LIG    1      -37.921  68.009  21.751  0.00  0.00    +0.038 A 
ATOM      2  C   LIG    1      -37.934  69.056  22.685  0.00  0.00    +0.046 A 
ATOM      3  C   LIG    1      -39.010  69.238  23.553  0.00  0.00    +0.033 A 
ATOM      4  C   LIG    1      -40.071  68.321  23.475  0.00  0.00    +0.023 A 
ATOM      5  C   LIG    1      -40.071  67.283  22.532  0.00  0.00    +0.004 A 
ATOM      6  C   LIG    1      -39.009  67.143  21.642  0.00  0.00    +0.023 A 
ENDROOT
BRANCH   1   8
ATOM      7  C   LIG    1      -35.597  67.113  21.426  0.00  0.00    +0.251 C 
ATOM      8  N   LIG    1      -36.740  67.825  20.996  0.00  0.00    -0.265 N 
ATOM      9  O   LIG    1      -34.738  66.755  20.613  0.00  0.00    -0.270 OA
BRANCH   7  14
ATOM     10  C   LIG    1      -35.460  65.076  24.686  0.00  0.00    +0.049 A 
ATOM     11  C   LIG    1      -35.145  66.062  25.634  0.00  0.00    +0.038 A 
ATOM     12  C   LIG    1      -34.853  67.360  25.229  0.00  0.00    +0.057 A 
ATOM     13  C   LIG    1      -34.896  67.663  23.862  0.00  0.00    +0.025 A 
ATOM     14  C   LIG    1      -35.341  66.758  22.891  0.00  0.00    +0.040 A 
ATOM     15  C   LIG    1      -35.556  65.429  23.319  0.00  0.00    +0.039 A 
BRANCH  10  20
ATOM     16  C   LIG    1      -37.396  60.936  26.695  0.00  0.00    +0.067 C 
ATOM     17  C   LIG    1      -36.508  61.911  26.030  0.00  0.00    +0.056 A 
ATOM     18  N   LIG    1      -35.187  61.643  25.798  0.00  0.00    -0.241 NA
ATOM     19  C   LIG    1      -34.702  62.733  25.242  0.00  0.00    +0.204 A 
ATOM     20  N   LIG    1      -35.643  63.732  25.129  0.00  0.00    -0.306 N 
ATOM     21  C   LIG    1      -36.822  63.170  25.574  0.00  0.00    +0.115 A 
ENDBRANCH  10  20
BRANCH  12  22
ATOM     22  C   LIG    1      -34.431  68.425  26.213  0.00  0.00    +0.418 C 
ATOM     23  F   LIG    1      -33.369  69.141  25.759  0.00  0.00    -0.166 F 
ATOM     24  F   LIG    1      -34.065  67.930  27.428  0.00  0.00    -0.166 F 
ATOM     25  F   LIG    1      -35.417  69.330  26.469  0.00  0.00    -0.166 F 
ENDBRANCH  12  22
ENDBRANCH   7  14
BRANCH   8  26
ATOM     26  C   LIG    1      -36.929  68.143  19.561  0.00  0.00    +0.141 C 
BRANCH  26  27
ATOM     27  C   LIG    1      -37.353  66.982  18.662  0.00  0.00    +0.175 C 
BRANCH  27  28
ATOM     28  O   LIG    1      -37.383  67.383  17.292  0.00  0.00    -0.393 OA
ATOM     29  H   LIG    1      -36.478  67.642  17.043  0.00  0.00    +0.209 HD
ENDBRANCH  27  28
ENDBRANCH  26  27
ENDBRANCH   8  26
ENDBRANCH   1   8
BRANCH   3  30
ATOM     30  N   LIG    1      -39.055  70.243  24.545  0.00  0.00    -0.314 N 
ATOM     31  H   LIG    1      -39.339  69.857  25.440  0.00  0.00    +0.152 HD
BRANCH  30  32
ATOM     32  C   LIG    1      -39.230  71.642  24.446  0.00  0.00    +0.033 A 
ATOM     33  C   LIG    1      -38.211  72.506  24.896  0.00  0.00    +0.047 A 
ATOM     34  C   LIG    1      -38.420  73.867  24.786  0.00  0.00    +0.043 A 
ATOM     35  N   LIG    1      -37.560  74.923  25.203  0.00  0.00    -0.281 N 
ATOM     36  H   LIG    1      -36.663  74.774  25.657  0.00  0.00    +0.155 HD
ATOM     37  C   LIG    1      -38.094  76.171  25.000  0.00  0.00    +0.249 C 
ATOM     38  O   LIG    1      -37.633  77.234  25.350  0.00  0.00    -0.270 OA
ATOM     39  C   LIG    1      -39.431  75.866  24.296  0.00  0.00    +0.048 C 
ATOM     40  C   LIG    1      -40.355  76.725  23.779  0.00  0.00    +0.039 C 
ATOM     41  C   LIG    1      -39.570  74.415  24.245  0.00  0.00    +0.008 A 
ATOM     42  C   LIG    1      -40.585  73.583  23.781  0.00  0.00    +0.012 A 
ATOM     43  C   LIG    1      -40.388  72.203  23.872  0.00  0.00    +0.024 A 
BRANCH  40  44
ATOM     44  C   LIG    1      -40.290  78.138  23.796  0.00  0.00    +0.040 A 
ATOM     45  N   LIG    1      -39.316  78.819  23.109  0.00  0.00    -0.361 N 
ATOM     46  H   LIG    1      -38.654  78.391  22.471  0.00  0.00    +0.165 HD
ATOM     47  C   LIG    1      -39.453  80.165  23.301  0.00  0.00    +0.083 A 
ATOM     48  C   LIG    1      -40.513  80.364  24.153  0.00  0.00    +0.019 A 
ATOM     49  C   LIG    1      -41.034  79.086  24.481  0.00  0.00    +0.027 A 
ENDBRANCH  40  44
ENDBRANCH  30  32
ENDBRANCH   3  30
TORSDOF 10
ENDMDL
MODEL 3
REMARK VINA RESULT:      -6.2     18.350     20.607
REMARK  Name = modded_pdb/CHEMBL2037209_nitrogen_modded_with_ethanol_version_1.pdb
REMARK                            x       y       z     vdW  Elec       q    Type
REMARK                         _______ _______ _______ _____ _____    ______ ____
ROOT
ATOM      1  C   LIG    1      -39.068  77.201  26.812  0.00  0.00    +0.038 A 
ATOM      2  C   LIG    1      -39.602  75.935  26.530  0.00  0.00    +0.046 A 
ATOM      3  C   LIG    1      -39.636  75.437  25.228  0.00  0.00    +0.033 A 
ATOM      4  C   LIG    1      -39.096  76.239  24.210  0.00  0.00    +0.023 A 
ATOM      5  C   LIG    1      -38.576  77.514  24.483  0.00  0.00    +0.004 A 
ATOM      6  C   LIG    1      -38.591  78.014  25.783  0.00  0.00    +0.023 A 
ENDROOT
BRANCH   1   8
ATOM      7  C   LIG    1      -37.761  77.608  28.918  0.00  0.00    +0.251 C 
ATOM      8  N   LIG    1      -38.961  77.576  28.171  0.00  0.00    -0.265 N 
ATOM      9  O   LIG    1      -37.708  78.215  29.994  0.00  0.00    -0.270 OA
BRANCH   7  14
ATOM     10  C   LIG    1      -35.218  74.798  28.261  0.00  0.00    +0.049 A 
ATOM     11  C   LIG    1      -34.069  75.522  27.904  0.00  0.00    +0.038 A 
ATOM     12  C   LIG    1      -34.126  76.903  27.750  0.00  0.00    +0.057 A 
ATOM     13  C   LIG    1      -35.346  77.554  27.974  0.00  0.00    +0.025 A 
ATOM     14  C   LIG    1      -36.482  76.902  28.468  0.00  0.00    +0.040 A 
ATOM     15  C   LIG    1      -36.418  75.493  28.541  0.00  0.00    +0.039 A 
BRANCH  10  20
ATOM     16  C   LIG    1      -33.563  70.095  28.016  0.00  0.00    +0.067 C 
ATOM     17  C   LIG    1      -34.404  71.298  28.178  0.00  0.00    +0.056 A 
ATOM     18  N   LIG    1      -35.768  71.222  28.251  0.00  0.00    -0.241 NA
ATOM     19  C   LIG    1      -36.182  72.468  28.346  0.00  0.00    +0.204 A 
ATOM     20  N   LIG    1      -35.146  73.375  28.300  0.00  0.00    -0.306 N 
ATOM     21  C   LIG    1      -33.999  72.610  28.263  0.00  0.00    +0.115 A 
ENDBRANCH  10  20
BRANCH  12  22
ATOM     22  C   LIG    1      -32.931  77.703  27.289  0.00  0.00    +0.418 C 
ATOM     23  F   LIG    1      -32.413  77.215  26.130  0.00  0.00    -0.166 F 
ATOM     24  F   LIG    1      -31.906  77.719  28.186  0.00  0.00    -0.166 F 
ATOM     25  F   LIG    1      -33.228  79.011  27.050  0.00  0.00    -0.166 F 
ENDBRANCH  12  22
ENDBRANCH   7  14
BRANCH   8  26
ATOM     26  C   LIG    1      -40.170  78.278  28.662  0.00  0.00    +0.141 C 
BRANCH  26  27
ATOM     27  C   LIG    1      -40.282  79.759  28.307  0.00  0.00    +0.175 C 
BRANCH  27  28
ATOM     28  O   LIG    1      -39.499  80.557  29.196  0.00  0.00    -0.393 OA
ATOM     29  H   LIG    1      -39.019  81.210  28.657  0.00  0.00    +0.209 HD
ENDBRANCH  27  28
ENDBRANCH  26  27
ENDBRANCH   8  26
ENDBRANCH   1   8
BRANCH   3  30
ATOM     30  N   LIG    1      -40.115  74.150  24.893  0.00  0.00    -0.314 N 
ATOM     31  H   LIG    1      -41.061  74.015  25.238  0.00  0.00    +0.152 HD
BRANCH  30  32
ATOM     32  C   LIG    1      -39.432  72.946  24.612  0.00  0.00    +0.033 A 
ATOM     33  C   LIG    1      -38.121  72.758  25.095  0.00  0.00    +0.047 A 
ATOM     34  C   LIG    1      -37.485  71.568  24.796  0.00  0.00    +0.043 A 
ATOM     35  N   LIG    1      -36.160  71.173  25.139  0.00  0.00    -0.281 N 
ATOM     36  H   LIG    1      -35.512  71.761  25.655  0.00  0.00    +0.155 HD
ATOM     37  C   LIG    1      -35.814  69.943  24.637  0.00  0.00    +0.249 C 
ATOM     38  O   LIG    1      -34.729  69.409  24.684  0.00  0.00    -0.270 OA
ATOM     39  C   LIG    1      -37.112  69.469  23.953  0.00  0.00    +0.048 C 
ATOM     40  C   LIG    1      -37.391  68.278  23.352  0.00  0.00    +0.039 C 
ATOM     41  C   LIG    1      -38.079  70.556  24.063  0.00  0.00    +0.008 A 
ATOM     42  C   LIG    1      -39.377  70.711  23.587  0.00  0.00    +0.012 A 
ATOM     43  C   LIG    1      -40.043  71.902  23.888  0.00  0.00    +0.024 A 
BRANCH  40  44
ATOM     44  C   LIG    1      -36.505  67.184  23.204  0.00  0.00    +0.040 A 
ATOM     45  N   LIG    1      -35.368  67.281  22.440  0.00  0.00    -0.361 N 
ATOM     46  H   LIG    1      -35.026  68.139  22.022  0.00  0.00    +0.165 HD
ATOM     47  C   LIG    1      -34.696  66.091  22.439  0.00  0.00    +0.083 A 
ATOM     48  C   LIG    1      -35.422  65.194  23.185  0.00  0.00    +0.019 A 
ATOM     49  C   LIG    1      -36.573  65.876  23.657  0.00  0.00    +0.027 A 
ENDBRANCH  40  44
ENDBRANCH  30  32
ENDBRANCH   3  30
TORSDOF 10
ENDMDL
MODEL 4
REMARK VINA RESULT:      -6.1     18.203     22.745
REMARK  Name = modded_pdb/CHEMBL2037209_nitrogen_modded_with_ethanol_version_1.pdb
REMARK                            x       y       z     vdW  Elec       q    Type
REMARK                         _______ _______ _______ _____ _____    ______ ____
ROOT
ATOM      1  C   LIG    1      -42.799  72.302  26.088  0.00  0.00    +0.038 A 
ATOM      2  C   LIG    1      -42.054  73.138  26.931  0.00  0.00    +0.046 A 
ATOM      3  C   LIG    1      -41.553  72.678  28.149  0.00  0.00    +0.033 A 
ATOM      4  C   LIG    1      -41.803  71.340  28.491  0.00  0.00    +0.023 A 
ATOM      5  C   LIG    1      -42.562  70.503  27.660  0.00  0.00    +0.004 A 
ATOM      6  C   LIG    1      -43.092  70.992  26.468  0.00  0.00    +0.023 A 
ENDROOT
BRANCH   1   8
ATOM      7  C   LIG    1      -42.258  73.195  23.803  0.00  0.00    +0.251 C 
ATOM      8  N   LIG    1      -43.162  72.811  24.820  0.00  0.00    -0.265 N 
ATOM      9  O   LIG    1      -42.650  73.350  22.641  0.00  0.00    -0.270 OA
BRANCH   7  14
ATOM     10  C   LIG    1      -38.553  72.528  24.590  0.00  0.00    +0.049 A 
ATOM     11  C   LIG    1      -38.062  73.825  24.806  0.00  0.00    +0.038 A 
ATOM     12  C   LIG    1      -38.875  74.932  24.583  0.00  0.00    +0.057 A 
ATOM     13  C   LIG    1      -40.193  74.722  24.156  0.00  0.00    +0.025 A 
ATOM     14  C   LIG    1      -40.774  73.452  24.063  0.00  0.00    +0.040 A 
ATOM     15  C   LIG    1      -39.907  72.349  24.220  0.00  0.00    +0.039 A 
BRANCH  10  20
ATOM     16  C   LIG    1      -34.814  69.566  26.063  0.00  0.00    +0.067 C 
ATOM     17  C   LIG    1      -35.994  70.129  25.376  0.00  0.00    +0.056 A 
ATOM     18  N   LIG    1      -36.501  69.568  24.236  0.00  0.00    -0.241 NA
ATOM     19  C   LIG    1      -37.503  70.345  23.882  0.00  0.00    +0.204 A 
ATOM     20  N   LIG    1      -37.658  71.425  24.722  0.00  0.00    -0.306 N 
ATOM     21  C   LIG    1      -36.726  71.240  25.722  0.00  0.00    +0.115 A 
ENDBRANCH  10  20
BRANCH  12  22
ATOM     22  C   LIG    1      -38.355  76.343  24.727  0.00  0.00    +0.418 C 
ATOM     23  F   LIG    1      -38.471  77.044  23.568  0.00  0.00    -0.166 F 
ATOM     24  F   LIG    1      -37.042  76.406  25.081  0.00  0.00    -0.166 F 
ATOM     25  F   LIG    1      -39.024  77.060  25.672  0.00  0.00    -0.166 F 
ENDBRANCH  12  22
ENDBRANCH   7  14
BRANCH   8  26
ATOM     26  C   LIG    1      -44.592  72.579  24.504  0.00  0.00    +0.141 C 
BRANCH  26  27
ATOM     27  C   LIG    1      -45.580  73.603  25.059  0.00  0.00    +0.175 C 
BRANCH  27  28
ATOM     28  O   LIG    1      -44.993  74.904  25.107  0.00  0.00    -0.393 OA
ATOM     29  H   LIG    1      -44.041  74.801  24.935  0.00  0.00    +0.209 HD
ENDBRANCH  27  28
ENDBRANCH  26  27
ENDBRANCH   8  26
ENDBRANCH   1   8
BRANCH   3  30
ATOM     30  N   LIG    1      -40.756  73.461  29.014  0.00  0.00    -0.314 N 
ATOM     31  H   LIG    1      -41.301  73.804  29.799  0.00  0.00    +0.152 HD
BRANCH  30  32
ATOM     32  C   LIG    1      -39.571  74.194  28.780  0.00  0.00    +0.033 A 
ATOM     33  C   LIG    1      -38.364  73.509  28.536  0.00  0.00    +0.047 A 
ATOM     34  C   LIG    1      -37.225  74.261  28.315  0.00  0.00    +0.043 A 
ATOM     35  N   LIG    1      -35.898  73.796  28.087  0.00  0.00    -0.281 N 
ATOM     36  H   LIG    1      -35.640  72.813  28.074  0.00  0.00    +0.155 HD
ATOM     37  C   LIG    1      -34.982  74.810  27.960  0.00  0.00    +0.249 C 
ATOM     38  O   LIG    1      -33.780  74.707  27.865  0.00  0.00    -0.270 OA
ATOM     39  C   LIG    1      -35.854  76.079  28.045  0.00  0.00    +0.048 C 
ATOM     40  C   LIG    1      -35.499  77.387  27.899  0.00  0.00    +0.039 C 
ATOM     41  C   LIG    1      -37.221  75.645  28.309  0.00  0.00    +0.008 A 
ATOM     42  C   LIG    1      -38.403  76.344  28.534  0.00  0.00    +0.012 A 
ATOM     43  C   LIG    1      -39.568  75.603  28.747  0.00  0.00    +0.024 A 
BRANCH  40  44
ATOM     44  C   LIG    1      -34.197  77.880  27.648  0.00  0.00    +0.040 A 
ATOM     45  N   LIG    1      -33.482  77.487  26.544  0.00  0.00    -0.361 N 
ATOM     46  H   LIG    1      -33.851  76.918  25.790  0.00  0.00    +0.165 HD
ATOM     47  C   LIG    1      -32.252  78.083  26.538  0.00  0.00    +0.083 A 
ATOM     48  C   LIG    1      -32.150  78.851  27.674  0.00  0.00    +0.019 A 
ATOM     49  C   LIG    1      -33.369  78.713  28.385  0.00  0.00    +0.027 A 
ENDBRANCH  40  44
ENDBRANCH  30  32
ENDBRANCH   3  30
TORSDOF 10
ENDMDL
MODEL 5
REMARK VINA RESULT:      -6.1      3.655      7.644
REMARK  Name = modded_pdb/CHEMBL2037209_nitrogen_modded_with_ethanol_version_1.pdb
REMARK                            x       y       z     vdW  Elec       q    Type
REMARK                         _______ _______ _______ _____ _____    ______ ____
ROOT
ATOM      1  C   LIG    1      -19.999  84.878  12.605  0.00  0.00    +0.038 A 
ATOM      2  C   LIG    1      -19.577  83.960  13.578  0.00  0.00    +0.046 A 
ATOM      3  C   LIG    1      -18.457  83.154  13.375  0.00  0.00    +0.033 A 
ATOM      4  C   LIG    1      -17.753  83.310  12.170  0.00  0.00    +0.023 A 
ATOM      5  C   LIG    1      -18.180  84.215  11.186  0.00  0.00    +0.004 A 
ATOM      6  C   LIG    1      -19.327  84.980  11.387  0.00  0.00    +0.023 A 
ENDROOT
BRANCH   1   8
ATOM      7  C   LIG    1      -22.211  85.372  13.689  0.00  0.00    +0.251 C 
ATOM      8  N   LIG    1      -21.068  85.740  12.943  0.00  0.00    -0.265 N 
ATOM      9  O   LIG    1      -22.944  86.237  14.182  0.00  0.00    -0.270 OA
BRANCH   7  14
ATOM     10  C   LIG    1      -23.908  81.961  13.160  0.00  0.00    +0.049 A 
ATOM     11  C   LIG    1      -23.642  81.311  14.376  0.00  0.00    +0.038 A 
ATOM     12  C   LIG    1      -22.818  81.904  15.326  0.00  0.00    +0.057 A 
ATOM     13  C   LIG    1      -22.275  83.166  15.050  0.00  0.00    +0.025 A 
ATOM     14  C   LIG    1      -22.619  83.917  13.921  0.00  0.00    +0.040 A 
ATOM     15  C   LIG    1      -23.395  83.261  12.940  0.00  0.00    +0.039 A 
BRANCH  10  20
ATOM     16  C   LIG    1      -27.117  78.887  10.883  0.00  0.00    +0.067 C 
ATOM     17  C   LIG    1      -26.082  79.902  11.171  0.00  0.00    +0.056 A 
ATOM     18  N   LIG    1      -25.274  80.408  10.191  0.00  0.00    -0.241 NA
ATOM     19  C   LIG    1      -24.457  81.237  10.806  0.00  0.00    +0.204 A 
ATOM     20  N   LIG    1      -24.666  81.273  12.167  0.00  0.00    -0.306 N 
ATOM     21  C   LIG    1      -25.761  80.464  12.385  0.00  0.00    +0.115 A 
ENDBRANCH  10  20
BRANCH  12  22
ATOM     22  C   LIG    1      -22.446  81.199  16.609  0.00  0.00    +0.418 C 
ATOM     23  F   LIG    1      -23.155  80.051  16.779  0.00  0.00    -0.166 F 
ATOM     24  F   LIG    1      -22.663  81.948  17.725  0.00  0.00    -0.166 F 
ATOM     25  F   LIG    1      -21.132  80.843  16.656  0.00  0.00    -0.166 F 
ENDBRANCH  12  22
ENDBRANCH   7  14
BRANCH   8  26
ATOM     26  C   LIG    1      -20.726  87.169  12.750  0.00  0.00    +0.141 C 
BRANCH  26  27
ATOM     27  C   LIG    1      -20.256  87.925  13.992  0.00  0.00    +0.175 C 
BRANCH  27  28
ATOM     28  O   LIG    1      -21.289  88.774  14.493  0.00  0.00    -0.393 OA
ATOM     29  H   LIG    1      -20.859  89.532  14.927  0.00  0.00    +0.209 HD
ENDBRANCH  27  28
ENDBRANCH  26  27
ENDBRANCH   8  26
ENDBRANCH   1   8
BRANCH   3  30
ATOM     30  N   LIG    1      -17.958  82.248  14.338  0.00  0.00    -0.314 N 
ATOM     31  H   LIG    1      -16.988  82.451  14.560  0.00  0.00    +0.152 HD
BRANCH  30  32
ATOM     32  C   LIG    1      -18.357  80.936  14.677  0.00  0.00    +0.033 A 
ATOM     33  C   LIG    1      -17.752  80.283  15.770  0.00  0.00    +0.047 A 
ATOM     34  C   LIG    1      -18.167  78.999  16.068  0.00  0.00    +0.043 A 
ATOM     35  N   LIG    1      -17.679  78.135  17.090  0.00  0.00    -0.281 N 
ATOM     36  H   LIG    1      -16.931  78.386  17.730  0.00  0.00    +0.155 HD
ATOM     37  C   LIG    1      -18.269  76.896  17.081  0.00  0.00    +0.249 C 
ATOM     38  O   LIG    1      -17.980  75.939  17.762  0.00  0.00    -0.270 OA
ATOM     39  C   LIG    1      -19.316  77.018  15.956  0.00  0.00    +0.048 C 
ATOM     40  C   LIG    1      -20.259  76.122  15.547  0.00  0.00    +0.039 C 
ATOM     41  C   LIG    1      -19.152  78.337  15.356  0.00  0.00    +0.008 A 
ATOM     42  C   LIG    1      -19.774  78.965  14.281  0.00  0.00    +0.012 A 
ATOM     43  C   LIG    1      -19.379  80.268  13.971  0.00  0.00    +0.024 A 
BRANCH  40  44
ATOM     44  C   LIG    1      -20.472  74.827  16.077  0.00  0.00    +0.040 A 
ATOM     45  N   LIG    1      -19.503  73.857  16.011  0.00  0.00    -0.361 N 
ATOM     46  H   LIG    1      -18.554  74.011  15.688  0.00  0.00    +0.165 HD
ATOM     47  C   LIG    1      -19.956  72.695  16.569  0.00  0.00    +0.083 A 
ATOM     48  C   LIG    1      -21.253  72.900  16.975  0.00  0.00    +0.019 A 
ATOM     49  C   LIG    1      -21.588  74.239  16.651  0.00  0.00    +0.027 A 
ENDBRANCH  40  44
ENDBRANCH  30  32
ENDBRANCH   3  30
TORSDOF 10
ENDMDL
MODEL 6
REMARK VINA RESULT:      -6.1     17.769     20.433
REMARK  Name = modded_pdb/CHEMBL2037209_nitrogen_modded_with_ethanol_version_1.pdb
REMARK                            x       y       z     vdW  Elec       q    Type
REMARK                         _______ _______ _______ _____ _____    ______ ____
ROOT
ATOM      1  C   LIG    1      -34.640  76.980  28.600  0.00  0.00    +0.038 A 
ATOM      2  C   LIG    1      -35.156  76.803  27.308  0.00  0.00    +0.046 A 
ATOM      3  C   LIG    1      -36.524  76.905  27.054  0.00  0.00    +0.033 A 
ATOM      4  C   LIG    1      -37.364  77.214  28.135  0.00  0.00    +0.023 A 
ATOM      5  C   LIG    1      -36.857  77.375  29.433  0.00  0.00    +0.004 A 
ATOM      6  C   LIG    1      -35.493  77.225  29.677  0.00  0.00    +0.023 A 
ENDROOT
BRANCH   1   8
ATOM      7  C   LIG    1      -32.431  75.834  28.944  0.00  0.00    +0.251 C 
ATOM      8  N   LIG    1      -33.234  76.981  28.746  0.00  0.00    -0.265 N 
ATOM      9  O   LIG    1      -31.208  75.887  28.772  0.00  0.00    -0.270 OA
BRANCH   7  14
ATOM     10  C   LIG    1      -34.172  72.408  28.773  0.00  0.00    +0.049 A 
ATOM     11  C   LIG    1      -34.313  72.084  30.131  0.00  0.00    +0.038 A 
ATOM     12  C   LIG    1      -33.746  72.893  31.111  0.00  0.00    +0.057 A 
ATOM     13  C   LIG    1      -33.050  74.042  30.713  0.00  0.00    +0.025 A 
ATOM     14  C   LIG    1      -33.001  74.487  29.387  0.00  0.00    +0.040 A 
ATOM     15  C   LIG    1      -33.517  73.609  28.408  0.00  0.00    +0.039 A 
BRANCH  10  20
ATOM     16  C   LIG    1      -34.572  68.622  25.544  0.00  0.00    +0.067 C 
ATOM     17  C   LIG    1      -34.830  69.824  26.363  0.00  0.00    +0.056 A 
ATOM     18  N   LIG    1      -35.889  70.653  26.114  0.00  0.00    -0.241 NA
ATOM     19  C   LIG    1      -35.783  71.627  26.994  0.00  0.00    +0.204 A 
ATOM     20  N   LIG    1      -34.670  71.497  27.795  0.00  0.00    -0.306 N 
ATOM     21  C   LIG    1      -34.101  70.295  27.429  0.00  0.00    +0.115 A 
ENDBRANCH  10  20
BRANCH  12  22
ATOM     22  C   LIG    1      -33.808  72.531  32.576  0.00  0.00    +0.418 C 
ATOM     23  F   LIG    1      -32.862  71.613  32.910  0.00  0.00    -0.166 F 
ATOM     24  F   LIG    1      -35.004  72.000  32.956  0.00  0.00    -0.166 F 
ATOM     25  F   LIG    1      -33.605  73.600  33.395  0.00  0.00    -0.166 F 
ENDBRANCH  12  22
ENDBRANCH   7  14
BRANCH   8  26
ATOM     26  C   LIG    1      -32.620  78.261  28.320  0.00  0.00    +0.141 C 
BRANCH  26  27
ATOM     27  C   LIG    1      -32.226  78.363  26.848  0.00  0.00    +0.175 C 
BRANCH  27  28
ATOM     28  O   LIG    1      -32.967  79.393  26.192  0.00  0.00    -0.393 OA
ATOM     29  H   LIG    1      -33.258  80.024  26.875  0.00  0.00    +0.209 HD
ENDBRANCH  27  28
ENDBRANCH  26  27
ENDBRANCH   8  26
ENDBRANCH   1   8
BRANCH   3  30
ATOM     30  N   LIG    1      -37.093  76.785  25.766  0.00  0.00    -0.314 N 
ATOM     31  H   LIG    1      -37.117  77.684  25.295  0.00  0.00    +0.152 HD
BRANCH  30  32
ATOM     32  C   LIG    1      -37.991  75.836  25.230  0.00  0.00    +0.033 A 
ATOM     33  C   LIG    1      -37.696  74.461  25.330  0.00  0.00    +0.047 A 
ATOM     34  C   LIG    1      -38.597  73.564  24.789  0.00  0.00    +0.043 A 
ATOM     35  N   LIG    1      -38.496  72.144  24.737  0.00  0.00    -0.281 N 
ATOM     36  H   LIG    1      -37.705  71.621  25.101  0.00  0.00    +0.155 HD
ATOM     37  C   LIG    1      -39.543  71.549  24.076  0.00  0.00    +0.249 C 
ATOM     38  O   LIG    1      -39.664  70.379  23.794  0.00  0.00    -0.270 OA
ATOM     39  C   LIG    1      -40.459  72.741  23.733  0.00  0.00    +0.048 C 
ATOM     40  C   LIG    1      -41.690  72.749  23.147  0.00  0.00    +0.039 C 
ATOM     41  C   LIG    1      -39.774  73.952  24.173  0.00  0.00    +0.008 A 
ATOM     42  C   LIG    1      -40.095  75.302  24.074  0.00  0.00    +0.012 A 
ATOM     43  C   LIG    1      -39.203  76.225  24.624  0.00  0.00    +0.024 A 
BRANCH  40  44
ATOM     44  C   LIG    1      -42.409  71.619  22.692  0.00  0.00    +0.040 A 
ATOM     45  N   LIG    1      -42.908  70.686  23.568  0.00  0.00    -0.361 N 
ATOM     46  H   LIG    1      -42.896  70.779  24.577  0.00  0.00    +0.165 HD
ATOM     47  C   LIG    1      -43.540  69.685  22.885  0.00  0.00    +0.083 A 
ATOM     48  C   LIG    1      -43.424  69.951  21.542  0.00  0.00    +0.019 A 
ATOM     49  C   LIG    1      -42.697  71.162  21.415  0.00  0.00    +0.027 A 
ENDBRANCH  40  44
ENDBRANCH  30  32
ENDBRANCH   3  30
TORSDOF 10
ENDMDL
MODEL 7
REMARK VINA RESULT:      -6.1      3.021      4.543
REMARK  Name = modded_pdb/CHEMBL2037209_nitrogen_modded_with_ethanol_version_1.pdb
REMARK                            x       y       z     vdW  Elec       q    Type
REMARK                         _______ _______ _______ _____ _____    ______ ____
ROOT
ATOM      1  C   LIG    1      -21.922  84.569  13.466  0.00  0.00    +0.038 A 
ATOM      2  C   LIG    1      -22.731  83.860  12.566  0.00  0.00    +0.046 A 
ATOM      3  C   LIG    1      -22.214  83.345  11.377  0.00  0.00    +0.033 A 
ATOM      4  C   LIG    1      -20.848  83.541  11.124  0.00  0.00    +0.023 A 
ATOM      5  C   LIG    1      -20.036  84.263  12.011  0.00  0.00    +0.004 A 
ATOM      6  C   LIG    1      -20.579  84.810  13.172  0.00  0.00    +0.023 A 
ENDROOT
BRANCH   1   8
ATOM      7  C   LIG    1      -22.635  84.111  15.830  0.00  0.00    +0.251 C 
ATOM      8  N   LIG    1      -22.496  84.949  14.700  0.00  0.00    -0.265 N 
ATOM      9  O   LIG    1      -22.875  84.593  16.943  0.00  0.00    -0.270 OA
BRANCH   7  14
ATOM     10  C   LIG    1      -21.055  80.608  15.667  0.00  0.00    +0.049 A 
ATOM     11  C   LIG    1      -22.164  79.800  15.371  0.00  0.00    +0.038 A 
ATOM     12  C   LIG    1      -23.444  80.345  15.341  0.00  0.00    +0.057 A 
ATOM     13  C   LIG    1      -23.597  81.714  15.596  0.00  0.00    +0.025 A 
ATOM     14  C   LIG    1      -22.516  82.589  15.756  0.00  0.00    +0.040 A 
ATOM     15  C   LIG    1      -21.237  81.998  15.858  0.00  0.00    +0.039 A 
BRANCH  10  20
ATOM     16  C   LIG    1      -17.398  77.375  16.720  0.00  0.00    +0.067 C 
ATOM     17  C   LIG    1      -18.166  78.558  16.278  0.00  0.00    +0.056 A 
ATOM     18  N   LIG    1      -17.554  79.742  15.971  0.00  0.00    -0.241 NA
ATOM     19  C   LIG    1      -18.531  80.570  15.667  0.00  0.00    +0.204 A 
ATOM     20  N   LIG    1      -19.775  79.993  15.798  0.00  0.00    -0.306 N 
ATOM     21  C   LIG    1      -19.527  78.675  16.124  0.00  0.00    +0.115 A 
ENDBRANCH  10  20
BRANCH  12  22
ATOM     22  C   LIG    1      -24.667  79.491  15.105  0.00  0.00    +0.418 C 
ATOM     23  F   LIG    1      -24.371  78.368  14.399  0.00  0.00    -0.166 F 
ATOM     24  F   LIG    1      -25.651  80.128  14.412  0.00  0.00    -0.166 F 
ATOM     25  F   LIG    1      -25.249  79.068  16.263  0.00  0.00    -0.166 F 
ENDBRANCH  12  22
ENDBRANCH   7  14
BRANCH   8  26
ATOM     26  C   LIG    1      -22.626  86.419  14.836  0.00  0.00    +0.141 C 
BRANCH  26  27
ATOM     27  C   LIG    1      -21.379  87.167  15.300  0.00  0.00    +0.175 C 
BRANCH  27  28
ATOM     28  O   LIG    1      -21.375  87.320  16.720  0.00  0.00    -0.393 OA
ATOM     29  H   LIG    1      -21.751  88.195  16.921  0.00  0.00    +0.209 HD
ENDBRANCH  27  28
ENDBRANCH  26  27
ENDBRANCH   8  26
ENDBRANCH   1   8
BRANCH   3  30
ATOM     30  N   LIG    1      -22.971  82.582  10.460  0.00  0.00    -0.314 N 
ATOM     31  H   LIG    1      -23.211  83.132   9.641  0.00  0.00    +0.152 HD
BRANCH  30  32
ATOM     32  C   LIG    1      -23.796  81.450  10.647  0.00  0.00    +0.033 A 
ATOM     33  C   LIG    1      -23.210  80.197  10.920  0.00  0.00    +0.047 A 
ATOM     34  C   LIG    1      -24.049  79.113  11.093  0.00  0.00    +0.043 A 
ATOM     35  N   LIG    1      -23.690  77.757  11.338  0.00  0.00    -0.281 N 
ATOM     36  H   LIG    1      -22.730  77.431  11.403  0.00  0.00    +0.155 HD
ATOM     37  C   LIG    1      -24.771  76.912  11.404  0.00  0.00    +0.249 C 
ATOM     38  O   LIG    1      -24.756  75.706  11.498  0.00  0.00    -0.270 OA
ATOM     39  C   LIG    1      -25.970  77.870  11.256  0.00  0.00    +0.048 C 
ATOM     40  C   LIG    1      -27.305  77.607  11.329  0.00  0.00    +0.039 C 
ATOM     41  C   LIG    1      -25.429  79.205  11.025  0.00  0.00    +0.008 A 
ATOM     42  C   LIG    1      -26.032  80.433  10.769  0.00  0.00    +0.012 A 
ATOM     43  C   LIG    1      -25.202  81.544  10.604  0.00  0.00    +0.024 A 
BRANCH  40  44
ATOM     44  C   LIG    1      -27.900  76.341  11.545  0.00  0.00    +0.040 A 
ATOM     45  N   LIG    1      -27.850  75.354  10.593  0.00  0.00    -0.361 N 
ATOM     46  H   LIG    1      -27.313  75.407   9.734  0.00  0.00    +0.165 HD
ATOM     47  C   LIG    1      -28.512  74.240  11.029  0.00  0.00    +0.083 A 
ATOM     48  C   LIG    1      -29.031  74.517  12.271  0.00  0.00    +0.019 A 
ATOM     49  C   LIG    1      -28.661  75.848  12.593  0.00  0.00    +0.027 A 
ENDBRANCH  40  44
ENDBRANCH  30  32
ENDBRANCH   3  30
TORSDOF 10
ENDMDL
MODEL 8
REMARK VINA RESULT:      -6.1     13.814     18.127
REMARK  Name = modded_pdb/CHEMBL2037209_nitrogen_modded_with_ethanol_version_1.pdb
REMARK                            x       y       z     vdW  Elec       q    Type
REMARK                         _______ _______ _______ _____ _____    ______ ____
ROOT
ATOM      1  C   LIG    1      -31.016  70.427  15.942  0.00  0.00    +0.038 A 
ATOM      2  C   LIG    1      -29.709  69.998  16.212  0.00  0.00    +0.046 A 
ATOM      3  C   LIG    1      -29.056  70.363  17.389  0.00  0.00    +0.033 A 
ATOM      4  C   LIG    1      -29.763  71.157  18.306  0.00  0.00    +0.023 A 
ATOM      5  C   LIG    1      -31.064  71.604  18.034  0.00  0.00    +0.004 A 
ATOM      6  C   LIG    1      -31.685  71.267  16.833  0.00  0.00    +0.023 A 
ENDROOT
BRANCH   1   8
ATOM      7  C   LIG    1      -32.094  68.580  14.623  0.00  0.00    +0.251 C 
ATOM      8  N   LIG    1      -31.646  69.911  14.786  0.00  0.00    -0.265 N 
ATOM      9  O   LIG    1      -32.881  68.290  13.715  0.00  0.00    -0.270 OA
BRANCH   7  14
ATOM     10  C   LIG    1      -31.872  66.238  17.666  0.00  0.00    +0.049 A 
ATOM     11  C   LIG    1      -30.710  65.502  17.384  0.00  0.00    +0.038 A 
ATOM     12  C   LIG    1      -30.054  65.659  16.167  0.00  0.00    +0.057 A 
ATOM     13  C   LIG    1      -30.570  66.575  15.240  0.00  0.00    +0.025 A 
ATOM     14  C   LIG    1      -31.638  67.434  15.525  0.00  0.00    +0.040 A 
ATOM     15  C   LIG    1      -32.329  67.200  16.734  0.00  0.00    +0.039 A 
BRANCH  10  20
ATOM     16  C   LIG    1      -35.175  64.493  20.977  0.00  0.00    +0.067 C 
ATOM     17  C   LIG    1      -34.050  65.197  20.329  0.00  0.00    +0.056 A 
ATOM     18  N   LIG    1      -33.356  66.188  20.966  0.00  0.00    -0.241 NA
ATOM     19  C   LIG    1      -32.471  66.613  20.088  0.00  0.00    +0.204 A 
ATOM     20  N   LIG    1      -32.577  65.968  18.876  0.00  0.00    -0.306 N 
ATOM     21  C   LIG    1      -33.550  65.008  19.062  0.00  0.00    +0.115 A 
ENDBRANCH  10  20
BRANCH  12  22
ATOM     22  C   LIG    1      -28.850  64.827  15.798  0.00  0.00    +0.418 C 
ATOM     23  F   LIG    1      -28.483  63.993  16.807  0.00  0.00    -0.166 F 
ATOM     24  F   LIG    1      -27.747  65.567  15.497  0.00  0.00    -0.166 F 
ATOM     25  F   LIG    1      -29.066  64.034  14.712  0.00  0.00    -0.166 F 
ENDBRANCH  12  22
ENDBRANCH   7  14
BRANCH   8  26
ATOM     26  C   LIG    1      -32.122  70.980  13.875  0.00  0.00    +0.141 C 
BRANCH  26  27
ATOM     27  C   LIG    1      -31.048  71.714  13.076  0.00  0.00    +0.175 C 
BRANCH  27  28
ATOM     28  O   LIG    1      -31.483  73.028  12.725  0.00  0.00    -0.393 OA
ATOM     29  H   LIG    1      -30.688  73.569  12.575  0.00  0.00    +0.209 HD
ENDBRANCH  27  28
ENDBRANCH  26  27
ENDBRANCH   8  26
ENDBRANCH   1   8
BRANCH   3  30
ATOM     30  N   LIG    1      -27.759  69.920  17.735  0.00  0.00    -0.314 N 
ATOM     31  H   LIG    1      -27.055  70.587  17.435  0.00  0.00    +0.152 HD
BRANCH  30  32
ATOM     32  C   LIG    1      -27.251  68.624  17.973  0.00  0.00    +0.033 A 
ATOM     33  C   LIG    1      -27.972  67.730  18.790  0.00  0.00    +0.047 A 
ATOM     34  C   LIG    1      -27.440  66.472  19.003  0.00  0.00    +0.043 A 
ATOM     35  N   LIG    1      -27.964  65.424  19.812  0.00  0.00    -0.281 N 
ATOM     36  H   LIG    1      -28.822  65.504  20.352  0.00  0.00    +0.155 HD
ATOM     37  C   LIG    1      -27.157  64.314  19.854  0.00  0.00    +0.249 C 
ATOM     38  O   LIG    1      -27.301  63.326  20.537  0.00  0.00    -0.270 OA
ATOM     39  C   LIG    1      -26.013  64.681  18.887  0.00  0.00    +0.048 C 
ATOM     40  C   LIG    1      -24.959  63.927  18.465  0.00  0.00    +0.039 C 
ATOM     41  C   LIG    1      -26.248  66.050  18.441  0.00  0.00    +0.008 A 
ATOM     42  C   LIG    1      -25.524  66.908  17.620  0.00  0.00    +0.012 A 
ATOM     43  C   LIG    1      -26.050  68.180  17.382  0.00  0.00    +0.024 A 
BRANCH  40  44
ATOM     44  C   LIG    1      -24.666  62.599  18.857  0.00  0.00    +0.040 A 
ATOM     45  N   LIG    1      -24.269  62.301  20.137  0.00  0.00    -0.361 N 
ATOM     46  H   LIG    1      -24.256  62.962  20.906  0.00  0.00    +0.165 HD
ATOM     47  C   LIG    1      -24.027  60.962  20.258  0.00  0.00    +0.083 A 
ATOM     48  C   LIG    1      -24.237  60.382  19.030  0.00  0.00    +0.019 A 
ATOM     49  C   LIG    1      -24.625  61.415  18.139  0.00  0.00    +0.027 A 
ENDBRANCH  40  44
ENDBRANCH  30  32
ENDBRANCH   3  30
TORSDOF 10
ENDMDL
MODEL 9
REMARK VINA RESULT:      -6.1     19.220     21.978
REMARK  Name = modded_pdb/CHEMBL2037209_nitrogen_modded_with_ethanol_version_1.pdb
REMARK                            x       y       z     vdW  Elec       q    Type
REMARK                         _______ _______ _______ _____ _____    ______ ____
ROOT
ATOM      1  C   LIG    1      -37.834  68.858  25.544  0.00  0.00    +0.038 A 
ATOM      2  C   LIG    1      -38.395  69.863  24.744  0.00  0.00    +0.046 A 
ATOM      3  C   LIG    1      -39.776  70.058  24.687  0.00  0.00    +0.033 A 
ATOM      4  C   LIG    1      -40.583  69.225  25.477  0.00  0.00    +0.023 A 
ATOM      5  C   LIG    1      -40.029  68.206  26.268  0.00  0.00    +0.004 A 
ATOM      6  C   LIG    1      -38.651  67.997  26.278  0.00  0.00    +0.023 A 
ENDROOT
BRANCH   1   8
ATOM      7  C   LIG    1      -35.550  68.390  24.610  0.00  0.00    +0.251 C 
ATOM      8  N   LIG    1      -36.425  68.811  25.638  0.00  0.00    -0.265 N 
ATOM      9  O   LIG    1      -34.343  68.650  24.668  0.00  0.00    -0.270 OA
BRANCH   7  14
ATOM     10  C   LIG    1      -36.251  65.401  22.293  0.00  0.00    +0.049 A 
ATOM     11  C   LIG    1      -36.622  66.038  21.099  0.00  0.00    +0.038 A 
ATOM     12  C   LIG    1      -36.771  67.420  21.054  0.00  0.00    +0.057 A 
ATOM     13  C   LIG    1      -36.528  68.160  22.220  0.00  0.00    +0.025 A 
ATOM     14  C   LIG    1      -36.020  67.592  23.394  0.00  0.00    +0.040 A 
ATOM     15  C   LIG    1      -35.952  66.182  23.434  0.00  0.00    +0.039 A 
BRANCH  10  20
ATOM     16  C   LIG    1      -34.748  60.676  22.876  0.00  0.00    +0.067 C 
ATOM     17  C   LIG    1      -35.537  61.890  22.580  0.00  0.00    +0.056 A 
ATOM     18  N   LIG    1      -36.716  61.834  21.890  0.00  0.00    -0.241 NA
ATOM     19  C   LIG    1      -37.110  63.085  21.773  0.00  0.00    +0.204 A 
ATOM     20  N   LIG    1      -36.217  63.975  22.328  0.00  0.00    -0.306 N 
ATOM     21  C   LIG    1      -35.241  63.192  22.908  0.00  0.00    +0.115 A 
ENDBRANCH  10  20
BRANCH  12  22
ATOM     22  C   LIG    1      -37.247  68.130  19.809  0.00  0.00    +0.418 C 
ATOM     23  F   LIG    1      -37.520  69.441  20.048  0.00  0.00    -0.166 F 
ATOM     24  F   LIG    1      -38.382  67.596  19.278  0.00  0.00    -0.166 F 
ATOM     25  F   LIG    1      -36.328  68.112  18.804  0.00  0.00    -0.166 F 
ENDBRANCH  12  22
ENDBRANCH   7  14
BRANCH   8  26
ATOM     26  C   LIG    1      -35.907  69.579  26.795  0.00  0.00    +0.141 C 
BRANCH  26  27
ATOM     27  C   LIG    1      -35.769  71.087  26.597  0.00  0.00    +0.175 C 
BRANCH  27  28
ATOM     28  O   LIG    1      -35.291  71.387  25.285  0.00  0.00    -0.393 OA
ATOM     29  H   LIG    1      -35.525  70.637  24.710  0.00  0.00    +0.209 HD
ENDBRANCH  27  28
ENDBRANCH  26  27
ENDBRANCH   8  26
ENDBRANCH   1   8
BRANCH   3  30
ATOM     30  N   LIG    1      -40.392  71.085  23.937  0.00  0.00    -0.314 N 
ATOM     31  H   LIG    1      -40.684  70.744  23.026  0.00  0.00    +0.152 HD
BRANCH  30  32
ATOM     32  C   LIG    1      -40.269  72.491  24.007  0.00  0.00    +0.033 A 
ATOM     33  C   LIG    1      -39.119  73.063  24.588  0.00  0.00    +0.047 A 
ATOM     34  C   LIG    1      -39.038  74.442  24.642  0.00  0.00    +0.043 A 
ATOM     35  N   LIG    1      -38.002  75.237  25.210  0.00  0.00    -0.281 N 
ATOM     36  H   LIG    1      -37.181  74.851  25.666  0.00  0.00    +0.155 HD
ATOM     37  C   LIG    1      -38.256  76.585  25.148  0.00  0.00    +0.249 C 
ATOM     38  O   LIG    1      -37.606  77.478  25.640  0.00  0.00    -0.270 OA
ATOM     39  C   LIG    1      -39.589  76.651  24.376  0.00  0.00    +0.048 C 
ATOM     40  C   LIG    1      -40.288  77.739  23.943  0.00  0.00    +0.039 C 
ATOM     41  C   LIG    1      -40.021  75.278  24.141  0.00  0.00    +0.008 A 
ATOM     42  C   LIG    1      -41.159  74.738  23.551  0.00  0.00    +0.012 A 
ATOM     43  C   LIG    1      -41.255  73.346  23.475  0.00  0.00    +0.024 A 
BRANCH  40  44
ATOM     44  C   LIG    1      -39.934  79.095  24.138  0.00  0.00    +0.040 A 
ATOM     45  N   LIG    1      -39.915  79.659  25.390  0.00  0.00    -0.361 N 
ATOM     46  H   LIG    1      -40.042  79.146  26.255  0.00  0.00    +0.165 HD
ATOM     47  C   LIG    1      -39.564  80.977  25.311  0.00  0.00    +0.083 A 
ATOM     48  C   LIG    1      -39.385  81.288  23.984  0.00  0.00    +0.019 A 
ATOM     49  C   LIG    1      -39.633  80.107  23.239  0.00  0.00    +0.027 A 
ENDBRANCH  40  44
ENDBRANCH  30  32
ENDBRANCH   3  30
TORSDOF 10
ENDMDL
