MODEL 1
REMARK VINA RESULT:      -7.3      0.000      0.000
REMARK  Name = pdb/CHEMBL3892403.pdb
REMARK                            x       y       z     vdW  Elec       q    Type
REMARK                         _______ _______ _______ _____ _____    ______ ____
ROOT
ATOM      1  C   LIG    1      -36.634  66.936  20.019  0.00  0.00    +0.323 A 
ATOM      2  N   LIG    1      -36.924  66.462  21.246  0.00  0.00    -0.201 NA
ATOM      3  C   LIG    1      -37.693  67.257  22.024  0.00  0.00    +0.145 A 
ATOM      4  C   LIG    1      -38.170  68.509  21.654  0.00  0.00    +0.105 A 
ATOM      5  C   LIG    1      -37.766  68.875  20.384  0.00  0.00    +0.145 A 
ATOM      6  N   LIG    1      -37.019  68.125  19.544  0.00  0.00    -0.201 NA
ENDROOT
BRANCH   4   7
ATOM      7  N   LIG    1      -38.925  69.290  22.584  0.00  0.00    -0.196 NA
ATOM      8  C   LIG    1      -38.339  70.066  23.435  0.00  0.00    +0.285 C 
BRANCH   8   9
ATOM      9  N   LIG    1      -39.019  70.818  24.361  0.00  0.00    -0.269 N 
ATOM     10  H   LIG    1      -38.783  70.557  25.312  0.00  0.00    +0.157 HD
BRANCH   9  11
ATOM     11  C   LIG    1      -39.384  72.200  24.299  0.00  0.00    +0.043 A 
ATOM     12  C   LIG    1      -40.623  72.613  23.710  0.00  0.00    +0.003 A 
ATOM     13  C   LIG    1      -40.870  74.013  23.677  0.00  0.00    +0.011 A 
ATOM     14  C   LIG    1      -39.988  74.964  24.212  0.00  0.00    +0.013 A 
ATOM     15  C   LIG    1      -38.790  74.560  24.789  0.00  0.00    +0.057 A 
ATOM     16  C   LIG    1      -38.495  73.188  24.800  0.00  0.00    +0.036 A 
BRANCH  12  17
ATOM     17  C   LIG    1      -41.681  71.694  23.135  0.00  0.00    -0.016 A 
ATOM     18  C   LIG    1      -42.027  71.737  21.757  0.00  0.00    +0.012 A 
ATOM     19  C   LIG    1      -42.958  70.856  21.166  0.00  0.00    -0.050 A 
ATOM     20  C   LIG    1      -43.240  70.904  19.689  0.00  0.00    +0.044 C 
ATOM     21  C   LIG    1      -43.576  69.895  21.962  0.00  0.00    +0.003 A 
ATOM     22  C   LIG    1      -43.286  69.840  23.321  0.00  0.00    +0.001 A 
ATOM     23  C   LIG    1      -42.349  70.717  23.892  0.00  0.00    +0.008 A 
ENDBRANCH  12  17
BRANCH  15  24
ATOM     24  C   LIG    1      -37.858  75.562  25.432  0.00  0.00    +0.417 C 
ATOM     25  F   LIG    1      -37.039  74.987  26.356  0.00  0.00    -0.166 F 
ATOM     26  F   LIG    1      -38.518  76.559  26.081  0.00  0.00    -0.166 F 
ATOM     27  F   LIG    1      -37.034  76.180  24.540  0.00  0.00    -0.166 F 
ENDBRANCH  15  24
ENDBRANCH   9  11
ENDBRANCH   8   9
BRANCH   8  28
ATOM     28  O   LIG    1      -37.020  70.268  23.394  0.00  0.00    -0.481 OA
ATOM     29  H   LIG    1      -36.679  70.186  22.490  0.00  0.00    +0.295 HD
ENDBRANCH   8  28
ENDBRANCH   4   7
BRANCH   1  30
ATOM     30  O   LIG    1      -35.829  66.196  19.160  0.00  0.00    -0.424 OA
BRANCH  30  34
ATOM     31  C   LIG    1      -31.858  67.437  18.710  0.00  0.00    -0.011 A 
ATOM     32  C   LIG    1      -32.306  66.854  19.904  0.00  0.00    +0.012 A 
ATOM     33  C   LIG    1      -33.644  66.459  20.044  0.00  0.00    +0.047 A 
ATOM     34  C   LIG    1      -34.536  66.625  18.984  0.00  0.00    +0.132 A 
ATOM     35  C   LIG    1      -34.115  67.272  17.825  0.00  0.00    +0.047 A 
ATOM     36  C   LIG    1      -32.792  67.676  17.693  0.00  0.00    +0.012 A 
BRANCH  31  43
ATOM     37  C   LIG    1      -28.019  64.983  18.860  0.00  0.00    +0.300 C 
ATOM     38  C   LIG    1      -26.800  65.788  18.502  0.00  0.00    +0.099 C 
ATOM     39  C   LIG    1      -26.977  67.097  18.251  0.00  0.00    +0.170 C 
ATOM     40  N   LIG    1      -28.237  67.699  18.302  0.00  0.00    -0.221 N 
ATOM     41  N   LIG    1      -28.547  69.000  18.073  0.00  0.00    -0.175 NA
ATOM     42  C   LIG    1      -29.876  69.059  18.209  0.00  0.00    +0.147 A 
ATOM     43  C   LIG    1      -30.466  67.815  18.526  0.00  0.00    +0.066 A 
ATOM     44  C   LIG    1      -29.381  66.967  18.620  0.00  0.00    +0.219 A 
ATOM     45  N   LIG    1      -29.232  65.649  18.931  0.00  0.00    -0.187 N 
ATOM     46  H   LIG    1      -30.022  65.118  19.273  0.00  0.00    +0.300 HD
BRANCH  37  47
ATOM     47  N   LIG    1      -27.828  63.720  19.073  0.00  0.00    -0.054 NA
BRANCH  47  49
ATOM     48  C   LIG    1      -26.510  62.616  20.785  0.00  0.00    +0.055 C 
ATOM     49  C   LIG    1      -26.480  63.270  19.415  0.00  0.00    +0.274 C 
ENDBRANCH  47  49
ENDBRANCH  37  47
ENDBRANCH  31  43
ENDBRANCH  30  34
ENDBRANCH   1  30
TORSDOF 11
ENDMDL
MODEL 2
REMARK VINA RESULT:      -7.3     17.153     21.280
REMARK  Name = pdb/CHEMBL3892403.pdb
REMARK                            x       y       z     vdW  Elec       q    Type
REMARK                         _______ _______ _______ _____ _____    ______ ____
ROOT
ATOM      1  C   LIG    1      -26.146  82.668  37.321  0.00  0.00    +0.323 A 
ATOM      2  N   LIG    1      -25.908  83.828  36.679  0.00  0.00    -0.201 NA
ATOM      3  C   LIG    1      -26.997  84.545  36.321  0.00  0.00    +0.145 A 
ATOM      4  C   LIG    1      -28.313  84.158  36.549  0.00  0.00    +0.105 A 
ATOM      5  C   LIG    1      -28.402  82.935  37.185  0.00  0.00    +0.145 A 
ATOM      6  N   LIG    1      -27.360  82.176  37.591  0.00  0.00    -0.201 NA
ENDROOT
BRANCH   4   7
ATOM      7  N   LIG    1      -29.389  84.968  36.070  0.00  0.00    -0.196 NA
ATOM      8  C   LIG    1      -29.777  84.905  34.839  0.00  0.00    +0.285 C 
BRANCH   8   9
ATOM      9  N   LIG    1      -30.790  85.677  34.328  0.00  0.00    -0.269 N 
ATOM     10  H   LIG    1      -31.292  86.178  35.054  0.00  0.00    +0.157 HD
BRANCH   9  11
ATOM     11  C   LIG    1      -30.824  86.412  33.101  0.00  0.00    +0.043 A 
ATOM     12  C   LIG    1      -29.975  87.548  32.894  0.00  0.00    +0.003 A 
ATOM     13  C   LIG    1      -30.114  88.220  31.648  0.00  0.00    +0.011 A 
ATOM     14  C   LIG    1      -30.997  87.803  30.641  0.00  0.00    +0.013 A 
ATOM     15  C   LIG    1      -31.814  86.697  30.843  0.00  0.00    +0.057 A 
ATOM     16  C   LIG    1      -31.734  86.036  32.077  0.00  0.00    +0.036 A 
BRANCH  12  17
ATOM     17  C   LIG    1      -28.951  88.080  33.875  0.00  0.00    -0.016 A 
ATOM     18  C   LIG    1      -29.196  89.257  34.633  0.00  0.00    +0.012 A 
ATOM     19  C   LIG    1      -28.299  89.750  35.605  0.00  0.00    -0.050 A 
ATOM     20  C   LIG    1      -28.636  90.966  36.424  0.00  0.00    +0.044 C 
ATOM     21  C   LIG    1      -27.112  89.061  35.839  0.00  0.00    +0.003 A 
ATOM     22  C   LIG    1      -26.822  87.921  35.097  0.00  0.00    +0.001 A 
ATOM     23  C   LIG    1      -27.730  87.436  34.141  0.00  0.00    +0.008 A 
ENDBRANCH  12  17
BRANCH  15  24
ATOM     24  C   LIG    1      -32.724  86.191  29.745  0.00  0.00    +0.417 C 
ATOM     25  F   LIG    1      -33.058  87.169  28.859  0.00  0.00    -0.166 F 
ATOM     26  F   LIG    1      -33.899  85.693  30.219  0.00  0.00    -0.166 F 
ATOM     27  F   LIG    1      -32.168  85.192  29.004  0.00  0.00    -0.166 F 
ENDBRANCH  15  24
ENDBRANCH   9  11
ENDBRANCH   8   9
BRANCH   8  28
ATOM     28  O   LIG    1      -29.278  83.992  34.002  0.00  0.00    -0.481 OA
ATOM     29  H   LIG    1      -29.446  83.092  34.321  0.00  0.00    +0.295 HD
ENDBRANCH   8  28
ENDBRANCH   4   7
BRANCH   1  30
ATOM     30  O   LIG    1      -25.086  81.854  37.705  0.00  0.00    -0.424 OA
BRANCH  30  34
ATOM     31  C   LIG    1      -23.335  79.524  34.702  0.00  0.00    -0.011 A 
ATOM     32  C   LIG    1      -24.497  79.102  35.365  0.00  0.00    +0.012 A 
ATOM     33  C   LIG    1      -25.061  79.888  36.381  0.00  0.00    +0.047 A 
ATOM     34  C   LIG    1      -24.480  81.108  36.724  0.00  0.00    +0.132 A 
ATOM     35  C   LIG    1      -23.286  81.496  36.122  0.00  0.00    +0.047 A 
ATOM     36  C   LIG    1      -22.720  80.710  35.125  0.00  0.00    +0.012 A 
BRANCH  31  43
ATOM     37  C   LIG    1      -25.269  77.159  31.319  0.00  0.00    +0.300 C 
ATOM     38  C   LIG    1      -24.262  76.593  30.355  0.00  0.00    +0.099 C 
ATOM     39  C   LIG    1      -22.962  76.794  30.633  0.00  0.00    +0.170 C 
ATOM     40  N   LIG    1      -22.545  77.509  31.759  0.00  0.00    -0.221 N 
ATOM     41  N   LIG    1      -21.274  77.778  32.150  0.00  0.00    -0.175 NA
ATOM     42  C   LIG    1      -21.411  78.516  33.257  0.00  0.00    +0.147 A 
ATOM     43  C   LIG    1      -22.757  78.748  33.617  0.00  0.00    +0.066 A 
ATOM     44  C   LIG    1      -23.464  78.053  32.657  0.00  0.00    +0.219 A 
ATOM     45  N   LIG    1      -24.789  77.824  32.434  0.00  0.00    -0.187 N 
ATOM     46  H   LIG    1      -25.473  78.107  33.123  0.00  0.00    +0.300 HD
BRANCH  37  47
ATOM     47  N   LIG    1      -26.514  76.975  31.017  0.00  0.00    -0.054 NA
BRANCH  47  49
ATOM     48  C   LIG    1      -27.194  74.964  32.192  0.00  0.00    +0.055 C 
ATOM     49  C   LIG    1      -27.411  76.460  32.051  0.00  0.00    +0.274 C 
ENDBRANCH  47  49
ENDBRANCH  37  47
ENDBRANCH  31  43
ENDBRANCH  30  34
ENDBRANCH   1  30
TORSDOF 11
ENDMDL
MODEL 3
REMARK VINA RESULT:      -7.1     18.034     23.823
REMARK  Name = pdb/CHEMBL3892403.pdb
REMARK                            x       y       z     vdW  Elec       q    Type
REMARK                         _______ _______ _______ _____ _____    ______ ____
ROOT
ATOM      1  C   LIG    1      -26.728  82.151  37.276  0.00  0.00    +0.323 A 
ATOM      2  N   LIG    1      -25.447  82.539  37.117  0.00  0.00    -0.201 NA
ATOM      3  C   LIG    1      -24.585  81.587  36.693  0.00  0.00    +0.145 A 
ATOM      4  C   LIG    1      -24.925  80.264  36.439  0.00  0.00    +0.105 A 
ATOM      5  C   LIG    1      -26.262  80.006  36.677  0.00  0.00    +0.145 A 
ATOM      6  N   LIG    1      -27.184  80.910  37.078  0.00  0.00    -0.201 NA
ENDROOT
BRANCH   4   7
ATOM      7  N   LIG    1      -23.916  79.327  36.054  0.00  0.00    -0.196 NA
ATOM      8  C   LIG    1      -23.930  78.773  34.886  0.00  0.00    +0.285 C 
BRANCH   8   9
ATOM      9  N   LIG    1      -22.996  77.852  34.479  0.00  0.00    -0.269 N 
ATOM     10  H   LIG    1      -23.322  76.899  34.598  0.00  0.00    +0.157 HD
BRANCH   9  11
ATOM     11  C   LIG    1      -22.078  77.932  33.385  0.00  0.00    +0.043 A 
ATOM     12  C   LIG    1      -20.822  78.608  33.519  0.00  0.00    +0.003 A 
ATOM     13  C   LIG    1      -20.001  78.651  32.359  0.00  0.00    +0.011 A 
ATOM     14  C   LIG    1      -20.353  78.045  31.143  0.00  0.00    +0.013 A 
ATOM     15  C   LIG    1      -21.568  77.384  31.018  0.00  0.00    +0.057 A 
ATOM     16  C   LIG    1      -22.422  77.359  32.131  0.00  0.00    +0.036 A 
BRANCH  12  17
ATOM     17  C   LIG    1      -20.300  79.267  34.780  0.00  0.00    -0.016 A 
ATOM     18  C   LIG    1      -20.769  80.544  35.194  0.00  0.00    +0.012 A 
ATOM     19  C   LIG    1      -20.360  81.164  36.395  0.00  0.00    -0.050 A 
ATOM     20  C   LIG    1      -20.935  82.488  36.817  0.00  0.00    +0.044 C 
ATOM     21  C   LIG    1      -19.451  80.505  37.219  0.00  0.00    +0.003 A 
ATOM     22  C   LIG    1      -18.948  79.267  36.834  0.00  0.00    +0.001 A 
ATOM     23  C   LIG    1      -19.373  78.657  35.642  0.00  0.00    +0.008 A 
ENDBRANCH  12  17
BRANCH  15  24
ATOM     24  C   LIG    1      -21.936  76.666  29.738  0.00  0.00    +0.417 C 
ATOM     25  F   LIG    1      -22.981  77.258  29.096  0.00  0.00    -0.166 F 
ATOM     26  F   LIG    1      -22.305  75.372  29.944  0.00  0.00    -0.166 F 
ATOM     27  F   LIG    1      -20.920  76.624  28.833  0.00  0.00    -0.166 F 
ENDBRANCH  15  24
ENDBRANCH   9  11
ENDBRANCH   8   9
BRANCH   8  28
ATOM     28  O   LIG    1      -24.806  79.148  33.952  0.00  0.00    -0.481 OA
ATOM     29  H   LIG    1      -24.357  79.453  33.149  0.00  0.00    +0.295 HD
ENDBRANCH   8  28
ENDBRANCH   4   7
BRANCH   1  30
ATOM     30  O   LIG    1      -27.678  83.058  37.731  0.00  0.00    -0.424 OA
BRANCH  30  34
ATOM     31  C   LIG    1      -29.043  85.863  34.942  0.00  0.00    -0.011 A 
ATOM     32  C   LIG    1      -27.732  85.910  35.438  0.00  0.00    +0.012 A 
ATOM     33  C   LIG    1      -27.296  84.972  36.386  0.00  0.00    +0.047 A 
ATOM     34  C   LIG    1      -28.161  83.970  36.825  0.00  0.00    +0.132 A 
ATOM     35  C   LIG    1      -29.484  83.964  36.393  0.00  0.00    +0.047 A 
ATOM     36  C   LIG    1      -29.919  84.902  35.465  0.00  0.00    +0.012 A 
BRANCH  31  43
ATOM     37  C   LIG    1      -31.820  85.312  31.369  0.00  0.00    +0.300 C 
ATOM     38  C   LIG    1      -32.099  86.600  30.644  0.00  0.00    +0.099 C 
ATOM     39  C   LIG    1      -31.469  87.704  31.085  0.00  0.00    +0.170 C 
ATOM     40  N   LIG    1      -30.600  87.676  32.180  0.00  0.00    -0.221 N 
ATOM     41  N   LIG    1      -29.907  88.712  32.718  0.00  0.00    -0.175 NA
ATOM     42  C   LIG    1      -29.258  88.178  33.758  0.00  0.00    +0.147 A 
ATOM     43  C   LIG    1      -29.504  86.797  33.928  0.00  0.00    +0.066 A 
ATOM     44  C   LIG    1      -30.339  86.494  32.872  0.00  0.00    +0.219 A 
ATOM     45  N   LIG    1      -30.919  85.346  32.421  0.00  0.00    -0.187 N 
ATOM     46  H   LIG    1      -30.664  84.457  32.829  0.00  0.00    +0.300 HD
BRANCH  37  47
ATOM     47  N   LIG    1      -32.456  84.268  30.943  0.00  0.00    -0.054 NA
BRANCH  47  49
ATOM     48  C   LIG    1      -34.494  83.376  29.975  0.00  0.00    +0.055 C 
ATOM     49  C   LIG    1      -33.912  84.238  31.081  0.00  0.00    +0.274 C 
ENDBRANCH  47  49
ENDBRANCH  37  47
ENDBRANCH  31  43
ENDBRANCH  30  34
ENDBRANCH   1  30
TORSDOF 11
ENDMDL
MODEL 4
REMARK VINA RESULT:      -7.1     15.156     19.889
REMARK  Name = pdb/CHEMBL3892403.pdb
REMARK                            x       y       z     vdW  Elec       q    Type
REMARK                         _______ _______ _______ _____ _____    ______ ____
ROOT
ATOM      1  C   LIG    1      -28.833  78.092  11.139  0.00  0.00    +0.323 A 
ATOM      2  N   LIG    1      -28.836  77.192  12.142  0.00  0.00    -0.201 NA
ATOM      3  C   LIG    1      -27.767  77.219  12.969  0.00  0.00    +0.145 A 
ATOM      4  C   LIG    1      -26.683  78.080  12.839  0.00  0.00    +0.105 A 
ATOM      5  C   LIG    1      -26.804  78.921  11.749  0.00  0.00    +0.145 A 
ATOM      6  N   LIG    1      -27.851  78.966  10.896  0.00  0.00    -0.201 NA
ENDROOT
BRANCH   4   7
ATOM      7  N   LIG    1      -25.576  77.977  13.737  0.00  0.00    -0.196 NA
ATOM      8  C   LIG    1      -25.547  78.645  14.842  0.00  0.00    +0.285 C 
BRANCH   8   9
ATOM      9  N   LIG    1      -24.498  78.596  15.725  0.00  0.00    -0.269 N 
ATOM     10  H   LIG    1      -24.792  78.312  16.653  0.00  0.00    +0.157 HD
BRANCH   9  11
ATOM     11  C   LIG    1      -23.145  78.197  15.488  0.00  0.00    +0.043 A 
ATOM     12  C   LIG    1      -22.096  79.166  15.366  0.00  0.00    +0.003 A 
ATOM     13  C   LIG    1      -20.795  78.658  15.101  0.00  0.00    +0.011 A 
ATOM     14  C   LIG    1      -20.509  77.289  14.993  0.00  0.00    +0.013 A 
ATOM     15  C   LIG    1      -21.527  76.351  15.119  0.00  0.00    +0.057 A 
ATOM     16  C   LIG    1      -22.830  76.819  15.338  0.00  0.00    +0.036 A 
BRANCH  12  17
ATOM     17  C   LIG    1      -22.256  80.667  15.501  0.00  0.00    -0.016 A 
ATOM     18  C   LIG    1      -22.434  81.496  14.360  0.00  0.00    +0.012 A 
ATOM     19  C   LIG    1      -22.652  82.888  14.445  0.00  0.00    -0.050 A 
ATOM     20  C   LIG    1      -22.897  83.710  13.209  0.00  0.00    +0.044 C 
ATOM     21  C   LIG    1      -22.695  83.489  15.700  0.00  0.00    +0.003 A 
ATOM     22  C   LIG    1      -22.497  82.716  16.839  0.00  0.00    +0.001 A 
ATOM     23  C   LIG    1      -22.292  81.330  16.740  0.00  0.00    +0.008 A 
ENDBRANCH  12  17
BRANCH  15  24
ATOM     24  C   LIG    1      -21.229  74.868  15.074  0.00  0.00    +0.417 C 
ATOM     25  F   LIG    1      -19.903  74.603  15.228  0.00  0.00    -0.166 F 
ATOM     26  F   LIG    1      -21.596  74.290  13.897  0.00  0.00    -0.166 F 
ATOM     27  F   LIG    1      -21.865  74.162  16.050  0.00  0.00    -0.166 F 
ENDBRANCH  15  24
ENDBRANCH   9  11
ENDBRANCH   8   9
BRANCH   8  28
ATOM     28  O   LIG    1      -26.603  79.354  15.250  0.00  0.00    -0.481 OA
ATOM     29  H   LIG    1      -26.461  80.304  15.122  0.00  0.00    +0.295 HD
ENDBRANCH   8  28
ENDBRANCH   4   7
BRANCH   1  30
ATOM     30  O   LIG    1      -29.882  78.120  10.227  0.00  0.00    -0.424 OA
BRANCH  30  34
ATOM     31  C   LIG    1      -32.618  81.260  10.635  0.00  0.00    -0.011 A 
ATOM     32  C   LIG    1      -32.650  80.152  11.495  0.00  0.00    +0.012 A 
ATOM     33  C   LIG    1      -31.735  79.101  11.333  0.00  0.00    +0.047 A 
ATOM     34  C   LIG    1      -30.773  79.161  10.326  0.00  0.00    +0.132 A 
ATOM     35  C   LIG    1      -30.785  80.222   9.424  0.00  0.00    +0.047 A 
ATOM     36  C   LIG    1      -31.700  81.256   9.576  0.00  0.00    +0.012 A 
BRANCH  31  43
ATOM     37  C   LIG    1      -31.845  85.653  11.574  0.00  0.00    +0.300 C 
ATOM     38  C   LIG    1      -33.101  86.481  11.560  0.00  0.00    +0.099 C 
ATOM     39  C   LIG    1      -34.261  85.837  11.342  0.00  0.00    +0.170 C 
ATOM     40  N   LIG    1      -34.315  84.458  11.121  0.00  0.00    -0.221 N 
ATOM     41  N   LIG    1      -35.414  83.695  10.893  0.00  0.00    -0.175 NA
ATOM     42  C   LIG    1      -34.934  82.461  10.709  0.00  0.00    +0.147 A 
ATOM     43  C   LIG    1      -33.527  82.382  10.810  0.00  0.00    +0.066 A 
ATOM     44  C   LIG    1      -33.160  83.676  11.117  0.00  0.00    +0.219 A 
ATOM     45  N   LIG    1      -31.972  84.287  11.386  0.00  0.00    -0.187 N 
ATOM     46  H   LIG    1      -31.134  83.733  11.501  0.00  0.00    +0.300 HD
BRANCH  37  47
ATOM     47  N   LIG    1      -30.738  86.298  11.760  0.00  0.00    -0.054 NA
BRANCH  47  49
ATOM     48  C   LIG    1      -28.711  85.603  10.622  0.00  0.00    +0.055 C 
ATOM     49  C   LIG    1      -29.886  86.564  10.602  0.00  0.00    +0.274 C 
ENDBRANCH  47  49
ENDBRANCH  37  47
ENDBRANCH  31  43
ENDBRANCH  30  34
ENDBRANCH   1  30
TORSDOF 11
ENDMDL
MODEL 5
REMARK VINA RESULT:      -7.0     14.953     20.328
REMARK  Name = pdb/CHEMBL3892403.pdb
REMARK                            x       y       z     vdW  Elec       q    Type
REMARK                         _______ _______ _______ _____ _____    ______ ____
ROOT
ATOM      1  C   LIG    1      -28.566  75.577  32.643  0.00  0.00    +0.323 A 
ATOM      2  N   LIG    1      -27.538  75.446  31.781  0.00  0.00    -0.201 NA
ATOM      3  C   LIG    1      -26.460  76.226  32.017  0.00  0.00    +0.145 A 
ATOM      4  C   LIG    1      -26.356  77.146  33.053  0.00  0.00    +0.105 A 
ATOM      5  C   LIG    1      -27.496  77.194  33.834  0.00  0.00    +0.145 A 
ATOM      6  N   LIG    1      -28.599  76.430  33.671  0.00  0.00    -0.201 NA
ENDROOT
BRANCH   4   7
ATOM      7  N   LIG    1      -25.190  77.963  33.170  0.00  0.00    -0.196 NA
ATOM      8  C   LIG    1      -24.195  77.607  33.914  0.00  0.00    +0.285 C 
BRANCH   8   9
ATOM      9  N   LIG    1      -23.064  78.367  34.075  0.00  0.00    -0.269 N 
ATOM     10  H   LIG    1      -22.864  78.553  35.052  0.00  0.00    +0.157 HD
BRANCH   9  11
ATOM     11  C   LIG    1      -21.852  78.343  33.315  0.00  0.00    +0.043 A 
ATOM     12  C   LIG    1      -20.698  79.080  33.737  0.00  0.00    +0.003 A 
ATOM     13  C   LIG    1      -19.558  79.007  32.890  0.00  0.00    +0.011 A 
ATOM     14  C   LIG    1      -19.518  78.238  31.717  0.00  0.00    +0.013 A 
ATOM     15  C   LIG    1      -20.636  77.519  31.314  0.00  0.00    +0.057 A 
ATOM     16  C   LIG    1      -21.792  77.602  32.104  0.00  0.00    +0.036 A 
BRANCH  12  17
ATOM     17  C   LIG    1      -20.591  79.914  34.997  0.00  0.00    -0.016 A 
ATOM     18  C   LIG    1      -19.727  79.537  36.061  0.00  0.00    +0.012 A 
ATOM     19  C   LIG    1      -19.547  80.318  37.223  0.00  0.00    -0.050 A 
ATOM     20  C   LIG    1      -18.573  79.903  38.292  0.00  0.00    +0.044 C 
ATOM     21  C   LIG    1      -20.245  81.517  37.345  0.00  0.00    +0.003 A 
ATOM     22  C   LIG    1      -21.121  81.906  36.338  0.00  0.00    +0.001 A 
ATOM     23  C   LIG    1      -21.281  81.124  35.182  0.00  0.00    +0.008 A 
ENDBRANCH  12  17
BRANCH  15  24
ATOM     24  C   LIG    1      -20.592  76.630  30.091  0.00  0.00    +0.417 C 
ATOM     25  F   LIG    1      -20.611  75.307  30.412  0.00  0.00    -0.166 F 
ATOM     26  F   LIG    1      -19.473  76.820  29.339  0.00  0.00    -0.166 F 
ATOM     27  F   LIG    1      -21.643  76.823  29.247  0.00  0.00    -0.166 F 
ENDBRANCH  15  24
ENDBRANCH   9  11
ENDBRANCH   8   9
BRANCH   8  28
ATOM     28  O   LIG    1      -24.163  76.406  34.496  0.00  0.00    -0.481 OA
ATOM     29  H   LIG    1      -25.030  76.163  34.853  0.00  0.00    +0.295 HD
ENDBRANCH   8  28
ENDBRANCH   4   7
BRANCH   1  30
ATOM     30  O   LIG    1      -29.725  74.831  32.463  0.00  0.00    -0.424 OA
BRANCH  30  34
ATOM     31  C   LIG    1      -32.637  76.370  29.881  0.00  0.00    -0.011 A 
ATOM     32  C   LIG    1      -32.939  76.061  31.215  0.00  0.00    +0.012 A 
ATOM     33  C   LIG    1      -31.955  75.530  32.062  0.00  0.00    +0.047 A 
ATOM     34  C   LIG    1      -30.660  75.326  31.586  0.00  0.00    +0.132 A 
ATOM     35  C   LIG    1      -30.375  75.561  30.244  0.00  0.00    +0.047 A 
ATOM     36  C   LIG    1      -31.354  76.074  29.402  0.00  0.00    +0.012 A 
BRANCH  31  43
ATOM     37  C   LIG    1      -34.917  80.311  30.109  0.00  0.00    +0.300 C 
ATOM     38  C   LIG    1      -35.778  80.556  28.900  0.00  0.00    +0.099 C 
ATOM     39  C   LIG    1      -35.815  79.591  27.964  0.00  0.00    +0.170 C 
ATOM     40  N   LIG    1      -35.080  78.409  28.086  0.00  0.00    -0.221 N 
ATOM     41  N   LIG    1      -35.033  77.365  27.220  0.00  0.00    -0.175 NA
ATOM     42  C   LIG    1      -34.166  76.510  27.771  0.00  0.00    +0.147 A 
ATOM     43  C   LIG    1      -33.628  76.962  28.996  0.00  0.00    +0.066 A 
ATOM     44  C   LIG    1      -34.267  78.169  29.194  0.00  0.00    +0.219 A 
ATOM     45  N   LIG    1      -34.245  79.103  30.187  0.00  0.00    -0.187 N 
ATOM     46  H   LIG    1      -33.756  78.910  31.050  0.00  0.00    +0.300 HD
BRANCH  37  47
ATOM     47  N   LIG    1      -34.877  81.264  30.984  0.00  0.00    -0.054 NA
BRANCH  47  49
ATOM     48  C   LIG    1      -35.218  82.075  33.246  0.00  0.00    +0.055 C 
ATOM     49  C   LIG    1      -35.758  81.176  32.148  0.00  0.00    +0.274 C 
ENDBRANCH  47  49
ENDBRANCH  37  47
ENDBRANCH  31  43
ENDBRANCH  30  34
ENDBRANCH   1  30
TORSDOF 11
ENDMDL
MODEL 6
REMARK VINA RESULT:      -6.9      8.123     14.634
REMARK  Name = pdb/CHEMBL3892403.pdb
REMARK                            x       y       z     vdW  Elec       q    Type
REMARK                         _______ _______ _______ _____ _____    ______ ____
ROOT
ATOM      1  C   LIG    1      -34.908  76.875  29.179  0.00  0.00    +0.323 A 
ATOM      2  N   LIG    1      -36.254  76.933  29.190  0.00  0.00    -0.201 NA
ATOM      3  C   LIG    1      -36.897  75.957  28.510  0.00  0.00    +0.145 A 
ATOM      4  C   LIG    1      -36.272  74.937  27.802  0.00  0.00    +0.105 A 
ATOM      5  C   LIG    1      -34.894  75.025  27.854  0.00  0.00    +0.145 A 
ATOM      6  N   LIG    1      -34.185  75.956  28.530  0.00  0.00    -0.201 NA
ENDROOT
BRANCH   4   7
ATOM      7  N   LIG    1      -37.054  73.993  27.067  0.00  0.00    -0.196 NA
ATOM      8  C   LIG    1      -37.373  72.849  27.576  0.00  0.00    +0.285 C 
BRANCH   8   9
ATOM      9  N   LIG    1      -38.103  71.902  26.902  0.00  0.00    -0.269 N 
ATOM     10  H   LIG    1      -39.074  72.176  26.791  0.00  0.00    +0.157 HD
BRANCH   9  11
ATOM     11  C   LIG    1      -37.696  71.060  25.820  0.00  0.00    +0.043 A 
ATOM     12  C   LIG    1      -38.352  71.120  24.547  0.00  0.00    +0.003 A 
ATOM     13  C   LIG    1      -37.884  70.217  23.554  0.00  0.00    +0.011 A 
ATOM     14  C   LIG    1      -36.818  69.328  23.760  0.00  0.00    +0.013 A 
ATOM     15  C   LIG    1      -36.179  69.278  24.993  0.00  0.00    +0.057 A 
ATOM     16  C   LIG    1      -36.643  70.125  26.009  0.00  0.00    +0.036 A 
BRANCH  12  17
ATOM     17  C   LIG    1      -39.483  72.056  24.176  0.00  0.00    -0.016 A 
ATOM     18  C   LIG    1      -39.374  73.460  24.370  0.00  0.00    +0.012 A 
ATOM     19  C   LIG    1      -40.377  74.373  23.977  0.00  0.00    -0.050 A 
ATOM     20  C   LIG    1      -40.183  75.855  24.149  0.00  0.00    +0.044 C 
ATOM     21  C   LIG    1      -41.533  73.888  23.373  0.00  0.00    +0.003 A 
ATOM     22  C   LIG    1      -41.690  72.518  23.192  0.00  0.00    +0.001 A 
ATOM     23  C   LIG    1      -40.678  71.622  23.577  0.00  0.00    +0.008 A 
ENDBRANCH  12  17
BRANCH  15  24
ATOM     24  C   LIG    1      -34.985  68.376  25.215  0.00  0.00    +0.417 C 
ATOM     25  F   LIG    1      -34.625  67.708  24.084  0.00  0.00    -0.166 F 
ATOM     26  F   LIG    1      -35.209  67.424  26.161  0.00  0.00    -0.166 F 
ATOM     27  F   LIG    1      -33.871  69.048  25.619  0.00  0.00    -0.166 F 
ENDBRANCH  15  24
ENDBRANCH   9  11
ENDBRANCH   8   9
BRANCH   8  28
ATOM     28  O   LIG    1      -37.098  72.558  28.850  0.00  0.00    -0.481 OA
ATOM     29  H   LIG    1      -37.803  72.862  29.441  0.00  0.00    +0.295 HD
ENDBRANCH   8  28
ENDBRANCH   4   7
BRANCH   1  30
ATOM     30  O   LIG    1      -34.164  77.851  29.832  0.00  0.00    -0.424 OA
BRANCH  30  34
ATOM     31  C   LIG    1      -35.192  81.818  28.988  0.00  0.00    -0.011 A 
ATOM     32  C   LIG    1      -34.715  80.962  27.985  0.00  0.00    +0.012 A 
ATOM     33  C   LIG    1      -34.359  79.640  28.289  0.00  0.00    +0.047 A 
ATOM     34  C   LIG    1      -34.498  79.161  29.591  0.00  0.00    +0.132 A 
ATOM     35  C   LIG    1      -34.899  80.028  30.605  0.00  0.00    +0.047 A 
ATOM     36  C   LIG    1      -35.238  81.342  30.305  0.00  0.00    +0.012 A 
BRANCH  31  43
ATOM     37  C   LIG    1      -32.981  85.792  29.315  0.00  0.00    +0.300 C 
ATOM     38  C   LIG    1      -33.785  86.950  28.791  0.00  0.00    +0.099 C 
ATOM     39  C   LIG    1      -35.033  86.690  28.363  0.00  0.00    +0.170 C 
ATOM     40  N   LIG    1      -35.572  85.401  28.384  0.00  0.00    -0.221 N 
ATOM     41  N   LIG    1      -36.809  85.010  27.985  0.00  0.00    -0.175 NA
ATOM     42  C   LIG    1      -36.820  83.686  28.172  0.00  0.00    +0.147 A 
ATOM     43  C   LIG    1      -35.608  83.180  28.689  0.00  0.00    +0.066 A 
ATOM     44  C   LIG    1      -34.838  84.313  28.855  0.00  0.00    +0.219 A 
ATOM     45  N   LIG    1      -33.588  84.547  29.345  0.00  0.00    -0.187 N 
ATOM     46  H   LIG    1      -33.074  83.802  29.795  0.00  0.00    +0.300 HD
BRANCH  37  47
ATOM     47  N   LIG    1      -31.774  86.061  29.698  0.00  0.00    -0.054 NA
BRANCH  47  49
ATOM     48  C   LIG    1      -30.043  87.453  30.674  0.00  0.00    +0.055 C 
ATOM     49  C   LIG    1      -31.517  87.358  30.324  0.00  0.00    +0.274 C 
ENDBRANCH  47  49
ENDBRANCH  37  47
ENDBRANCH  31  43
ENDBRANCH  30  34
ENDBRANCH   1  30
TORSDOF 11
ENDMDL
MODEL 7
REMARK VINA RESULT:      -6.8     14.871     20.289
REMARK  Name = pdb/CHEMBL3892403.pdb
REMARK                            x       y       z     vdW  Elec       q    Type
REMARK                         _______ _______ _______ _____ _____    ______ ____
ROOT
ATOM      1  C   LIG    1      -28.951  76.046  33.621  0.00  0.00    +0.323 A 
ATOM      2  N   LIG    1      -28.550  76.636  34.765  0.00  0.00    -0.201 NA
ATOM      3  C   LIG    1      -27.385  77.318  34.705  0.00  0.00    +0.145 A 
ATOM      4  C   LIG    1      -26.585  77.428  33.574  0.00  0.00    +0.105 A 
ATOM      5  C   LIG    1      -27.106  76.747  32.490  0.00  0.00    +0.145 A 
ATOM      6  N   LIG    1      -28.272  76.064  32.470  0.00  0.00    -0.201 NA
ENDROOT
BRANCH   4   7
ATOM      7  N   LIG    1      -25.339  78.125  33.643  0.00  0.00    -0.196 NA
ATOM      8  C   LIG    1      -24.280  77.557  34.119  0.00  0.00    +0.285 C 
BRANCH   8   9
ATOM      9  N   LIG    1      -23.068  78.191  34.227  0.00  0.00    -0.269 N 
ATOM     10  H   LIG    1      -22.719  78.189  35.179  0.00  0.00    +0.157 HD
BRANCH   9  11
ATOM     11  C   LIG    1      -21.981  78.209  33.298  0.00  0.00    +0.043 A 
ATOM     12  C   LIG    1      -20.755  78.886  33.604  0.00  0.00    +0.003 A 
ATOM     13  C   LIG    1      -19.753  78.864  32.596  0.00  0.00    +0.011 A 
ATOM     14  C   LIG    1      -19.906  78.196  31.372  0.00  0.00    +0.013 A 
ATOM     15  C   LIG    1      -21.092  77.534  31.080  0.00  0.00    +0.057 A 
ATOM     16  C   LIG    1      -22.119  77.572  32.035  0.00  0.00    +0.036 A 
BRANCH  12  17
ATOM     17  C   LIG    1      -20.441  79.609  34.898  0.00  0.00    -0.016 A 
ATOM     18  C   LIG    1      -21.117  80.807  35.257  0.00  0.00    +0.012 A 
ATOM     19  C   LIG    1      -20.903  81.476  36.482  0.00  0.00    -0.050 A 
ATOM     20  C   LIG    1      -21.690  82.707  36.839  0.00  0.00    +0.044 C 
ATOM     21  C   LIG    1      -19.987  80.948  37.388  0.00  0.00    +0.003 A 
ATOM     22  C   LIG    1      -19.286  79.793  37.061  0.00  0.00    +0.001 A 
ATOM     23  C   LIG    1      -19.518  79.132  35.843  0.00  0.00    +0.008 A 
ENDBRANCH  12  17
BRANCH  15  24
ATOM     24  C   LIG    1      -21.252  76.751  29.796  0.00  0.00    +0.417 C 
ATOM     25  F   LIG    1      -22.412  77.051  29.149  0.00  0.00    -0.166 F 
ATOM     26  F   LIG    1      -21.269  75.404  29.995  0.00  0.00    -0.166 F 
ATOM     27  F   LIG    1      -20.255  76.981  28.897  0.00  0.00    -0.166 F 
ENDBRANCH  15  24
ENDBRANCH   9  11
ENDBRANCH   8   9
BRANCH   8  28
ATOM     28  O   LIG    1      -24.276  76.261  34.441  0.00  0.00    -0.481 OA
ATOM     29  H   LIG    1      -23.576  76.059  35.079  0.00  0.00    +0.295 HD
ENDBRANCH   8  28
ENDBRANCH   4   7
BRANCH   1  30
ATOM     30  O   LIG    1      -30.126  75.303  33.597  0.00  0.00    -0.424 OA
BRANCH  30  34
ATOM     31  C   LIG    1      -33.543  77.287  32.220  0.00  0.00    -0.011 A 
ATOM     32  C   LIG    1      -32.973  77.599  33.463  0.00  0.00    +0.012 A 
ATOM     33  C   LIG    1      -31.837  76.912  33.917  0.00  0.00    +0.047 A 
ATOM     34  C   LIG    1      -31.254  75.926  33.121  0.00  0.00    +0.132 A 
ATOM     35  C   LIG    1      -31.859  75.562  31.921  0.00  0.00    +0.047 A 
ATOM     36  C   LIG    1      -32.992  76.233  31.480  0.00  0.00    +0.012 A 
BRANCH  31  43
ATOM     37  C   LIG    1      -34.245  79.431  28.259  0.00  0.00    +0.300 C 
ATOM     38  C   LIG    1      -35.645  79.964  28.126  0.00  0.00    +0.099 C 
ATOM     39  C   LIG    1      -36.469  79.803  29.177  0.00  0.00    +0.170 C 
ATOM     40  N   LIG    1      -36.061  79.157  30.347  0.00  0.00    -0.221 N 
ATOM     41  N   LIG    1      -36.789  78.934  31.470  0.00  0.00    -0.175 NA
ATOM     42  C   LIG    1      -35.966  78.254  32.275  0.00  0.00    +0.147 A 
ATOM     43  C   LIG    1      -34.694  78.015  31.710  0.00  0.00    +0.066 A 
ATOM     44  C   LIG    1      -34.771  78.645  30.484  0.00  0.00    +0.219 A 
ATOM     45  N   LIG    1      -33.894  78.836  29.459  0.00  0.00    -0.187 N 
ATOM     46  H   LIG    1      -32.923  78.577  29.570  0.00  0.00    +0.300 HD
BRANCH  37  47
ATOM     47  N   LIG    1      -33.479  79.575  27.225  0.00  0.00    -0.054 NA
BRANCH  47  49
ATOM     48  C   LIG    1      -32.204  77.674  26.421  0.00  0.00    +0.055 C 
ATOM     49  C   LIG    1      -32.158  78.947  27.247  0.00  0.00    +0.274 C 
ENDBRANCH  47  49
ENDBRANCH  37  47
ENDBRANCH  31  43
ENDBRANCH  30  34
ENDBRANCH   1  30
TORSDOF 11
ENDMDL
MODEL 8
REMARK VINA RESULT:      -6.8     14.797     19.267
REMARK  Name = pdb/CHEMBL3892403.pdb
REMARK                            x       y       z     vdW  Elec       q    Type
REMARK                         _______ _______ _______ _____ _____    ______ ____
ROOT
ATOM      1  C   LIG    1      -28.835  76.885  32.577  0.00  0.00    +0.323 A 
ATOM      2  N   LIG    1      -28.469  76.616  33.846  0.00  0.00    -0.201 NA
ATOM      3  C   LIG    1      -27.144  76.671  34.107  0.00  0.00    +0.145 A 
ATOM      4  C   LIG    1      -26.160  76.960  33.168  0.00  0.00    +0.105 A 
ATOM      5  C   LIG    1      -26.681  77.182  31.907  0.00  0.00    +0.145 A 
ATOM      6  N   LIG    1      -27.992  77.165  31.578  0.00  0.00    -0.201 NA
ENDROOT
BRANCH   4   7
ATOM      7  N   LIG    1      -24.781  76.930  33.544  0.00  0.00    -0.196 NA
ATOM      8  C   LIG    1      -24.183  77.991  33.976  0.00  0.00    +0.285 C 
BRANCH   8   9
ATOM      9  N   LIG    1      -22.856  78.017  34.328  0.00  0.00    -0.269 N 
ATOM     10  H   LIG    1      -22.661  77.419  35.124  0.00  0.00    +0.157 HD
BRANCH   9  11
ATOM     11  C   LIG    1      -21.707  78.112  33.482  0.00  0.00    +0.043 A 
ATOM     12  C   LIG    1      -20.630  79.006  33.793  0.00  0.00    +0.003 A 
ATOM     13  C   LIG    1      -19.552  79.040  32.867  0.00  0.00    +0.011 A 
ATOM     14  C   LIG    1      -19.493  78.233  31.721  0.00  0.00    +0.013 A 
ATOM     15  C   LIG    1      -20.535  77.362  31.426  0.00  0.00    +0.057 A 
ATOM     16  C   LIG    1      -21.635  77.333  32.296  0.00  0.00    +0.036 A 
BRANCH  12  17
ATOM     17  C   LIG    1      -20.545  79.900  35.012  0.00  0.00    -0.016 A 
ATOM     18  C   LIG    1      -19.655  79.608  36.081  0.00  0.00    +0.012 A 
ATOM     19  C   LIG    1      -19.495  80.449  37.204  0.00  0.00    -0.050 A 
ATOM     20  C   LIG    1      -18.493  80.123  38.278  0.00  0.00    +0.044 C 
ATOM     21  C   LIG    1      -20.241  81.622  37.281  0.00  0.00    +0.003 A 
ATOM     22  C   LIG    1      -21.144  81.928  36.268  0.00  0.00    +0.001 A 
ATOM     23  C   LIG    1      -21.283  81.088  35.151  0.00  0.00    +0.008 A 
ENDBRANCH  12  17
BRANCH  15  24
ATOM     24  C   LIG    1      -20.461  76.434  30.234  0.00  0.00    +0.417 C 
ATOM     25  F   LIG    1      -19.671  75.351  30.470  0.00  0.00    -0.166 F 
ATOM     26  F   LIG    1      -19.952  77.037  29.124  0.00  0.00    -0.166 F 
ATOM     27  F   LIG    1      -21.673  75.936  29.863  0.00  0.00    -0.166 F 
ENDBRANCH  15  24
ENDBRANCH   9  11
ENDBRANCH   8   9
BRANCH   8  28
ATOM     28  O   LIG    1      -24.857  79.119  34.210  0.00  0.00    -0.481 OA
ATOM     29  H   LIG    1      -24.271  79.890  34.195  0.00  0.00    +0.295 HD
ENDBRANCH   8  28
ENDBRANCH   4   7
BRANCH   1  30
ATOM     30  O   LIG    1      -30.176  76.828  32.213  0.00  0.00    -0.424 OA
BRANCH  30  34
ATOM     31  C   LIG    1      -31.507  73.313  30.374  0.00  0.00    -0.011 A 
ATOM     32  C   LIG    1      -31.115  73.325  31.720  0.00  0.00    +0.012 A 
ATOM     33  C   LIG    1      -30.655  74.508  32.316  0.00  0.00    +0.047 A 
ATOM     34  C   LIG    1      -30.605  75.689  31.576  0.00  0.00    +0.132 A 
ATOM     35  C   LIG    1      -30.922  75.666  30.220  0.00  0.00    +0.047 A 
ATOM     36  C   LIG    1      -31.364  74.490  29.627  0.00  0.00    +0.012 A 
BRANCH  31  43
ATOM     37  C   LIG    1      -35.433  72.495  28.205  0.00  0.00    +0.300 C 
ATOM     38  C   LIG    1      -35.498  71.110  27.621  0.00  0.00    +0.099 C 
ATOM     39  C   LIG    1      -34.455  70.293  27.855  0.00  0.00    +0.170 C 
ATOM     40  N   LIG    1      -33.342  70.703  28.595  0.00  0.00    -0.221 N 
ATOM     41  N   LIG    1      -32.235  69.979  28.901  0.00  0.00    -0.175 NA
ATOM     42  C   LIG    1      -31.459  70.826  29.586  0.00  0.00    +0.147 A 
ATOM     43  C   LIG    1      -32.028  72.109  29.746  0.00  0.00    +0.066 A 
ATOM     44  C   LIG    1      -33.258  71.987  29.133  0.00  0.00    +0.219 A 
ATOM     45  N   LIG    1      -34.319  72.824  28.960  0.00  0.00    -0.187 N 
ATOM     46  H   LIG    1      -34.339  73.719  29.431  0.00  0.00    +0.300 HD
BRANCH  37  47
ATOM     47  N   LIG    1      -36.436  73.271  27.946  0.00  0.00    -0.054 NA
BRANCH  47  49
ATOM     48  C   LIG    1      -37.716  73.808  25.956  0.00  0.00    +0.055 C 
ATOM     49  C   LIG    1      -37.480  72.780  27.048  0.00  0.00    +0.274 C 
ENDBRANCH  47  49
ENDBRANCH  37  47
ENDBRANCH  31  43
ENDBRANCH  30  34
ENDBRANCH   1  30
TORSDOF 11
ENDMDL
MODEL 9
REMARK VINA RESULT:      -6.8     11.653     17.591
REMARK  Name = pdb/CHEMBL3892403.pdb
REMARK                            x       y       z     vdW  Elec       q    Type
REMARK                         _______ _______ _______ _____ _____    ______ ____
ROOT
ATOM      1  C   LIG    1      -35.205  83.140  29.588  0.00  0.00    +0.323 A 
ATOM      2  N   LIG    1      -34.653  82.198  30.377  0.00  0.00    -0.201 NA
ATOM      3  C   LIG    1      -34.555  80.959  29.846  0.00  0.00    +0.145 A 
ATOM      4  C   LIG    1      -34.996  80.601  28.577  0.00  0.00    +0.105 A 
ATOM      5  C   LIG    1      -35.567  81.660  27.898  0.00  0.00    +0.145 A 
ATOM      6  N   LIG    1      -35.679  82.927  28.356  0.00  0.00    -0.201 NA
ENDROOT
BRANCH   4   7
ATOM      7  N   LIG    1      -34.896  79.243  28.142  0.00  0.00    -0.196 NA
ATOM      8  C   LIG    1      -34.053  78.894  27.227  0.00  0.00    +0.285 C 
BRANCH   8   9
ATOM      9  N   LIG    1      -33.937  77.609  26.761  0.00  0.00    -0.269 N 
ATOM     10  H   LIG    1      -33.115  77.487  26.178  0.00  0.00    +0.157 HD
BRANCH   9  11
ATOM     11  C   LIG    1      -34.265  76.383  27.422  0.00  0.00    +0.043 A 
ATOM     12  C   LIG    1      -35.589  75.840  27.360  0.00  0.00    +0.003 A 
ATOM     13  C   LIG    1      -35.810  74.632  28.079  0.00  0.00    +0.011 A 
ATOM     14  C   LIG    1      -34.802  73.963  28.789  0.00  0.00    +0.013 A 
ATOM     15  C   LIG    1      -33.517  74.488  28.841  0.00  0.00    +0.057 A 
ATOM     16  C   LIG    1      -33.275  75.701  28.179  0.00  0.00    +0.036 A 
BRANCH  12  17
ATOM     17  C   LIG    1      -36.757  76.433  26.599  0.00  0.00    -0.016 A 
ATOM     18  C   LIG    1      -37.537  77.487  27.148  0.00  0.00    +0.012 A 
ATOM     19  C   LIG    1      -38.591  78.113  26.447  0.00  0.00    -0.050 A 
ATOM     20  C   LIG    1      -39.345  79.266  27.051  0.00  0.00    +0.044 C 
ATOM     21  C   LIG    1      -38.891  77.685  25.157  0.00  0.00    +0.003 A 
ATOM     22  C   LIG    1      -38.168  76.638  24.596  0.00  0.00    +0.001 A 
ATOM     23  C   LIG    1      -37.115  76.032  25.301  0.00  0.00    +0.008 A 
ENDBRANCH  12  17
BRANCH  15  24
ATOM     24  C   LIG    1      -32.400  73.748  29.544  0.00  0.00    +0.417 C 
ATOM     25  F   LIG    1      -32.601  73.667  30.888  0.00  0.00    -0.166 F 
ATOM     26  F   LIG    1      -31.186  74.341  29.379  0.00  0.00    -0.166 F 
ATOM     27  F   LIG    1      -32.250  72.465  29.112  0.00  0.00    -0.166 F 
ENDBRANCH  15  24
ENDBRANCH   9  11
ENDBRANCH   8   9
BRANCH   8  28
ATOM     28  O   LIG    1      -33.156  79.759  26.747  0.00  0.00    -0.481 OA
ATOM     29  H   LIG    1      -33.382  80.670  26.986  0.00  0.00    +0.295 HD
ENDBRANCH   8  28
ENDBRANCH   4   7
BRANCH   1  30
ATOM     30  O   LIG    1      -35.368  84.437  30.061  0.00  0.00    -0.424 OA
BRANCH  30  34
ATOM     31  C   LIG    1      -31.997  86.278  31.721  0.00  0.00    -0.011 A 
ATOM     32  C   LIG    1      -31.965  85.735  30.429  0.00  0.00    +0.012 A 
ATOM     33  C   LIG    1      -33.100  85.106  29.894  0.00  0.00    +0.047 A 
ATOM     34  C   LIG    1      -34.276  85.036  30.640  0.00  0.00    +0.132 A 
ATOM     35  C   LIG    1      -34.290  85.507  31.950  0.00  0.00    +0.047 A 
ATOM     36  C   LIG    1      -33.161  86.117  32.484  0.00  0.00    +0.012 A 
BRANCH  31  43
ATOM     37  C   LIG    1      -28.940  85.015  34.859  0.00  0.00    +0.300 C 
ATOM     38  C   LIG    1      -27.849  86.033  35.051  0.00  0.00    +0.099 C 
ATOM     39  C   LIG    1      -27.940  87.175  34.346  0.00  0.00    +0.170 C 
ATOM     40  N   LIG    1      -28.990  87.416  33.455  0.00  0.00    -0.221 N 
ATOM     41  N   LIG    1      -29.196  88.519  32.692  0.00  0.00    -0.175 NA
ATOM     42  C   LIG    1      -30.304  88.244  31.996  0.00  0.00    +0.147 A 
ATOM     43  C   LIG    1      -30.847  86.972  32.280  0.00  0.00    +0.066 A 
ATOM     44  C   LIG    1      -30.003  86.479  33.254  0.00  0.00    +0.219 A 
ATOM     45  N   LIG    1      -29.971  85.333  33.990  0.00  0.00    -0.187 N 
ATOM     46  H   LIG    1      -30.747  84.685  33.951  0.00  0.00    +0.300 HD
BRANCH  37  47
ATOM     47  N   LIG    1      -28.818  83.914  35.528  0.00  0.00    -0.054 NA
BRANCH  47  49
ATOM     48  C   LIG    1      -29.648  81.960  36.702  0.00  0.00    +0.055 C 
ATOM     49  C   LIG    1      -30.030  83.173  35.873  0.00  0.00    +0.274 C 
ENDBRANCH  47  49
ENDBRANCH  37  47
ENDBRANCH  31  43
ENDBRANCH  30  34
ENDBRANCH   1  30
TORSDOF 11
ENDMDL
