MODEL 1
REMARK VINA RESULT:      -8.2      0.000      0.000
REMARK  Name = pdb/CHEMBL2037222.pdb
REMARK                            x       y       z     vdW  Elec       q    Type
REMARK                         _______ _______ _______ _____ _____    ______ ____
ROOT
ATOM      1  C   LIG    1      -38.260  75.273  25.031  0.00  0.00    +0.035 A 
ATOM      2  C   LIG    1      -38.621  73.921  25.015  0.00  0.00    +0.046 A 
ATOM      3  C   LIG    1      -39.825  73.489  24.445  0.00  0.00    +0.033 A 
ATOM      4  C   LIG    1      -40.655  74.441  23.852  0.00  0.00    +0.023 A 
ATOM      5  C   LIG    1      -40.311  75.793  23.868  0.00  0.00    +0.004 A 
ATOM      6  C   LIG    1      -39.117  76.210  24.459  0.00  0.00    +0.023 A 
ENDROOT
BRANCH   1   8
ATOM      7  C   LIG    1      -36.803  75.903  26.964  0.00  0.00    +0.248 C 
ATOM      8  N   LIG    1      -37.025  75.577  25.640  0.00  0.00    -0.281 N 
ATOM      9  H   LIG    1      -36.244  75.597  24.997  0.00  0.00    +0.155 HD
ATOM     10  O   LIG    1      -37.643  76.012  27.851  0.00  0.00    -0.270 OA
BRANCH   7  15
ATOM     11  C   LIG    1      -33.355  75.260  28.375  0.00  0.00    +0.031 A 
ATOM     12  C   LIG    1      -32.751  76.503  28.111  0.00  0.00    +0.035 A 
ATOM     13  C   LIG    1      -33.418  77.544  27.421  0.00  0.00    +0.057 A 
ATOM     14  C   LIG    1      -34.739  77.373  27.014  0.00  0.00    +0.025 A 
ATOM     15  C   LIG    1      -35.393  76.187  27.337  0.00  0.00    +0.039 A 
ATOM     16  C   LIG    1      -34.703  75.160  28.006  0.00  0.00    +0.036 A 
BRANCH  11  21
ATOM     17  C   LIG    1      -32.215  72.633  32.306  0.00  0.00    +0.105 C 
ATOM     18  N   LIG    1      -31.640  72.216  31.030  0.00  0.00    -0.302 NA
ATOM     19  C   LIG    1      -30.805  73.281  30.439  0.00  0.00    +0.103 C 
ATOM     20  C   LIG    1      -31.544  74.531  29.903  0.00  0.00    +0.120 C 
ATOM     21  N   LIG    1      -32.679  74.195  29.003  0.00  0.00    -0.327 N 
ATOM     22  C   LIG    1      -33.511  73.067  29.502  0.00  0.00    +0.120 C 
ATOM     23  C   LIG    1      -32.680  71.881  30.041  0.00  0.00    +0.103 C 
ENDBRANCH  11  21
BRANCH  13  24
ATOM     24  C   LIG    1      -32.667  78.811  27.104  0.00  0.00    +0.417 C 
ATOM     25  F   LIG    1      -31.554  78.921  27.874  0.00  0.00    -0.166 F 
ATOM     26  F   LIG    1      -33.409  79.923  27.339  0.00  0.00    -0.166 F 
ATOM     27  F   LIG    1      -32.259  78.886  25.813  0.00  0.00    -0.166 F 
ENDBRANCH  13  24
ENDBRANCH   7  15
ENDBRANCH   1   8
BRANCH   3  28
ATOM     28  N   LIG    1      -40.109  72.117  24.454  0.00  0.00    -0.314 N 
ATOM     29  H   LIG    1      -40.966  71.870  24.936  0.00  0.00    +0.152 HD
BRANCH  28  30
ATOM     30  C   LIG    1      -39.503  71.034  23.792  0.00  0.00    +0.033 A 
ATOM     31  C   LIG    1      -38.207  70.657  24.166  0.00  0.00    +0.047 A 
ATOM     32  C   LIG    1      -37.607  69.620  23.479  0.00  0.00    +0.043 A 
ATOM     33  N   LIG    1      -36.307  69.166  23.657  0.00  0.00    -0.281 N 
ATOM     34  H   LIG    1      -35.638  69.533  24.316  0.00  0.00    +0.155 HD
ATOM     35  C   LIG    1      -35.980  68.199  22.726  0.00  0.00    +0.249 C 
ATOM     36  O   LIG    1      -34.879  67.711  22.573  0.00  0.00    -0.270 OA
ATOM     37  C   LIG    1      -37.244  67.967  21.920  0.00  0.00    +0.048 C 
ATOM     38  C   LIG    1      -37.475  67.099  20.918  0.00  0.00    +0.039 C 
ATOM     39  C   LIG    1      -38.239  68.922  22.448  0.00  0.00    +0.008 A 
ATOM     40  C   LIG    1      -39.532  69.255  22.090  0.00  0.00    +0.012 A 
ATOM     41  C   LIG    1      -40.163  70.307  22.776  0.00  0.00    +0.024 A 
BRANCH  38  42
ATOM     42  C   LIG    1      -36.543  66.197  20.326  0.00  0.00    +0.044 A 
ATOM     43  C   LIG    1      -35.725  66.273  19.204  0.00  0.00    -0.012 A 
ATOM     44  C   LIG    1      -35.649  67.391  18.217  0.00  0.00    +0.047 C 
ATOM     45  C   LIG    1      -34.972  65.040  19.125  0.00  0.00    +0.082 A 
ATOM     46  C   LIG    1      -35.289  64.311  20.267  0.00  0.00    +0.028 A 
ATOM     47  C   LIG    1      -34.773  63.038  20.840  0.00  0.00    +0.064 C 
ATOM     48  N   LIG    1      -36.249  65.013  20.947  0.00  0.00    -0.358 N 
ATOM     49  H   LIG    1      -36.715  64.670  21.780  0.00  0.00    +0.166 HD
BRANCH  45  50
ATOM     50  C   LIG    1      -34.032  64.653  18.070  0.00  0.00    +0.339 C 
ATOM     51  O   LIG    1      -34.367  64.236  16.970  0.00  0.00    -0.245 OA
BRANCH  50  52
ATOM     52  O   LIG    1      -32.723  64.734  18.427  0.00  0.00    -0.477 OA
ATOM     53  H   LIG    1      -32.545  65.588  18.858  0.00  0.00    +0.295 HD
ENDBRANCH  50  52
ENDBRANCH  45  50
ENDBRANCH  38  42
ENDBRANCH  28  30
ENDBRANCH   3  28
TORSDOF 9
ENDMDL
MODEL 2
REMARK VINA RESULT:      -8.0     16.521     21.008
REMARK  Name = pdb/CHEMBL2037222.pdb
REMARK                            x       y       z     vdW  Elec       q    Type
REMARK                         _______ _______ _______ _____ _____    ______ ____
ROOT
ATOM      1  C   LIG    1      -28.641  76.102  11.998  0.00  0.00    +0.035 A 
ATOM      2  C   LIG    1      -28.145  77.032  12.919  0.00  0.00    +0.046 A 
ATOM      3  C   LIG    1      -26.952  76.809  13.618  0.00  0.00    +0.033 A 
ATOM      4  C   LIG    1      -26.237  75.642  13.350  0.00  0.00    +0.023 A 
ATOM      5  C   LIG    1      -26.723  74.703  12.440  0.00  0.00    +0.004 A 
ATOM      6  C   LIG    1      -27.925  74.930  11.767  0.00  0.00    +0.023 A 
ENDROOT
BRANCH   1   8
ATOM      7  C   LIG    1      -30.949  75.625  11.160  0.00  0.00    +0.248 C 
ATOM      8  N   LIG    1      -29.854  76.443  11.366  0.00  0.00    -0.281 N 
ATOM      9  H   LIG    1      -29.872  77.383  10.991  0.00  0.00    +0.155 HD
ATOM     10  O   LIG    1      -31.059  74.443  11.468  0.00  0.00    -0.270 OA
BRANCH   7  15
ATOM     11  C   LIG    1      -33.099  78.375   9.708  0.00  0.00    +0.031 A 
ATOM     12  C   LIG    1      -34.147  77.604   9.172  0.00  0.00    +0.035 A 
ATOM     13  C   LIG    1      -34.151  76.189   9.212  0.00  0.00    +0.057 A 
ATOM     14  C   LIG    1      -33.109  75.509   9.838  0.00  0.00    +0.025 A 
ATOM     15  C   LIG    1      -32.101  76.245  10.454  0.00  0.00    +0.039 A 
ATOM     16  C   LIG    1      -32.109  77.650  10.384  0.00  0.00    +0.036 A 
BRANCH  11  21
ATOM     17  C   LIG    1      -34.620  82.805  11.018  0.00  0.00    +0.105 C 
ATOM     18  N   LIG    1      -33.553  82.728  10.022  0.00  0.00    -0.302 NA
ATOM     19  C   LIG    1      -33.988  81.994   8.818  0.00  0.00    +0.103 C 
ATOM     20  C   LIG    1      -34.203  80.468   8.970  0.00  0.00    +0.120 C 
ATOM     21  N   LIG    1      -33.054  79.780   9.616  0.00  0.00    -0.327 N 
ATOM     22  C   LIG    1      -32.511  80.517  10.789  0.00  0.00    +0.120 C 
ATOM     23  C   LIG    1      -32.362  82.036  10.546  0.00  0.00    +0.103 C 
ENDBRANCH  11  21
BRANCH  13  24
ATOM     24  C   LIG    1      -35.270  75.440   8.537  0.00  0.00    +0.417 C 
ATOM     25  F   LIG    1      -36.430  76.142   8.598  0.00  0.00    -0.166 F 
ATOM     26  F   LIG    1      -35.514  74.241   9.123  0.00  0.00    -0.166 F 
ATOM     27  F   LIG    1      -35.034  75.187   7.225  0.00  0.00    -0.166 F 
ENDBRANCH  13  24
ENDBRANCH   7  15
ENDBRANCH   1   8
BRANCH   3  28
ATOM     28  N   LIG    1      -26.513  77.794  14.512  0.00  0.00    -0.314 N 
ATOM     29  H   LIG    1      -26.669  77.573  15.489  0.00  0.00    +0.152 HD
BRANCH  28  30
ATOM     30  C   LIG    1      -25.763  78.968  14.314  0.00  0.00    +0.033 A 
ATOM     31  C   LIG    1      -24.922  79.411  15.343  0.00  0.00    +0.047 A 
ATOM     32  C   LIG    1      -24.225  80.588  15.153  0.00  0.00    +0.043 A 
ATOM     33  N   LIG    1      -23.413  81.217  16.087  0.00  0.00    -0.281 N 
ATOM     34  H   LIG    1      -23.225  80.890  17.022  0.00  0.00    +0.155 HD
ATOM     35  C   LIG    1      -22.964  82.438  15.622  0.00  0.00    +0.249 C 
ATOM     36  O   LIG    1      -22.336  83.251  16.268  0.00  0.00    -0.270 OA
ATOM     37  C   LIG    1      -23.494  82.553  14.206  0.00  0.00    +0.048 C 
ATOM     38  C   LIG    1      -23.312  83.530  13.298  0.00  0.00    +0.039 C 
ATOM     39  C   LIG    1      -24.305  81.340  13.980  0.00  0.00    +0.008 A 
ATOM     40  C   LIG    1      -25.100  80.898  12.938  0.00  0.00    +0.012 A 
ATOM     41  C   LIG    1      -25.819  79.702  13.110  0.00  0.00    +0.024 A 
BRANCH  38  42
ATOM     42  C   LIG    1      -22.593  84.748  13.476  0.00  0.00    +0.044 A 
ATOM     43  C   LIG    1      -21.247  85.041  13.668  0.00  0.00    -0.012 A 
ATOM     44  C   LIG    1      -20.123  84.067  13.805  0.00  0.00    +0.047 C 
ATOM     45  C   LIG    1      -21.118  86.479  13.759  0.00  0.00    +0.082 A 
ATOM     46  C   LIG    1      -22.383  87.004  13.510  0.00  0.00    +0.028 A 
ATOM     47  C   LIG    1      -22.896  88.391  13.338  0.00  0.00    +0.064 C 
ATOM     48  N   LIG    1      -23.245  85.948  13.375  0.00  0.00    -0.358 N 
ATOM     49  H   LIG    1      -24.248  86.049  13.262  0.00  0.00    +0.166 HD
BRANCH  45  50
ATOM     50  C   LIG    1      -19.890  87.234  14.022  0.00  0.00    +0.339 C 
ATOM     51  O   LIG    1      -19.102  87.585  13.156  0.00  0.00    -0.245 OA
BRANCH  50  52
ATOM     52  O   LIG    1      -19.649  87.473  15.338  0.00  0.00    -0.477 OA
ATOM     53  H   LIG    1      -19.835  88.405  15.549  0.00  0.00    +0.295 HD
ENDBRANCH  50  52
ENDBRANCH  45  50
ENDBRANCH  38  42
ENDBRANCH  28  30
ENDBRANCH   3  28
TORSDOF 9
ENDMDL
MODEL 3
REMARK VINA RESULT:      -7.8      3.033      4.130
REMARK  Name = pdb/CHEMBL2037222.pdb
REMARK                            x       y       z     vdW  Elec       q    Type
REMARK                         _______ _______ _______ _____ _____    ______ ____
ROOT
ATOM      1  C   LIG    1      -38.001  75.311  25.202  0.00  0.00    +0.035 A 
ATOM      2  C   LIG    1      -38.180  73.946  24.944  0.00  0.00    +0.046 A 
ATOM      3  C   LIG    1      -39.353  73.458  24.355  0.00  0.00    +0.033 A 
ATOM      4  C   LIG    1      -40.341  74.373  23.990  0.00  0.00    +0.023 A 
ATOM      5  C   LIG    1      -40.179  75.734  24.248  0.00  0.00    +0.004 A 
ATOM      6  C   LIG    1      -39.013  76.203  24.856  0.00  0.00    +0.023 A 
ENDROOT
BRANCH   1   8
ATOM      7  C   LIG    1      -36.440  75.566  27.140  0.00  0.00    +0.248 C 
ATOM      8  N   LIG    1      -36.779  75.672  25.804  0.00  0.00    -0.281 N 
ATOM      9  H   LIG    1      -36.117  76.097  25.167  0.00  0.00    +0.155 HD
ATOM     10  O   LIG    1      -37.151  75.161  28.054  0.00  0.00    -0.270 OA
BRANCH   7  15
ATOM     11  C   LIG    1      -32.996  75.446  28.693  0.00  0.00    +0.031 A 
ATOM     12  C   LIG    1      -32.506  76.702  28.291  0.00  0.00    +0.035 A 
ATOM     13  C   LIG    1      -33.247  77.581  27.464  0.00  0.00    +0.057 A 
ATOM     14  C   LIG    1      -34.531  77.231  27.053  0.00  0.00    +0.025 A 
ATOM     15  C   LIG    1      -35.077  76.033  27.505  0.00  0.00    +0.039 A 
ATOM     16  C   LIG    1      -34.315  75.168  28.310  0.00  0.00    +0.036 A 
BRANCH  11  21
ATOM     17  C   LIG    1      -32.612  72.044  32.147  0.00  0.00    +0.105 C 
ATOM     18  N   LIG    1      -31.392  72.421  31.437  0.00  0.00    -0.302 NA
ATOM     19  C   LIG    1      -31.086  73.855  31.608  0.00  0.00    +0.103 C 
ATOM     20  C   LIG    1      -32.026  74.859  30.897  0.00  0.00    +0.120 C 
ATOM     21  N   LIG    1      -32.242  74.537  29.462  0.00  0.00    -0.327 N 
ATOM     22  C   LIG    1      -32.469  73.089  29.211  0.00  0.00    +0.120 C 
ATOM     23  C   LIG    1      -31.500  72.169  29.989  0.00  0.00    +0.103 C 
ENDBRANCH  11  21
BRANCH  13  24
ATOM     24  C   LIG    1      -32.611  78.869  27.010  0.00  0.00    +0.417 C 
ATOM     25  F   LIG    1      -33.472  79.910  27.146  0.00  0.00    -0.166 F 
ATOM     26  F   LIG    1      -32.255  78.833  25.700  0.00  0.00    -0.166 F 
ATOM     27  F   LIG    1      -31.493  79.192  27.705  0.00  0.00    -0.166 F 
ENDBRANCH  13  24
ENDBRANCH   7  15
ENDBRANCH   1   8
BRANCH   3  28
ATOM     28  N   LIG    1      -39.451  72.081  24.115  0.00  0.00    -0.314 N 
ATOM     29  H   LIG    1      -40.117  71.828  23.393  0.00  0.00    +0.152 HD
BRANCH  28  30
ATOM     30  C   LIG    1      -38.693  70.994  24.587  0.00  0.00    +0.033 A 
ATOM     31  C   LIG    1      -37.649  70.506  23.791  0.00  0.00    +0.047 A 
ATOM     32  C   LIG    1      -36.940  69.411  24.245  0.00  0.00    +0.043 A 
ATOM     33  N   LIG    1      -35.932  68.747  23.558  0.00  0.00    -0.281 N 
ATOM     34  H   LIG    1      -35.587  68.984  22.641  0.00  0.00    +0.155 HD
ATOM     35  C   LIG    1      -35.518  67.619  24.241  0.00  0.00    +0.249 C 
ATOM     36  O   LIG    1      -34.736  66.790  23.824  0.00  0.00    -0.270 OA
ATOM     37  C   LIG    1      -36.302  67.619  25.539  0.00  0.00    +0.048 C 
ATOM     38  C   LIG    1      -36.245  66.762  26.576  0.00  0.00    +0.039 C 
ATOM     39  C   LIG    1      -37.203  68.786  25.465  0.00  0.00    +0.008 A 
ATOM     40  C   LIG    1      -38.204  69.278  26.283  0.00  0.00    +0.012 A 
ATOM     41  C   LIG    1      -38.939  70.391  25.840  0.00  0.00    +0.024 A 
BRANCH  38  42
ATOM     42  C   LIG    1      -35.442  65.589  26.680  0.00  0.00    +0.044 A 
ATOM     43  C   LIG    1      -34.395  65.222  27.519  0.00  0.00    -0.012 A 
ATOM     44  C   LIG    1      -33.751  66.059  28.576  0.00  0.00    +0.047 C 
ATOM     45  C   LIG    1      -33.992  63.880  27.159  0.00  0.00    +0.082 A 
ATOM     46  C   LIG    1      -34.888  63.448  26.185  0.00  0.00    +0.028 A 
ATOM     47  C   LIG    1      -35.099  62.144  25.501  0.00  0.00    +0.064 C 
ATOM     48  N   LIG    1      -35.721  64.498  25.901  0.00  0.00    -0.358 N 
ATOM     49  H   LIG    1      -36.422  64.479  25.168  0.00  0.00    +0.166 HD
BRANCH  45  50
ATOM     50  C   LIG    1      -32.885  63.113  27.735  0.00  0.00    +0.339 C 
ATOM     51  O   LIG    1      -32.915  62.587  28.839  0.00  0.00    -0.245 OA
BRANCH  50  52
ATOM     52  O   LIG    1      -31.767  63.075  26.963  0.00  0.00    -0.477 OA
ATOM     53  H   LIG    1      -31.437  63.977  26.805  0.00  0.00    +0.295 HD
ENDBRANCH  50  52
ENDBRANCH  45  50
ENDBRANCH  38  42
ENDBRANCH  28  30
ENDBRANCH   3  28
TORSDOF 9
ENDMDL
MODEL 4
REMARK VINA RESULT:      -7.8      7.111     14.204
REMARK  Name = pdb/CHEMBL2037222.pdb
REMARK                            x       y       z     vdW  Elec       q    Type
REMARK                         _______ _______ _______ _____ _____    ______ ____
ROOT
ATOM      1  C   LIG    1      -35.923  76.343  27.190  0.00  0.00    +0.035 A 
ATOM      2  C   LIG    1      -36.369  77.623  27.542  0.00  0.00    +0.046 A 
ATOM      3  C   LIG    1      -35.542  78.529  28.216  0.00  0.00    +0.033 A 
ATOM      4  C   LIG    1      -34.232  78.143  28.503  0.00  0.00    +0.023 A 
ATOM      5  C   LIG    1      -33.777  76.869  28.165  0.00  0.00    +0.004 A 
ATOM      6  C   LIG    1      -34.621  75.968  27.512  0.00  0.00    +0.023 A 
ENDROOT
BRANCH   1   8
ATOM      7  C   LIG    1      -37.419  75.743  25.278  0.00  0.00    +0.248 C 
ATOM      8  N   LIG    1      -36.855  75.525  26.520  0.00  0.00    -0.281 N 
ATOM      9  H   LIG    1      -37.158  74.723  27.058  0.00  0.00    +0.155 HD
ATOM     10  O   LIG    1      -37.232  76.703  24.538  0.00  0.00    -0.270 OA
BRANCH   7  15
ATOM     11  C   LIG    1      -38.795  72.293  24.572  0.00  0.00    +0.031 A 
ATOM     12  C   LIG    1      -40.040  72.640  24.015  0.00  0.00    +0.035 A 
ATOM     13  C   LIG    1      -40.485  73.980  23.914  0.00  0.00    +0.057 A 
ATOM     14  C   LIG    1      -39.659  75.019  24.337  0.00  0.00    +0.025 A 
ATOM     15  C   LIG    1      -38.387  74.715  24.812  0.00  0.00    +0.039 A 
ATOM     16  C   LIG    1      -37.975  73.375  24.920  0.00  0.00    +0.036 A 
BRANCH  11  21
ATOM     17  C   LIG    1      -36.632  68.254  22.940  0.00  0.00    +0.105 C 
ATOM     18  N   LIG    1      -37.162  68.230  24.302  0.00  0.00    -0.302 NA
ATOM     19  C   LIG    1      -38.617  68.474  24.321  0.00  0.00    +0.103 C 
ATOM     20  C   LIG    1      -39.089  69.907  23.971  0.00  0.00    +0.120 C 
ATOM     21  N   LIG    1      -38.371  70.960  24.736  0.00  0.00    -0.327 N 
ATOM     22  C   LIG    1      -36.905  70.723  24.827  0.00  0.00    +0.120 C 
ATOM     23  C   LIG    1      -36.537  69.258  25.153  0.00  0.00    +0.103 C 
ENDBRANCH  11  21
BRANCH  13  24
ATOM     24  C   LIG    1      -41.868  74.255  23.385  0.00  0.00    +0.417 C 
ATOM     25  F   LIG    1      -42.204  73.364  22.418  0.00  0.00    -0.166 F 
ATOM     26  F   LIG    1      -41.969  75.487  22.825  0.00  0.00    -0.166 F 
ATOM     27  F   LIG    1      -42.832  74.184  24.336  0.00  0.00    -0.166 F 
ENDBRANCH  13  24
ENDBRANCH   7  15
ENDBRANCH   1   8
BRANCH   3  28
ATOM     28  N   LIG    1      -36.056  79.797  28.521  0.00  0.00    -0.314 N 
ATOM     29  H   LIG    1      -35.941  80.073  29.490  0.00  0.00    +0.152 HD
BRANCH  28  30
ATOM     30  C   LIG    1      -36.571  80.817  27.701  0.00  0.00    +0.033 A 
ATOM     31  C   LIG    1      -35.703  81.820  27.250  0.00  0.00    +0.047 A 
ATOM     32  C   LIG    1      -36.229  82.840  26.483  0.00  0.00    +0.043 A 
ATOM     33  N   LIG    1      -35.541  83.953  26.018  0.00  0.00    -0.281 N 
ATOM     34  H   LIG    1      -34.566  84.154  26.178  0.00  0.00    +0.155 HD
ATOM     35  C   LIG    1      -36.390  84.842  25.387  0.00  0.00    +0.249 C 
ATOM     36  O   LIG    1      -36.083  85.946  24.987  0.00  0.00    -0.270 OA
ATOM     37  C   LIG    1      -37.752  84.175  25.389  0.00  0.00    +0.048 C 
ATOM     38  C   LIG    1      -38.916  84.600  24.865  0.00  0.00    +0.039 C 
ATOM     39  C   LIG    1      -37.577  82.904  26.121  0.00  0.00    +0.008 A 
ATOM     40  C   LIG    1      -38.441  81.903  26.525  0.00  0.00    +0.012 A 
ATOM     41  C   LIG    1      -37.926  80.855  27.307  0.00  0.00    +0.024 A 
BRANCH  38  42
ATOM     42  C   LIG    1      -39.162  85.838  24.202  0.00  0.00    +0.044 A 
ATOM     43  C   LIG    1      -39.576  86.164  22.915  0.00  0.00    -0.012 A 
ATOM     44  C   LIG    1      -39.838  85.221  21.786  0.00  0.00    +0.047 C 
ATOM     45  C   LIG    1      -39.673  87.605  22.836  0.00  0.00    +0.082 A 
ATOM     46  C   LIG    1      -39.415  88.088  24.115  0.00  0.00    +0.028 A 
ATOM     47  C   LIG    1      -39.477  89.444  24.725  0.00  0.00    +0.064 C 
ATOM     48  N   LIG    1      -39.085  87.014  24.899  0.00  0.00    -0.358 N 
ATOM     49  H   LIG    1      -38.776  87.092  25.862  0.00  0.00    +0.166 HD
BRANCH  45  50
ATOM     50  C   LIG    1      -40.014  88.397  21.651  0.00  0.00    +0.339 C 
ATOM     51  O   LIG    1      -41.157  88.597  21.264  0.00  0.00    -0.245 OA
BRANCH  50  52
ATOM     52  O   LIG    1      -38.941  88.858  20.956  0.00  0.00    -0.477 OA
ATOM     53  H   LIG    1      -38.927  89.831  20.966  0.00  0.00    +0.295 HD
ENDBRANCH  50  52
ENDBRANCH  45  50
ENDBRANCH  38  42
ENDBRANCH  28  30
ENDBRANCH   3  28
TORSDOF 9
ENDMDL
MODEL 5
REMARK VINA RESULT:      -7.7      2.625      4.413
REMARK  Name = pdb/CHEMBL2037222.pdb
REMARK                            x       y       z     vdW  Elec       q    Type
REMARK                         _______ _______ _______ _____ _____    ______ ____
ROOT
ATOM      1  C   LIG    1      -38.577  74.774  25.027  0.00  0.00    +0.035 A 
ATOM      2  C   LIG    1      -38.354  73.397  25.153  0.00  0.00    +0.046 A 
ATOM      3  C   LIG    1      -39.245  72.458  24.621  0.00  0.00    +0.033 A 
ATOM      4  C   LIG    1      -40.359  72.924  23.921  0.00  0.00    +0.023 A 
ATOM      5  C   LIG    1      -40.597  74.292  23.795  0.00  0.00    +0.004 A 
ATOM      6  C   LIG    1      -39.710  75.217  24.350  0.00  0.00    +0.023 A 
ENDROOT
BRANCH   1   8
ATOM      7  C   LIG    1      -37.563  76.056  26.920  0.00  0.00    +0.248 C 
ATOM      8  N   LIG    1      -37.608  75.614  25.612  0.00  0.00    -0.281 N 
ATOM      9  H   LIG    1      -36.910  75.950  24.961  0.00  0.00    +0.155 HD
ATOM     10  O   LIG    1      -38.374  75.820  27.810  0.00  0.00    -0.270 OA
BRANCH   7  15
ATOM     11  C   LIG    1      -35.796  79.205  28.040  0.00  0.00    +0.031 A 
ATOM     12  C   LIG    1      -34.460  78.770  27.967  0.00  0.00    +0.035 A 
ATOM     13  C   LIG    1      -34.106  77.445  27.618  0.00  0.00    +0.057 A 
ATOM     14  C   LIG    1      -35.099  76.525  27.289  0.00  0.00    +0.025 A 
ATOM     15  C   LIG    1      -36.426  76.947  27.268  0.00  0.00    +0.039 A 
ATOM     16  C   LIG    1      -36.753  78.264  27.636  0.00  0.00    +0.036 A 
BRANCH  11  21
ATOM     17  C   LIG    1      -34.732  83.562  29.920  0.00  0.00    +0.105 C 
ATOM     18  N   LIG    1      -36.113  83.329  29.503  0.00  0.00    -0.302 NA
ATOM     19  C   LIG    1      -36.719  82.203  30.240  0.00  0.00    +0.103 C 
ATOM     20  C   LIG    1      -36.189  80.786  29.908  0.00  0.00    +0.120 C 
ATOM     21  N   LIG    1      -36.161  80.503  28.449  0.00  0.00    -0.327 N 
ATOM     22  C   LIG    1      -35.641  81.638  27.640  0.00  0.00    +0.120 C 
ATOM     23  C   LIG    1      -36.207  83.010  28.068  0.00  0.00    +0.103 C 
ENDBRANCH  11  21
BRANCH  13  24
ATOM     24  C   LIG    1      -32.655  77.041  27.648  0.00  0.00    +0.417 C 
ATOM     25  F   LIG    1      -32.106  77.108  26.409  0.00  0.00    -0.166 F 
ATOM     26  F   LIG    1      -32.485  75.764  28.076  0.00  0.00    -0.166 F 
ATOM     27  F   LIG    1      -31.896  77.823  28.456  0.00  0.00    -0.166 F 
ENDBRANCH  13  24
ENDBRANCH   7  15
ENDBRANCH   1   8
BRANCH   3  28
ATOM     28  N   LIG    1      -38.945  71.097  24.774  0.00  0.00    -0.314 N 
ATOM     29  H   LIG    1      -39.288  70.687  25.636  0.00  0.00    +0.152 HD
BRANCH  28  30
ATOM     30  C   LIG    1      -38.385  70.159  23.889  0.00  0.00    +0.033 A 
ATOM     31  C   LIG    1      -37.134  69.608  24.196  0.00  0.00    +0.047 A 
ATOM     32  C   LIG    1      -36.575  68.722  23.297  0.00  0.00    +0.043 A 
ATOM     33  N   LIG    1      -35.317  68.142  23.396  0.00  0.00    -0.281 N 
ATOM     34  H   LIG    1      -34.654  68.291  24.140  0.00  0.00    +0.155 HD
ATOM     35  C   LIG    1      -35.015  67.401  22.269  0.00  0.00    +0.249 C 
ATOM     36  O   LIG    1      -33.944  66.882  22.032  0.00  0.00    -0.270 OA
ATOM     37  C   LIG    1      -36.255  67.462  21.398  0.00  0.00    +0.048 C 
ATOM     38  C   LIG    1      -36.500  66.876  20.212  0.00  0.00    +0.039 C 
ATOM     39  C   LIG    1      -37.206  68.337  22.113  0.00  0.00    +0.008 A 
ATOM     40  C   LIG    1      -38.458  68.841  21.811  0.00  0.00    +0.012 A 
ATOM     41  C   LIG    1      -39.046  69.745  22.712  0.00  0.00    +0.024 A 
BRANCH  38  42
ATOM     42  C   LIG    1      -35.605  66.072  19.446  0.00  0.00    +0.044 A 
ATOM     43  C   LIG    1      -35.144  64.768  19.581  0.00  0.00    -0.012 A 
ATOM     44  C   LIG    1      -35.450  63.813  20.688  0.00  0.00    +0.047 C 
ATOM     45  C   LIG    1      -34.260  64.496  18.468  0.00  0.00    +0.082 A 
ATOM     46  C   LIG    1      -34.309  65.616  17.644  0.00  0.00    +0.028 A 
ATOM     47  C   LIG    1      -33.740  65.922  16.303  0.00  0.00    +0.064 C 
ATOM     48  N   LIG    1      -35.095  66.549  18.269  0.00  0.00    -0.358 N 
ATOM     49  H   LIG    1      -35.237  67.491  17.920  0.00  0.00    +0.166 HD
BRANCH  45  50
ATOM     50  C   LIG    1      -33.497  63.267  18.234  0.00  0.00    +0.339 C 
ATOM     51  O   LIG    1      -32.281  63.183  18.340  0.00  0.00    -0.245 OA
BRANCH  50  52
ATOM     52  O   LIG    1      -34.246  62.211  17.820  0.00  0.00    -0.477 OA
ATOM     53  H   LIG    1      -34.398  61.598  18.560  0.00  0.00    +0.295 HD
ENDBRANCH  50  52
ENDBRANCH  45  50
ENDBRANCH  38  42
ENDBRANCH  28  30
ENDBRANCH   3  28
TORSDOF 9
ENDMDL
MODEL 6
REMARK VINA RESULT:      -7.7     14.891     19.813
REMARK  Name = pdb/CHEMBL2037222.pdb
REMARK                            x       y       z     vdW  Elec       q    Type
REMARK                         _______ _______ _______ _____ _____    ______ ____
ROOT
ATOM      1  C   LIG    1      -25.764  82.208  37.240  0.00  0.00    +0.035 A 
ATOM      2  C   LIG    1      -26.015  83.500  36.763  0.00  0.00    +0.046 A 
ATOM      3  C   LIG    1      -26.823  84.399  37.470  0.00  0.00    +0.033 A 
ATOM      4  C   LIG    1      -27.352  83.991  38.695  0.00  0.00    +0.023 A 
ATOM      5  C   LIG    1      -27.116  82.704  39.178  0.00  0.00    +0.004 A 
ATOM      6  C   LIG    1      -26.326  81.812  38.450  0.00  0.00    +0.023 A 
ENDROOT
BRANCH   1   8
ATOM      7  C   LIG    1      -23.558  81.378  36.402  0.00  0.00    +0.248 C 
ATOM      8  N   LIG    1      -24.939  81.399  36.432  0.00  0.00    -0.281 N 
ATOM      9  H   LIG    1      -25.448  80.817  35.779  0.00  0.00    +0.155 HD
ATOM     10  O   LIG    1      -22.792  82.078  37.057  0.00  0.00    -0.270 OA
BRANCH   7  15
ATOM     11  C   LIG    1      -23.383  78.890  33.561  0.00  0.00    +0.031 A 
ATOM     12  C   LIG    1      -22.002  78.623  33.559  0.00  0.00    +0.035 A 
ATOM     13  C   LIG    1      -21.096  79.282  34.425  0.00  0.00    +0.057 A 
ATOM     14  C   LIG    1      -21.570  80.205  35.354  0.00  0.00    +0.025 A 
ATOM     15  C   LIG    1      -22.941  80.427  35.441  0.00  0.00    +0.039 A 
ATOM     16  C   LIG    1      -23.819  79.774  34.557  0.00  0.00    +0.036 A 
BRANCH  11  21
ATOM     17  C   LIG    1      -25.315  74.982  31.405  0.00  0.00    +0.105 C 
ATOM     18  N   LIG    1      -25.855  76.289  31.036  0.00  0.00    -0.302 NA
ATOM     19  C   LIG    1      -24.814  77.161  30.456  0.00  0.00    +0.103 C 
ATOM     20  C   LIG    1      -23.724  77.683  31.423  0.00  0.00    +0.120 C 
ATOM     21  N   LIG    1      -24.284  78.287  32.661  0.00  0.00    -0.327 N 
ATOM     22  C   LIG    1      -25.400  77.498  33.247  0.00  0.00    +0.120 C 
ATOM     23  C   LIG    1      -26.419  76.998  32.198  0.00  0.00    +0.103 C 
ENDBRANCH  11  21
BRANCH  13  24
ATOM     24  C   LIG    1      -19.622  79.000  34.295  0.00  0.00    +0.417 C 
ATOM     25  F   LIG    1      -19.380  77.664  34.305  0.00  0.00    -0.166 F 
ATOM     26  F   LIG    1      -18.904  79.528  35.319  0.00  0.00    -0.166 F 
ATOM     27  F   LIG    1      -19.079  79.488  33.152  0.00  0.00    -0.166 F 
ENDBRANCH  13  24
ENDBRANCH   7  15
ENDBRANCH   1   8
BRANCH   3  28
ATOM     28  N   LIG    1      -27.016  85.680  36.935  0.00  0.00    -0.314 N 
ATOM     29  H   LIG    1      -26.355  86.375  37.264  0.00  0.00    +0.152 HD
BRANCH  28  30
ATOM     30  C   LIG    1      -27.864  86.148  35.916  0.00  0.00    +0.033 A 
ATOM     31  C   LIG    1      -29.225  85.821  35.969  0.00  0.00    +0.047 A 
ATOM     32  C   LIG    1      -30.039  86.250  34.940  0.00  0.00    +0.043 A 
ATOM     33  N   LIG    1      -31.387  85.954  34.786  0.00  0.00    -0.281 N 
ATOM     34  H   LIG    1      -31.943  85.392  35.410  0.00  0.00    +0.155 HD
ATOM     35  C   LIG    1      -31.873  86.435  33.584  0.00  0.00    +0.249 C 
ATOM     36  O   LIG    1      -32.981  86.222  33.137  0.00  0.00    -0.270 OA
ATOM     37  C   LIG    1      -30.717  87.182  32.948  0.00  0.00    +0.048 C 
ATOM     38  C   LIG    1      -30.672  87.870  31.793  0.00  0.00    +0.039 C 
ATOM     39  C   LIG    1      -29.572  87.008  33.865  0.00  0.00    +0.008 A 
ATOM     40  C   LIG    1      -28.239  87.374  33.814  0.00  0.00    +0.012 A 
ATOM     41  C   LIG    1      -27.392  86.948  34.852  0.00  0.00    +0.024 A 
BRANCH  38  42
ATOM     42  C   LIG    1      -31.722  88.024  30.840  0.00  0.00    +0.044 A 
ATOM     43  C   LIG    1      -32.372  89.133  30.309  0.00  0.00    -0.012 A 
ATOM     44  C   LIG    1      -32.157  90.565  30.675  0.00  0.00    +0.047 C 
ATOM     45  C   LIG    1      -33.347  88.655  29.353  0.00  0.00    +0.082 A 
ATOM     46  C   LIG    1      -33.171  87.277  29.266  0.00  0.00    +0.028 A 
ATOM     47  C   LIG    1      -33.759  86.227  28.390  0.00  0.00    +0.064 C 
ATOM     48  N   LIG    1      -32.217  86.928  30.185  0.00  0.00    -0.358 N 
ATOM     49  H   LIG    1      -31.950  85.970  30.384  0.00  0.00    +0.166 HD
BRANCH  45  50
ATOM     50  C   LIG    1      -34.304  89.467  28.596  0.00  0.00    +0.339 C 
ATOM     51  O   LIG    1      -35.348  89.905  29.057  0.00  0.00    -0.245 OA
BRANCH  50  52
ATOM     52  O   LIG    1      -33.972  89.655  27.292  0.00  0.00    -0.477 OA
ATOM     53  H   LIG    1      -33.775  90.594  27.127  0.00  0.00    +0.295 HD
ENDBRANCH  50  52
ENDBRANCH  45  50
ENDBRANCH  38  42
ENDBRANCH  28  30
ENDBRANCH   3  28
TORSDOF 9
ENDMDL
MODEL 7
REMARK VINA RESULT:      -7.6      6.238     12.463
REMARK  Name = pdb/CHEMBL2037222.pdb
REMARK                            x       y       z     vdW  Elec       q    Type
REMARK                         _______ _______ _______ _____ _____    ______ ____
ROOT
ATOM      1  C   LIG    1      -38.087  75.239  25.176  0.00  0.00    +0.035 A 
ATOM      2  C   LIG    1      -38.875  76.361  24.887  0.00  0.00    +0.046 A 
ATOM      3  C   LIG    1      -40.106  76.244  24.230  0.00  0.00    +0.033 A 
ATOM      4  C   LIG    1      -40.559  74.967  23.897  0.00  0.00    +0.023 A 
ATOM      5  C   LIG    1      -39.782  73.842  24.172  0.00  0.00    +0.004 A 
ATOM      6  C   LIG    1      -38.546  73.978  24.807  0.00  0.00    +0.023 A 
ENDROOT
BRANCH   1   8
ATOM      7  C   LIG    1      -36.604  75.371  27.185  0.00  0.00    +0.248 C 
ATOM      8  N   LIG    1      -36.867  75.493  25.834  0.00  0.00    -0.281 N 
ATOM      9  H   LIG    1      -36.139  75.847  25.227  0.00  0.00    +0.155 HD
ATOM     10  O   LIG    1      -37.392  75.044  28.067  0.00  0.00    -0.270 OA
BRANCH   7  15
ATOM     11  C   LIG    1      -33.270  74.956  28.918  0.00  0.00    +0.031 A 
ATOM     12  C   LIG    1      -32.642  76.151  28.521  0.00  0.00    +0.035 A 
ATOM     13  C   LIG    1      -33.252  77.078  27.642  0.00  0.00    +0.057 A 
ATOM     14  C   LIG    1      -34.541  76.843  27.170  0.00  0.00    +0.025 A 
ATOM     15  C   LIG    1      -35.223  75.713  27.613  0.00  0.00    +0.039 A 
ATOM     16  C   LIG    1      -34.589  74.798  28.472  0.00  0.00    +0.036 A 
BRANCH  11  21
ATOM     17  C   LIG    1      -30.277  71.182  29.587  0.00  0.00    +0.105 C 
ATOM     18  N   LIG    1      -30.949  71.723  30.766  0.00  0.00    -0.302 NA
ATOM     19  C   LIG    1      -32.417  71.640  30.637  0.00  0.00    +0.103 C 
ATOM     20  C   LIG    1      -33.082  72.582  29.603  0.00  0.00    +0.120 C 
ATOM     21  N   LIG    1      -32.647  73.997  29.741  0.00  0.00    -0.327 N 
ATOM     22  C   LIG    1      -31.183  74.143  29.961  0.00  0.00    +0.120 C 
ATOM     23  C   LIG    1      -30.612  73.140  30.989  0.00  0.00    +0.103 C 
ENDBRANCH  11  21
BRANCH  13  24
ATOM     24  C   LIG    1      -32.473  78.290  27.200  0.00  0.00    +0.417 C 
ATOM     25  F   LIG    1      -31.825  78.050  26.031  0.00  0.00    -0.166 F 
ATOM     26  F   LIG    1      -31.522  78.648  28.100  0.00  0.00    -0.166 F 
ATOM     27  F   LIG    1      -33.248  79.385  27.001  0.00  0.00    -0.166 F 
ENDBRANCH  13  24
ENDBRANCH   7  15
ENDBRANCH   1   8
BRANCH   3  28
ATOM     28  N   LIG    1      -40.843  77.411  23.990  0.00  0.00    -0.314 N 
ATOM     29  H   LIG    1      -41.759  77.252  23.584  0.00  0.00    +0.152 HD
BRANCH  28  30
ATOM     30  C   LIG    1      -40.609  78.752  24.341  0.00  0.00    +0.033 A 
ATOM     31  C   LIG    1      -39.917  79.573  23.441  0.00  0.00    +0.047 A 
ATOM     32  C   LIG    1      -39.655  80.876  23.816  0.00  0.00    +0.043 A 
ATOM     33  N   LIG    1      -38.918  81.803  23.092  0.00  0.00    -0.281 N 
ATOM     34  H   LIG    1      -38.485  81.643  22.196  0.00  0.00    +0.155 HD
ATOM     35  C   LIG    1      -38.740  82.973  23.806  0.00  0.00    +0.249 C 
ATOM     36  O   LIG    1      -38.042  83.906  23.467  0.00  0.00    -0.270 OA
ATOM     37  C   LIG    1      -39.518  82.785  25.094  0.00  0.00    +0.048 C 
ATOM     38  C   LIG    1      -39.704  83.640  26.117  0.00  0.00    +0.039 C 
ATOM     39  C   LIG    1      -40.065  81.414  25.038  0.00  0.00    +0.008 A 
ATOM     40  C   LIG    1      -40.782  80.631  25.924  0.00  0.00    +0.012 A 
ATOM     41  C   LIG    1      -41.060  79.301  25.562  0.00  0.00    +0.024 A 
BRANCH  38  42
ATOM     42  C   LIG    1      -39.156  84.949  26.256  0.00  0.00    +0.044 A 
ATOM     43  C   LIG    1      -38.109  85.468  27.010  0.00  0.00    -0.012 A 
ATOM     44  C   LIG    1      -37.254  84.735  27.991  0.00  0.00    +0.047 C 
ATOM     45  C   LIG    1      -38.010  86.880  26.711  0.00  0.00    +0.082 A 
ATOM     46  C   LIG    1      -38.937  87.135  25.705  0.00  0.00    +0.028 A 
ATOM     47  C   LIG    1      -39.244  88.337  24.882  0.00  0.00    +0.064 C 
ATOM     48  N   LIG    1      -39.624  85.972  25.476  0.00  0.00    -0.358 N 
ATOM     49  H   LIG    1      -40.412  85.898  24.842  0.00  0.00    +0.166 HD
BRANCH  45  50
ATOM     50  C   LIG    1      -37.089  87.843  27.320  0.00  0.00    +0.339 C 
ATOM     51  O   LIG    1      -37.250  88.344  28.424  0.00  0.00    -0.245 OA
BRANCH  50  52
ATOM     52  O   LIG    1      -36.043  88.197  26.528  0.00  0.00    -0.477 OA
ATOM     53  H   LIG    1      -35.408  88.735  27.032  0.00  0.00    +0.295 HD
ENDBRANCH  50  52
ENDBRANCH  45  50
ENDBRANCH  38  42
ENDBRANCH  28  30
ENDBRANCH   3  28
TORSDOF 9
ENDMDL
MODEL 8
REMARK VINA RESULT:      -7.6      8.016     12.934
REMARK  Name = pdb/CHEMBL2037222.pdb
REMARK                            x       y       z     vdW  Elec       q    Type
REMARK                         _______ _______ _______ _____ _____    ______ ____
ROOT
ATOM      1  C   LIG    1      -27.454  76.684  32.946  0.00  0.00    +0.035 A 
ATOM      2  C   LIG    1      -28.060  75.890  31.965  0.00  0.00    +0.046 A 
ATOM      3  C   LIG    1      -29.428  75.593  32.003  0.00  0.00    +0.033 A 
ATOM      4  C   LIG    1      -30.196  76.140  33.031  0.00  0.00    +0.023 A 
ATOM      5  C   LIG    1      -29.604  76.926  34.019  0.00  0.00    +0.004 A 
ATOM      6  C   LIG    1      -28.234  77.196  33.980  0.00  0.00    +0.023 A 
ENDROOT
BRANCH   1   8
ATOM      7  C   LIG    1      -25.429  77.516  31.737  0.00  0.00    +0.248 C 
ATOM      8  N   LIG    1      -26.070  76.904  32.797  0.00  0.00    -0.281 N 
ATOM      9  H   LIG    1      -25.509  76.514  33.545  0.00  0.00    +0.155 HD
ATOM     10  O   LIG    1      -25.944  77.960  30.716  0.00  0.00    -0.270 OA
BRANCH   7  15
ATOM     11  C   LIG    1      -22.065  78.402  33.218  0.00  0.00    +0.031 A 
ATOM     12  C   LIG    1      -21.219  77.881  32.223  0.00  0.00    +0.035 A 
ATOM     13  C   LIG    1      -21.709  77.183  31.093  0.00  0.00    +0.057 A 
ATOM     14  C   LIG    1      -23.082  77.028  30.914  0.00  0.00    +0.025 A 
ATOM     15  C   LIG    1      -23.949  77.607  31.836  0.00  0.00    +0.039 A 
ATOM     16  C   LIG    1      -23.438  78.280  32.960  0.00  0.00    +0.036 A 
BRANCH  11  21
ATOM     17  C   LIG    1      -20.316  78.300  37.755  0.00  0.00    +0.105 C 
ATOM     18  N   LIG    1      -20.473  79.609  37.125  0.00  0.00    -0.302 NA
ATOM     19  C   LIG    1      -21.879  79.866  36.754  0.00  0.00    +0.103 C 
ATOM     20  C   LIG    1      -22.455  79.032  35.583  0.00  0.00    +0.120 C 
ATOM     21  N   LIG    1      -21.585  79.042  34.378  0.00  0.00    -0.327 N 
ATOM     22  C   LIG    1      -20.141  78.875  34.694  0.00  0.00    +0.120 C 
ATOM     23  C   LIG    1      -19.671  79.726  35.895  0.00  0.00    +0.103 C 
ENDBRANCH  11  21
BRANCH  13  24
ATOM     24  C   LIG    1      -20.728  76.582  30.121  0.00  0.00    +0.417 C 
ATOM     25  F   LIG    1      -20.359  75.335  30.511  0.00  0.00    -0.166 F 
ATOM     26  F   LIG    1      -19.586  77.309  30.025  0.00  0.00    -0.166 F 
ATOM     27  F   LIG    1      -21.219  76.468  28.862  0.00  0.00    -0.166 F 
ENDBRANCH  13  24
ENDBRANCH   7  15
ENDBRANCH   1   8
BRANCH   3  28
ATOM     28  N   LIG    1      -29.964  74.804  30.976  0.00  0.00    -0.314 N 
ATOM     29  H   LIG    1      -29.482  73.925  30.828  0.00  0.00    +0.152 HD
BRANCH  28  30
ATOM     30  C   LIG    1      -31.136  74.940  30.210  0.00  0.00    +0.033 A 
ATOM     31  C   LIG    1      -31.400  76.170  29.595  0.00  0.00    +0.047 A 
ATOM     32  C   LIG    1      -32.575  76.304  28.882  0.00  0.00    +0.043 A 
ATOM     33  N   LIG    1      -33.037  77.465  28.277  0.00  0.00    -0.281 N 
ATOM     34  H   LIG    1      -32.569  78.357  28.278  0.00  0.00    +0.155 HD
ATOM     35  C   LIG    1      -34.304  77.289  27.753  0.00  0.00    +0.249 C 
ATOM     36  O   LIG    1      -34.995  78.163  27.272  0.00  0.00    -0.270 OA
ATOM     37  C   LIG    1      -34.643  75.830  27.990  0.00  0.00    +0.048 C 
ATOM     38  C   LIG    1      -35.740  75.136  27.637  0.00  0.00    +0.039 C 
ATOM     39  C   LIG    1      -33.497  75.266  28.731  0.00  0.00    +0.008 A 
ATOM     40  C   LIG    1      -33.236  74.032  29.299  0.00  0.00    +0.012 A 
ATOM     41  C   LIG    1      -32.045  73.874  30.029  0.00  0.00    +0.024 A 
BRANCH  38  42
ATOM     42  C   LIG    1      -36.901  75.636  26.976  0.00  0.00    +0.044 A 
ATOM     43  C   LIG    1      -38.212  75.851  27.387  0.00  0.00    -0.012 A 
ATOM     44  C   LIG    1      -38.802  75.534  28.721  0.00  0.00    +0.047 C 
ATOM     45  C   LIG    1      -38.938  76.406  26.265  0.00  0.00    +0.082 A 
ATOM     46  C   LIG    1      -38.005  76.604  25.251  0.00  0.00    +0.028 A 
ATOM     47  C   LIG    1      -38.077  77.246  23.910  0.00  0.00    +0.064 C 
ATOM     48  N   LIG    1      -36.807  76.108  25.695  0.00  0.00    -0.358 N 
ATOM     49  H   LIG    1      -35.972  76.056  25.122  0.00  0.00    +0.166 HD
BRANCH  45  50
ATOM     50  C   LIG    1      -40.366  76.733  26.220  0.00  0.00    +0.339 C 
ATOM     51  O   LIG    1      -40.842  77.787  26.618  0.00  0.00    -0.245 OA
BRANCH  50  52
ATOM     52  O   LIG    1      -41.155  75.733  25.748  0.00  0.00    -0.477 OA
ATOM     53  H   LIG    1      -42.093  75.947  25.898  0.00  0.00    +0.295 HD
ENDBRANCH  50  52
ENDBRANCH  45  50
ENDBRANCH  38  42
ENDBRANCH  28  30
ENDBRANCH   3  28
TORSDOF 9
ENDMDL
MODEL 9
REMARK VINA RESULT:      -7.5      6.138     12.336
REMARK  Name = pdb/CHEMBL2037222.pdb
REMARK                            x       y       z     vdW  Elec       q    Type
REMARK                         _______ _______ _______ _____ _____    ______ ____
ROOT
ATOM      1  C   LIG    1      -38.285  74.894  25.273  0.00  0.00    +0.035 A 
ATOM      2  C   LIG    1      -38.994  76.100  25.217  0.00  0.00    +0.046 A 
ATOM      3  C   LIG    1      -40.228  76.196  24.562  0.00  0.00    +0.033 A 
ATOM      4  C   LIG    1      -40.765  75.043  23.988  0.00  0.00    +0.023 A 
ATOM      5  C   LIG    1      -40.066  73.837  24.030  0.00  0.00    +0.004 A 
ATOM      6  C   LIG    1      -38.826  73.762  24.669  0.00  0.00    +0.023 A 
ENDROOT
BRANCH   1   8
ATOM      7  C   LIG    1      -36.842  74.754  27.312  0.00  0.00    +0.248 C 
ATOM      8  N   LIG    1      -37.054  74.931  25.957  0.00  0.00    -0.281 N 
ATOM      9  H   LIG    1      -36.264  75.163  25.369  0.00  0.00    +0.155 HD
ATOM     10  O   LIG    1      -37.693  74.557  28.174  0.00  0.00    -0.270 OA
BRANCH   7  15
ATOM     11  C   LIG    1      -33.547  73.620  28.777  0.00  0.00    +0.031 A 
ATOM     12  C   LIG    1      -32.815  74.818  28.679  0.00  0.00    +0.035 A 
ATOM     13  C   LIG    1      -33.344  75.989  28.085  0.00  0.00    +0.057 A 
ATOM     14  C   LIG    1      -34.653  75.996  27.609  0.00  0.00    +0.025 A 
ATOM     15  C   LIG    1      -35.432  74.854  27.770  0.00  0.00    +0.039 A 
ATOM     16  C   LIG    1      -34.879  73.697  28.346  0.00  0.00    +0.036 A 
BRANCH  11  21
ATOM     17  C   LIG    1      -33.948  69.501  31.331  0.00  0.00    +0.105 C 
ATOM     18  N   LIG    1      -32.651  69.792  30.725  0.00  0.00    -0.302 NA
ATOM     19  C   LIG    1      -32.091  71.062  31.228  0.00  0.00    +0.103 C 
ATOM     20  C   LIG    1      -32.797  72.364  30.777  0.00  0.00    +0.120 C 
ATOM     21  N   LIG    1      -33.009  72.431  29.307  0.00  0.00    -0.327 N 
ATOM     22  C   LIG    1      -33.491  71.151  28.723  0.00  0.00    +0.120 C 
ATOM     23  C   LIG    1      -32.743  69.909  29.259  0.00  0.00    +0.103 C 
ENDBRANCH  11  21
BRANCH  13  24
ATOM     24  C   LIG    1      -32.461  77.201  27.943  0.00  0.00    +0.417 C 
ATOM     25  F   LIG    1      -31.346  77.082  28.708  0.00  0.00    -0.166 F 
ATOM     26  F   LIG    1      -33.082  78.341  28.341  0.00  0.00    -0.166 F 
ATOM     27  F   LIG    1      -32.042  77.415  26.671  0.00  0.00    -0.166 F 
ENDBRANCH  13  24
ENDBRANCH   7  15
ENDBRANCH   1   8
BRANCH   3  28
ATOM     28  N   LIG    1      -40.884  77.435  24.561  0.00  0.00    -0.314 N 
ATOM     29  H   LIG    1      -41.867  77.388  24.804  0.00  0.00    +0.152 HD
BRANCH  28  30
ATOM     30  C   LIG    1      -40.399  78.748  24.429  0.00  0.00    +0.033 A 
ATOM     31  C   LIG    1      -40.485  79.611  25.530  0.00  0.00    +0.047 A 
ATOM     32  C   LIG    1      -40.045  80.911  25.374  0.00  0.00    +0.043 A 
ATOM     33  N   LIG    1      -40.126  81.921  26.324  0.00  0.00    -0.281 N 
ATOM     34  H   LIG    1      -40.512  81.830  27.250  0.00  0.00    +0.155 HD
ATOM     35  C   LIG    1      -39.710  83.132  25.805  0.00  0.00    +0.249 C 
ATOM     36  O   LIG    1      -39.783  84.203  26.372  0.00  0.00    -0.270 OA
ATOM     37  C   LIG    1      -39.245  82.833  24.394  0.00  0.00    +0.048 C 
ATOM     38  C   LIG    1      -38.710  83.656  23.474  0.00  0.00    +0.039 C 
ATOM     39  C   LIG    1      -39.503  81.394  24.182  0.00  0.00    +0.008 A 
ATOM     40  C   LIG    1      -39.375  80.547  23.096  0.00  0.00    +0.012 A 
ATOM     41  C   LIG    1      -39.816  79.219  23.232  0.00  0.00    +0.024 A 
BRANCH  38  42
ATOM     42  C   LIG    1      -38.492  85.060  23.596  0.00  0.00    +0.044 A 
ATOM     43  C   LIG    1      -37.547  85.821  24.276  0.00  0.00    -0.012 A 
ATOM     44  C   LIG    1      -36.462  85.322  25.172  0.00  0.00    +0.047 C 
ATOM     45  C   LIG    1      -37.823  87.214  23.999  0.00  0.00    +0.082 A 
ATOM     46  C   LIG    1      -38.862  87.233  23.074  0.00  0.00    +0.028 A 
ATOM     47  C   LIG    1      -39.521  88.322  22.302  0.00  0.00    +0.064 C 
ATOM     48  N   LIG    1      -39.258  85.937  22.876  0.00  0.00    -0.358 N 
ATOM     49  H   LIG    1      -40.053  85.671  22.305  0.00  0.00    +0.166 HD
BRANCH  45  50
ATOM     50  C   LIG    1      -37.121  88.375  24.554  0.00  0.00    +0.339 C 
ATOM     51  O   LIG    1      -37.516  89.023  25.512  0.00  0.00    -0.245 OA
BRANCH  50  52
ATOM     52  O   LIG    1      -35.998  88.728  23.875  0.00  0.00    -0.477 OA
ATOM     53  H   LIG    1      -35.582  87.942  23.481  0.00  0.00    +0.295 HD
ENDBRANCH  50  52
ENDBRANCH  45  50
ENDBRANCH  38  42
ENDBRANCH  28  30
ENDBRANCH   3  28
TORSDOF 9
ENDMDL
