MODEL 1
REMARK VINA RESULT:      -7.4      0.000      0.000
REMARK  Name = pdb/CHEMBL3938428.pdb
REMARK                            x       y       z     vdW  Elec       q    Type
REMARK                         _______ _______ _______ _____ _____    ______ ____
ROOT
ATOM      1  C   LIG    1      -24.354  76.907  30.487  0.00  0.00    +0.105 A 
ATOM      2  C   LIG    1      -25.314  77.850  30.801  0.00  0.00    +0.145 A 
ATOM      3  N   LIG    1      -26.468  77.576  31.454  0.00  0.00    -0.201 NA
ATOM      4  C   LIG    1      -26.674  76.287  31.790  0.00  0.00    +0.323 A 
ATOM      5  N   LIG    1      -25.815  75.286  31.559  0.00  0.00    -0.201 NA
ATOM      6  C   LIG    1      -24.665  75.635  30.941  0.00  0.00    +0.145 A 
ENDROOT
BRANCH   1   8
ATOM      7  C   LIG    1      -22.020  77.363  30.530  0.00  0.00    +0.285 C 
ATOM      8  N   LIG    1      -23.147  77.279  29.886  0.00  0.00    -0.196 NA
BRANCH   7   9
ATOM      9  N   LIG    1      -21.675  77.021  31.802  0.00  0.00    -0.269 N 
ATOM     10  H   LIG    1      -21.890  76.079  32.106  0.00  0.00    +0.157 HD
BRANCH   9  12
ATOM     11  C   LIG    1      -19.914  78.086  33.192  0.00  0.00    +0.021 A 
ATOM     12  C   LIG    1      -21.286  77.877  32.868  0.00  0.00    +0.045 A 
ATOM     13  C   LIG    1      -22.282  78.617  33.554  0.00  0.00    +0.036 A 
ATOM     14  C   LIG    1      -21.966  79.582  34.520  0.00  0.00    +0.057 A 
ATOM     15  C   LIG    1      -20.621  79.821  34.789  0.00  0.00    +0.013 A 
ATOM     16  C   LIG    1      -19.625  79.096  34.129  0.00  0.00    +0.012 A 
BRANCH  11  19
ATOM     17  C   LIG    1      -18.959  75.046  33.679  0.00  0.00    +0.173 C 
ATOM     18  N   LIG    1      -18.404  76.033  32.779  0.00  0.00    -0.267 N 
ATOM     19  C   LIG    1      -18.798  77.348  32.537  0.00  0.00    +0.070 A 
ATOM     20  C   LIG    1      -17.890  77.778  31.575  0.00  0.00    +0.049 A 
ATOM     21  C   LIG    1      -17.043  76.696  31.304  0.00  0.00    +0.135 A 
ATOM     22  N   LIG    1      -17.346  75.636  32.042  0.00  0.00    -0.179 NA
ENDBRANCH  11  19
BRANCH  14  23
ATOM     23  C   LIG    1      -23.053  80.370  35.212  0.00  0.00    +0.417 C 
ATOM     24  F   LIG    1      -22.875  81.716  35.110  0.00  0.00    -0.166 F 
ATOM     25  F   LIG    1      -23.118  80.095  36.545  0.00  0.00    -0.166 F 
ATOM     26  F   LIG    1      -24.297  80.119  34.720  0.00  0.00    -0.166 F 
ENDBRANCH  14  23
ENDBRANCH   9  12
ENDBRANCH   7   9
BRANCH   7  27
ATOM     27  O   LIG    1      -20.983  77.793  29.789  0.00  0.00    -0.481 OA
ATOM     28  H   LIG    1      -21.040  77.429  28.892  0.00  0.00    +0.295 HD
ENDBRANCH   7  27
ENDBRANCH   1   8
BRANCH   4  29
ATOM     29  O   LIG    1      -27.827  75.924  32.473  0.00  0.00    -0.424 OA
BRANCH  29  30
ATOM     30  C   LIG    1      -28.913  75.549  31.721  0.00  0.00    +0.132 A 
ATOM     31  C   LIG    1      -29.259  74.201  31.720  0.00  0.00    +0.047 A 
ATOM     32  C   LIG    1      -30.375  73.770  30.994  0.00  0.00    +0.012 A 
ATOM     33  C   LIG    1      -31.156  74.671  30.256  0.00  0.00    -0.013 A 
ATOM     34  C   LIG    1      -30.761  76.016  30.233  0.00  0.00    +0.012 A 
ATOM     35  C   LIG    1      -29.636  76.444  30.934  0.00  0.00    +0.047 A 
BRANCH  33  36
ATOM     36  C   LIG    1      -32.358  74.262  29.534  0.00  0.00    +0.046 A 
ATOM     37  C   LIG    1      -33.335  75.090  28.996  0.00  0.00    +0.165 A 
ATOM     38  N   LIG    1      -33.495  76.453  28.963  0.00  0.00    -0.213 NA
ATOM     39  C   LIG    1      -34.553  76.959  28.368  0.00  0.00    +0.125 A 
ATOM     40  C   LIG    1      -35.612  76.068  27.758  0.00  0.00    +0.063 A 
ATOM     41  C   LIG    1      -35.401  74.750  27.788  0.00  0.00    +0.118 A 
ATOM     42  N   LIG    1      -34.271  74.238  28.402  0.00  0.00    -0.221 N 
ATOM     43  N   LIG    1      -33.936  72.935  28.516  0.00  0.00    -0.173 NA
ATOM     44  C   LIG    1      -32.794  72.957  29.199  0.00  0.00    +0.145 A 
BRANCH  39  45
ATOM     45  N   LIG    1      -34.746  78.335  28.310  0.00  0.00    -0.315 N 
ATOM     46  C   LIG    1      -33.643  79.159  27.913  0.00  0.00    +0.108 C 
ATOM     47  C   LIG    1      -34.126  80.197  28.920  0.00  0.00    +0.038 C 
ATOM     48  C   LIG    1      -34.945  79.061  29.537  0.00  0.00    +0.108 C 
ENDBRANCH  39  45
ENDBRANCH  33  36
ENDBRANCH  29  30
ENDBRANCH   4  29
TORSDOF 10
ENDMDL
MODEL 2
REMARK VINA RESULT:      -7.3     16.449     19.204
REMARK  Name = pdb/CHEMBL3938428.pdb
REMARK                            x       y       z     vdW  Elec       q    Type
REMARK                         _______ _______ _______ _____ _____    ______ ____
ROOT
ATOM      1  C   LIG    1      -26.254  74.845  13.598  0.00  0.00    +0.105 A 
ATOM      2  C   LIG    1      -25.074  75.563  13.660  0.00  0.00    +0.145 A 
ATOM      3  N   LIG    1      -24.979  76.838  14.106  0.00  0.00    -0.201 NA
ATOM      4  C   LIG    1      -26.131  77.424  14.490  0.00  0.00    +0.323 A 
ATOM      5  N   LIG    1      -27.331  76.831  14.495  0.00  0.00    -0.201 NA
ATOM      6  C   LIG    1      -27.348  75.546  14.078  0.00  0.00    +0.145 A 
ENDROOT
BRANCH   1   8
ATOM      7  C   LIG    1      -25.887  72.526  13.979  0.00  0.00    +0.285 C 
ATOM      8  N   LIG    1      -26.261  73.503  13.205  0.00  0.00    -0.196 NA
BRANCH   7   9
ATOM      9  N   LIG    1      -25.549  72.492  15.298  0.00  0.00    -0.269 N 
ATOM     10  H   LIG    1      -24.652  72.883  15.558  0.00  0.00    +0.157 HD
BRANCH   9  12
ATOM     11  C   LIG    1      -25.390  70.933  17.223  0.00  0.00    +0.021 A 
ATOM     12  C   LIG    1      -26.159  71.748  16.344  0.00  0.00    +0.045 A 
ATOM     13  C   LIG    1      -27.548  71.906  16.581  0.00  0.00    +0.036 A 
ATOM     14  C   LIG    1      -28.193  71.316  17.676  0.00  0.00    +0.057 A 
ATOM     15  C   LIG    1      -27.424  70.568  18.562  0.00  0.00    +0.013 A 
ATOM     16  C   LIG    1      -26.054  70.395  18.342  0.00  0.00    +0.012 A 
BRANCH  11  19
ATOM     17  C   LIG    1      -22.923  72.608  18.448  0.00  0.00    +0.173 C 
ATOM     18  N   LIG    1      -22.886  71.446  17.588  0.00  0.00    -0.267 N 
ATOM     19  C   LIG    1      -23.929  70.695  17.050  0.00  0.00    +0.070 A 
ATOM     20  C   LIG    1      -23.268  69.714  16.318  0.00  0.00    +0.049 A 
ATOM     21  C   LIG    1      -21.896  69.939  16.485  0.00  0.00    +0.135 A 
ATOM     22  N   LIG    1      -21.660  70.998  17.248  0.00  0.00    -0.179 NA
ENDBRANCH  11  19
BRANCH  14  23
ATOM     23  C   LIG    1      -29.670  71.527  17.911  0.00  0.00    +0.417 C 
ATOM     24  F   LIG    1      -30.409  71.400  16.775  0.00  0.00    -0.166 F 
ATOM     25  F   LIG    1      -29.941  72.768  18.403  0.00  0.00    -0.166 F 
ATOM     26  F   LIG    1      -30.205  70.649  18.804  0.00  0.00    -0.166 F 
ENDBRANCH  14  23
ENDBRANCH   9  12
ENDBRANCH   7   9
BRANCH   7  27
ATOM     27  O   LIG    1      -25.912  71.312  13.400  0.00  0.00    -0.481 OA
ATOM     28  H   LIG    1      -25.348  71.306  12.612  0.00  0.00    +0.295 HD
ENDBRANCH   7  27
ENDBRANCH   1   8
BRANCH   4  29
ATOM     29  O   LIG    1      -26.118  78.726  14.973  0.00  0.00    -0.424 OA
BRANCH  29  30
ATOM     30  C   LIG    1      -24.991  79.474  14.733  0.00  0.00    +0.132 A 
ATOM     31  C   LIG    1      -24.039  79.543  15.746  0.00  0.00    +0.047 A 
ATOM     32  C   LIG    1      -22.859  80.267  15.542  0.00  0.00    +0.012 A 
ATOM     33  C   LIG    1      -22.614  80.936  14.334  0.00  0.00    -0.013 A 
ATOM     34  C   LIG    1      -23.608  80.892  13.347  0.00  0.00    +0.012 A 
ATOM     35  C   LIG    1      -24.795  80.193  13.556  0.00  0.00    +0.047 A 
BRANCH  33  36
ATOM     36  C   LIG    1      -21.369  81.653  14.071  0.00  0.00    +0.046 A 
ATOM     37  C   LIG    1      -21.189  83.030  14.023  0.00  0.00    +0.165 A 
ATOM     38  N   LIG    1      -22.042  84.093  14.189  0.00  0.00    -0.213 NA
ATOM     39  C   LIG    1      -21.569  85.315  14.078  0.00  0.00    +0.125 A 
ATOM     40  C   LIG    1      -20.119  85.568  13.734  0.00  0.00    +0.063 A 
ATOM     41  C   LIG    1      -19.320  84.505  13.609  0.00  0.00    +0.118 A 
ATOM     42  N   LIG    1      -19.833  83.227  13.749  0.00  0.00    -0.221 N 
ATOM     43  N   LIG    1      -19.149  82.067  13.641  0.00  0.00    -0.173 NA
ATOM     44  C   LIG    1      -20.075  81.131  13.828  0.00  0.00    +0.145 A 
BRANCH  39  45
ATOM     45  N   LIG    1      -22.401  86.417  14.245  0.00  0.00    -0.315 N 
ATOM     46  C   LIG    1      -22.406  87.425  13.226  0.00  0.00    +0.108 C 
ATOM     47  C   LIG    1      -22.566  88.464  14.330  0.00  0.00    +0.038 C 
ATOM     48  C   LIG    1      -22.099  87.364  15.286  0.00  0.00    +0.108 C 
ENDBRANCH  39  45
ENDBRANCH  33  36
ENDBRANCH  29  30
ENDBRANCH   4  29
TORSDOF 10
ENDMDL
MODEL 3
REMARK VINA RESULT:      -7.3     11.950     15.979
REMARK  Name = pdb/CHEMBL3938428.pdb
REMARK                            x       y       z     vdW  Elec       q    Type
REMARK                         _______ _______ _______ _____ _____    ______ ____
ROOT
ATOM      1  C   LIG    1      -36.161  74.940  28.218  0.00  0.00    +0.105 A 
ATOM      2  C   LIG    1      -34.882  74.469  27.992  0.00  0.00    +0.145 A 
ATOM      3  N   LIG    1      -34.515  73.171  28.108  0.00  0.00    -0.201 NA
ATOM      4  C   LIG    1      -35.480  72.309  28.491  0.00  0.00    +0.323 A 
ATOM      5  N   LIG    1      -36.756  72.637  28.722  0.00  0.00    -0.201 NA
ATOM      6  C   LIG    1      -37.064  73.942  28.546  0.00  0.00    +0.145 A 
ENDROOT
BRANCH   1   8
ATOM      7  C   LIG    1      -36.753  76.770  26.819  0.00  0.00    +0.285 C 
ATOM      8  N   LIG    1      -36.485  76.282  27.995  0.00  0.00    -0.196 NA
BRANCH   7   9
ATOM      9  N   LIG    1      -36.921  76.174  25.606  0.00  0.00    -0.269 N 
ATOM     10  H   LIG    1      -36.322  76.482  24.850  0.00  0.00    +0.157 HD
BRANCH   9  12
ATOM     11  C   LIG    1      -39.215  75.926  24.692  0.00  0.00    +0.021 A 
ATOM     12  C   LIG    1      -37.999  75.358  25.169  0.00  0.00    +0.045 A 
ATOM     13  C   LIG    1      -37.818  73.953  25.108  0.00  0.00    +0.036 A 
ATOM     14  C   LIG    1      -38.781  73.097  24.558  0.00  0.00    +0.057 A 
ATOM     15  C   LIG    1      -39.942  73.665  24.042  0.00  0.00    +0.013 A 
ATOM     16  C   LIG    1      -40.143  75.047  24.100  0.00  0.00    +0.012 A 
BRANCH  11  19
ATOM     17  C   LIG    1      -40.562  77.651  27.058  0.00  0.00    +0.173 C 
ATOM     18  N   LIG    1      -40.099  78.102  25.764  0.00  0.00    -0.267 N 
ATOM     19  C   LIG    1      -39.505  77.387  24.726  0.00  0.00    +0.070 A 
ATOM     20  C   LIG    1      -39.284  78.361  23.757  0.00  0.00    +0.049 A 
ATOM     21  C   LIG    1      -39.741  79.573  24.290  0.00  0.00    +0.135 A 
ATOM     22  N   LIG    1      -40.247  79.418  25.505  0.00  0.00    -0.179 NA
ENDBRANCH  11  19
BRANCH  14  23
ATOM     23  C   LIG    1      -38.542  71.607  24.487  0.00  0.00    +0.417 C 
ATOM     24  F   LIG    1      -39.275  71.001  23.513  0.00  0.00    -0.166 F 
ATOM     25  F   LIG    1      -38.862  70.978  25.652  0.00  0.00    -0.166 F 
ATOM     26  F   LIG    1      -37.244  71.281  24.234  0.00  0.00    -0.166 F 
ENDBRANCH  14  23
ENDBRANCH   9  12
ENDBRANCH   7   9
BRANCH   7  27
ATOM     27  O   LIG    1      -36.984  78.096  26.803  0.00  0.00    -0.481 OA
ATOM     28  H   LIG    1      -37.771  78.291  26.273  0.00  0.00    +0.295 HD
ENDBRANCH   7  27
ENDBRANCH   1   8
BRANCH   4  29
ATOM     29  O   LIG    1      -35.188  70.958  28.621  0.00  0.00    -0.424 OA
BRANCH  29  30
ATOM     30  C   LIG    1      -35.379  70.163  27.517  0.00  0.00    +0.132 A 
ATOM     31  C   LIG    1      -34.379  70.158  26.549  0.00  0.00    +0.047 A 
ATOM     32  C   LIG    1      -34.510  69.343  25.419  0.00  0.00    +0.012 A 
ATOM     33  C   LIG    1      -35.636  68.529  25.234  0.00  0.00    -0.013 A 
ATOM     34  C   LIG    1      -36.652  68.586  26.199  0.00  0.00    +0.012 A 
ATOM     35  C   LIG    1      -36.537  69.415  27.312  0.00  0.00    +0.047 A 
BRANCH  33  36
ATOM     36  C   LIG    1      -35.776  67.626  24.094  0.00  0.00    +0.046 A 
ATOM     37  C   LIG    1      -36.898  67.455  23.294  0.00  0.00    +0.165 A 
ATOM     38  N   LIG    1      -38.150  68.020  23.300  0.00  0.00    -0.213 NA
ATOM     39  C   LIG    1      -39.026  67.644  22.395  0.00  0.00    +0.125 A 
ATOM     40  C   LIG    1      -38.694  66.575  21.378  0.00  0.00    +0.063 A 
ATOM     41  C   LIG    1      -37.457  66.073  21.391  0.00  0.00    +0.118 A 
ATOM     42  N   LIG    1      -36.543  66.498  22.340  0.00  0.00    -0.221 N 
ATOM     43  N   LIG    1      -35.268  66.073  22.478  0.00  0.00    -0.173 NA
ATOM     44  C   LIG    1      -34.818  66.748  23.532  0.00  0.00    +0.145 A 
BRANCH  39  45
ATOM     45  N   LIG    1      -40.301  68.198  22.366  0.00  0.00    -0.315 N 
ATOM     46  C   LIG    1      -41.418  67.322  22.168  0.00  0.00    +0.108 C 
ATOM     47  C   LIG    1      -42.067  68.425  21.339  0.00  0.00    +0.038 C 
ATOM     48  C   LIG    1      -40.668  69.040  21.257  0.00  0.00    +0.108 C 
ENDBRANCH  39  45
ENDBRANCH  33  36
ENDBRANCH  29  30
ENDBRANCH   4  29
TORSDOF 10
ENDMDL
MODEL 4
REMARK VINA RESULT:      -7.2     17.718     19.172
REMARK  Name = pdb/CHEMBL3938428.pdb
REMARK                            x       y       z     vdW  Elec       q    Type
REMARK                         _______ _______ _______ _____ _____    ______ ____
ROOT
ATOM      1  C   LIG    1      -23.205  80.692  15.593  0.00  0.00    +0.105 A 
ATOM      2  C   LIG    1      -22.604  79.449  15.535  0.00  0.00    +0.145 A 
ATOM      3  N   LIG    1      -22.814  78.545  14.549  0.00  0.00    -0.201 NA
ATOM      4  C   LIG    1      -23.686  78.903  13.586  0.00  0.00    +0.323 A 
ATOM      5  N   LIG    1      -24.317  80.081  13.519  0.00  0.00    -0.201 NA
ATOM      6  C   LIG    1      -24.030  80.953  14.511  0.00  0.00    +0.145 A 
ENDROOT
BRANCH   1   8
ATOM      7  C   LIG    1      -22.725  82.882  16.387  0.00  0.00    +0.285 C 
ATOM      8  N   LIG    1      -22.875  81.607  16.598  0.00  0.00    -0.196 NA
BRANCH   7   9
ATOM      9  N   LIG    1      -22.954  83.653  15.288  0.00  0.00    -0.269 N 
ATOM     10  H   LIG    1      -23.739  83.403  14.699  0.00  0.00    +0.157 HD
BRANCH   9  12
ATOM     11  C   LIG    1      -20.958  84.217  13.924  0.00  0.00    +0.021 A 
ATOM     12  C   LIG    1      -22.091  84.612  14.691  0.00  0.00    +0.045 A 
ATOM     13  C   LIG    1      -22.430  85.987  14.774  0.00  0.00    +0.036 A 
ATOM     14  C   LIG    1      -21.708  86.977  14.096  0.00  0.00    +0.057 A 
ATOM     15  C   LIG    1      -20.637  86.578  13.302  0.00  0.00    +0.013 A 
ATOM     16  C   LIG    1      -20.283  85.229  13.213  0.00  0.00    +0.012 A 
BRANCH  11  19
ATOM     17  C   LIG    1      -21.855  82.036  11.727  0.00  0.00    +0.173 C 
ATOM     18  N   LIG    1      -20.931  81.880  12.829  0.00  0.00    -0.267 N 
ATOM     19  C   LIG    1      -20.515  82.801  13.787  0.00  0.00    +0.070 A 
ATOM     20  C   LIG    1      -19.626  82.068  14.567  0.00  0.00    +0.049 A 
ATOM     21  C   LIG    1      -19.565  80.784  14.012  0.00  0.00    +0.135 A 
ATOM     22  N   LIG    1      -20.366  80.662  12.962  0.00  0.00    -0.179 NA
ENDBRANCH  11  19
BRANCH  14  23
ATOM     23  C   LIG    1      -22.113  88.430  14.187  0.00  0.00    +0.417 C 
ATOM     24  F   LIG    1      -23.151  88.742  13.364  0.00  0.00    -0.166 F 
ATOM     25  F   LIG    1      -21.095  89.270  13.849  0.00  0.00    -0.166 F 
ATOM     26  F   LIG    1      -22.502  88.803  15.437  0.00  0.00    -0.166 F 
ENDBRANCH  14  23
ENDBRANCH   9  12
ENDBRANCH   7   9
BRANCH   7  27
ATOM     27  O   LIG    1      -22.350  83.588  17.470  0.00  0.00    -0.481 OA
ATOM     28  H   LIG    1      -22.712  84.485  17.424  0.00  0.00    +0.295 HD
ENDBRANCH   7  27
ENDBRANCH   1   8
BRANCH   4  29
ATOM     29  O   LIG    1      -23.947  78.037  12.532  0.00  0.00    -0.424 OA
BRANCH  29  30
ATOM     30  C   LIG    1      -25.264  77.754  12.261  0.00  0.00    +0.132 A 
ATOM     31  C   LIG    1      -25.758  78.127  11.014  0.00  0.00    +0.047 A 
ATOM     32  C   LIG    1      -27.084  77.834  10.677  0.00  0.00    +0.012 A 
ATOM     33  C   LIG    1      -27.936  77.173  11.574  0.00  0.00    -0.013 A 
ATOM     34  C   LIG    1      -27.430  76.851  12.842  0.00  0.00    +0.012 A 
ATOM     35  C   LIG    1      -26.118  77.163  13.190  0.00  0.00    +0.047 A 
BRANCH  33  36
ATOM     36  C   LIG    1      -29.307  76.804  11.231  0.00  0.00    +0.046 A 
ATOM     37  C   LIG    1      -30.385  77.662  11.051  0.00  0.00    +0.165 A 
ATOM     38  N   LIG    1      -30.521  79.026  11.130  0.00  0.00    -0.213 NA
ATOM     39  C   LIG    1      -31.700  79.564  10.905  0.00  0.00    +0.125 A 
ATOM     40  C   LIG    1      -32.909  78.709  10.603  0.00  0.00    +0.063 A 
ATOM     41  C   LIG    1      -32.725  77.390  10.509  0.00  0.00    +0.118 A 
ATOM     42  N   LIG    1      -31.472  76.845  10.729  0.00  0.00    -0.221 N 
ATOM     43  N   LIG    1      -31.142  75.536  10.677  0.00  0.00    -0.173 NA
ATOM     44  C   LIG    1      -29.848  75.520  10.984  0.00  0.00    +0.145 A 
BRANCH  39  45
ATOM     45  N   LIG    1      -31.876  80.943  10.971  0.00  0.00    -0.315 N 
ATOM     46  C   LIG    1      -33.183  81.474  10.720  0.00  0.00    +0.108 C 
ATOM     47  C   LIG    1      -32.513  82.653  10.025  0.00  0.00    +0.038 C 
ATOM     48  C   LIG    1      -31.265  81.769   9.962  0.00  0.00    +0.108 C 
ENDBRANCH  39  45
ENDBRANCH  33  36
ENDBRANCH  29  30
ENDBRANCH   4  29
TORSDOF 10
ENDMDL
MODEL 5
REMARK VINA RESULT:      -7.2     15.647     19.175
REMARK  Name = pdb/CHEMBL3938428.pdb
REMARK                            x       y       z     vdW  Elec       q    Type
REMARK                         _______ _______ _______ _____ _____    ______ ____
ROOT
ATOM      1  C   LIG    1      -43.331  71.428  23.039  0.00  0.00    +0.105 A 
ATOM      2  C   LIG    1      -42.819  70.307  23.665  0.00  0.00    +0.145 A 
ATOM      3  N   LIG    1      -42.268  69.256  23.014  0.00  0.00    -0.201 NA
ATOM      4  C   LIG    1      -42.248  69.329  21.668  0.00  0.00    +0.323 A 
ATOM      5  N   LIG    1      -42.695  70.365  20.948  0.00  0.00    -0.201 NA
ATOM      6  C   LIG    1      -43.194  71.399  21.661  0.00  0.00    +0.145 A 
ENDROOT
BRANCH   1   8
ATOM      7  C   LIG    1      -43.150  73.624  23.934  0.00  0.00    +0.285 C 
ATOM      8  N   LIG    1      -43.809  72.513  23.782  0.00  0.00    -0.196 NA
BRANCH   7   9
ATOM      9  N   LIG    1      -41.996  74.079  23.372  0.00  0.00    -0.269 N 
ATOM     10  H   LIG    1      -42.051  74.445  22.428  0.00  0.00    +0.157 HD
BRANCH   9  12
ATOM     11  C   LIG    1      -39.885  74.949  24.345  0.00  0.00    +0.021 A 
ATOM     12  C   LIG    1      -40.662  73.879  23.817  0.00  0.00    +0.045 A 
ATOM     13  C   LIG    1      -40.132  72.563  23.831  0.00  0.00    +0.036 A 
ATOM     14  C   LIG    1      -38.879  72.267  24.384  0.00  0.00    +0.057 A 
ATOM     15  C   LIG    1      -38.151  73.309  24.950  0.00  0.00    +0.013 A 
ATOM     16  C   LIG    1      -38.653  74.614  24.938  0.00  0.00    +0.012 A 
BRANCH  11  19
ATOM     17  C   LIG    1      -41.545  76.492  26.638  0.00  0.00    +0.173 C 
ATOM     18  N   LIG    1      -41.074  77.000  25.368  0.00  0.00    -0.267 N 
ATOM     19  C   LIG    1      -40.348  76.366  24.362  0.00  0.00    +0.070 A 
ATOM     20  C   LIG    1      -40.196  77.363  23.404  0.00  0.00    +0.049 A 
ATOM     21  C   LIG    1      -40.820  78.510  23.911  0.00  0.00    +0.135 A 
ATOM     22  N   LIG    1      -41.365  78.290  25.100  0.00  0.00    -0.179 NA
ENDBRANCH  11  19
BRANCH  14  23
ATOM     23  C   LIG    1      -38.357  70.849  24.405  0.00  0.00    +0.417 C 
ATOM     24  F   LIG    1      -39.281  69.941  23.985  0.00  0.00    -0.166 F 
ATOM     25  F   LIG    1      -37.979  70.459  25.653  0.00  0.00    -0.166 F 
ATOM     26  F   LIG    1      -37.266  70.665  23.612  0.00  0.00    -0.166 F 
ENDBRANCH  14  23
ENDBRANCH   9  12
ENDBRANCH   7   9
BRANCH   7  27
ATOM     27  O   LIG    1      -43.751  74.527  24.731  0.00  0.00    -0.481 OA
ATOM     28  H   LIG    1      -44.495  74.117  25.198  0.00  0.00    +0.295 HD
ENDBRANCH   7  27
ENDBRANCH   1   8
BRANCH   4  29
ATOM     29  O   LIG    1      -41.688  68.297  20.927  0.00  0.00    -0.424 OA
BRANCH  29  30
ATOM     30  C   LIG    1      -40.343  68.066  21.085  0.00  0.00    +0.132 A 
ATOM     31  C   LIG    1      -39.958  66.812  21.551  0.00  0.00    +0.047 A 
ATOM     32  C   LIG    1      -38.598  66.515  21.702  0.00  0.00    +0.012 A 
ATOM     33  C   LIG    1      -37.607  67.460  21.398  0.00  0.00    -0.013 A 
ATOM     34  C   LIG    1      -38.021  68.732  20.976  0.00  0.00    +0.012 A 
ATOM     35  C   LIG    1      -39.374  69.039  20.849  0.00  0.00    +0.047 A 
BRANCH  33  36
ATOM     36  C   LIG    1      -36.181  67.161  21.491  0.00  0.00    +0.046 A 
ATOM     37  C   LIG    1      -35.298  66.950  20.440  0.00  0.00    +0.165 A 
ATOM     38  N   LIG    1      -35.450  66.946  19.075  0.00  0.00    -0.213 NA
ATOM     39  C   LIG    1      -34.403  66.703  18.316  0.00  0.00    +0.125 A 
ATOM     40  C   LIG    1      -33.052  66.390  18.919  0.00  0.00    +0.063 A 
ATOM     41  C   LIG    1      -32.945  66.433  20.249  0.00  0.00    +0.118 A 
ATOM     42  N   LIG    1      -34.054  66.710  21.029  0.00  0.00    -0.221 N 
ATOM     43  N   LIG    1      -34.095  66.776  22.378  0.00  0.00    -0.173 NA
ATOM     44  C   LIG    1      -35.371  67.040  22.646  0.00  0.00    +0.145 A 
BRANCH  39  45
ATOM     45  N   LIG    1      -34.517  66.696  16.930  0.00  0.00    -0.315 N 
ATOM     46  C   LIG    1      -34.416  65.440  16.247  0.00  0.00    +0.108 C 
ATOM     47  C   LIG    1      -33.681  66.169  15.128  0.00  0.00    +0.038 C 
ATOM     48  C   LIG    1      -33.468  67.293  16.144  0.00  0.00    +0.108 C 
ENDBRANCH  39  45
ENDBRANCH  33  36
ENDBRANCH  29  30
ENDBRANCH   4  29
TORSDOF 10
ENDMDL
MODEL 6
REMARK VINA RESULT:      -7.2     10.376     13.510
REMARK  Name = pdb/CHEMBL3938428.pdb
REMARK                            x       y       z     vdW  Elec       q    Type
REMARK                         _______ _______ _______ _____ _____    ______ ____
ROOT
ATOM      1  C   LIG    1      -39.048  78.010  26.966  0.00  0.00    +0.105 A 
ATOM      2  C   LIG    1      -39.967  77.046  27.335  0.00  0.00    +0.145 A 
ATOM      3  N   LIG    1      -40.411  76.062  26.518  0.00  0.00    -0.201 NA
ATOM      4  C   LIG    1      -39.919  76.060  25.263  0.00  0.00    +0.323 A 
ATOM      5  N   LIG    1      -39.013  76.925  24.791  0.00  0.00    -0.201 NA
ATOM      6  C   LIG    1      -38.582  77.856  25.670  0.00  0.00    +0.145 A 
ENDROOT
BRANCH   1   8
ATOM      7  C   LIG    1      -37.742  78.651  28.847  0.00  0.00    +0.285 C 
ATOM      8  N   LIG    1      -38.573  78.945  27.891  0.00  0.00    -0.196 NA
BRANCH   7   9
ATOM      9  N   LIG    1      -37.048  77.513  29.127  0.00  0.00    -0.269 N 
ATOM     10  H   LIG    1      -37.361  76.959  29.916  0.00  0.00    +0.157 HD
BRANCH   9  12
ATOM     11  C   LIG    1      -35.424  75.739  28.511  0.00  0.00    +0.021 A 
ATOM     12  C   LIG    1      -35.776  77.114  28.635  0.00  0.00    +0.045 A 
ATOM     13  C   LIG    1      -34.881  78.105  28.157  0.00  0.00    +0.036 A 
ATOM     14  C   LIG    1      -33.670  77.782  27.531  0.00  0.00    +0.057 A 
ATOM     15  C   LIG    1      -33.360  76.436  27.363  0.00  0.00    +0.013 A 
ATOM     16  C   LIG    1      -34.226  75.444  27.833  0.00  0.00    +0.012 A 
BRANCH  11  19
ATOM     17  C   LIG    1      -35.585  74.455  31.463  0.00  0.00    +0.173 C 
ATOM     18  N   LIG    1      -36.328  74.088  30.278  0.00  0.00    -0.267 N 
ATOM     19  C   LIG    1      -36.290  74.626  28.993  0.00  0.00    +0.070 A 
ATOM     20  C   LIG    1      -37.224  73.862  28.301  0.00  0.00    +0.049 A 
ATOM     21  C   LIG    1      -37.757  72.947  29.218  0.00  0.00    +0.135 A 
ATOM     22  N   LIG    1      -37.206  73.073  30.417  0.00  0.00    -0.179 NA
ENDBRANCH  11  19
BRANCH  14  23
ATOM     23  C   LIG    1      -32.753  78.865  27.012  0.00  0.00    +0.417 C 
ATOM     24  F   LIG    1      -31.664  79.059  27.805  0.00  0.00    -0.166 F 
ATOM     25  F   LIG    1      -33.380  80.071  26.925  0.00  0.00    -0.166 F 
ATOM     26  F   LIG    1      -32.268  78.609  25.766  0.00  0.00    -0.166 F 
ENDBRANCH  14  23
ENDBRANCH   9  12
ENDBRANCH   7   9
BRANCH   7  27
ATOM     27  O   LIG    1      -37.448  79.675  29.669  0.00  0.00    -0.481 OA
ATOM     28  H   LIG    1      -36.532  79.604  29.976  0.00  0.00    +0.295 HD
ENDBRANCH   7  27
ENDBRANCH   1   8
BRANCH   4  29
ATOM     29  O   LIG    1      -40.313  75.076  24.366  0.00  0.00    -0.424 OA
BRANCH  29  30
ATOM     30  C   LIG    1      -39.613  73.895  24.380  0.00  0.00    +0.132 A 
ATOM     31  C   LIG    1      -40.279  72.749  23.953  0.00  0.00    +0.047 A 
ATOM     32  C   LIG    1      -39.602  71.524  23.920  0.00  0.00    +0.012 A 
ATOM     33  C   LIG    1      -38.260  71.422  24.313  0.00  0.00    -0.013 A 
ATOM     34  C   LIG    1      -37.625  72.580  24.784  0.00  0.00    +0.012 A 
ATOM     35  C   LIG    1      -38.303  73.795  24.843  0.00  0.00    +0.047 A 
BRANCH  33  36
ATOM     36  C   LIG    1      -37.511  70.170  24.237  0.00  0.00    +0.046 A 
ATOM     37  C   LIG    1      -36.431  69.791  25.023  0.00  0.00    +0.165 A 
ATOM     38  N   LIG    1      -35.754  70.407  26.047  0.00  0.00    -0.213 NA
ATOM     39  C   LIG    1      -34.742  69.784  26.610  0.00  0.00    +0.125 A 
ATOM     40  C   LIG    1      -34.287  68.426  26.124  0.00  0.00    +0.063 A 
ATOM     41  C   LIG    1      -34.991  67.853  25.145  0.00  0.00    +0.118 A 
ATOM     42  N   LIG    1      -36.066  68.517  24.580  0.00  0.00    -0.221 N 
ATOM     43  N   LIG    1      -36.857  68.066  23.582  0.00  0.00    -0.173 NA
ATOM     44  C   LIG    1      -37.715  69.062  23.379  0.00  0.00    +0.145 A 
BRANCH  39  45
ATOM     45  N   LIG    1      -34.036  70.374  27.654  0.00  0.00    -0.315 N 
ATOM     46  C   LIG    1      -34.359  69.988  28.995  0.00  0.00    +0.108 C 
ATOM     47  C   LIG    1      -34.112  71.433  29.413  0.00  0.00    +0.038 C 
ATOM     48  C   LIG    1      -34.240  71.772  27.926  0.00  0.00    +0.108 C 
ENDBRANCH  39  45
ENDBRANCH  33  36
ENDBRANCH  29  30
ENDBRANCH   4  29
TORSDOF 10
ENDMDL
MODEL 7
REMARK VINA RESULT:      -7.1      3.802     12.761
REMARK  Name = pdb/CHEMBL3938428.pdb
REMARK                            x       y       z     vdW  Elec       q    Type
REMARK                         _______ _______ _______ _____ _____    ______ ____
ROOT
ATOM      1  C   LIG    1      -28.714  75.379  32.334  0.00  0.00    +0.105 A 
ATOM      2  C   LIG    1      -27.426  74.935  32.103  0.00  0.00    +0.145 A 
ATOM      3  N   LIG    1      -26.422  75.714  31.637  0.00  0.00    -0.201 NA
ATOM      4  C   LIG    1      -26.737  76.999  31.371  0.00  0.00    +0.323 A 
ATOM      5  N   LIG    1      -27.939  77.552  31.569  0.00  0.00    -0.201 NA
ATOM      6  C   LIG    1      -28.884  76.729  32.076  0.00  0.00    +0.145 A 
ENDROOT
BRANCH   1   8
ATOM      7  C   LIG    1      -30.458  73.768  32.196  0.00  0.00    +0.285 C 
ATOM      8  N   LIG    1      -29.677  74.535  32.898  0.00  0.00    -0.196 NA
BRANCH   7   9
ATOM      9  N   LIG    1      -30.485  73.473  30.866  0.00  0.00    -0.269 N 
ATOM     10  H   LIG    1      -29.617  73.170  30.439  0.00  0.00    +0.157 HD
BRANCH   9  12
ATOM     11  C   LIG    1      -32.390  72.777  29.435  0.00  0.00    +0.021 A 
ATOM     12  C   LIG    1      -31.498  73.777  29.917  0.00  0.00    +0.045 A 
ATOM     13  C   LIG    1      -31.690  75.126  29.525  0.00  0.00    +0.036 A 
ATOM     14  C   LIG    1      -32.754  75.523  28.703  0.00  0.00    +0.057 A 
ATOM     15  C   LIG    1      -33.654  74.548  28.283  0.00  0.00    +0.013 A 
ATOM     16  C   LIG    1      -33.477  73.212  28.653  0.00  0.00    +0.012 A 
BRANCH  11  19
ATOM     17  C   LIG    1      -33.990  71.097  31.673  0.00  0.00    +0.173 C 
ATOM     18  N   LIG    1      -32.966  70.638  30.762  0.00  0.00    -0.267 N 
ATOM     19  C   LIG    1      -32.263  71.332  29.779  0.00  0.00    +0.070 A 
ATOM     20  C   LIG    1      -31.426  70.360  29.241  0.00  0.00    +0.049 A 
ATOM     21  C   LIG    1      -31.702  69.167  29.922  0.00  0.00    +0.135 A 
ATOM     22  N   LIG    1      -32.629  69.335  30.855  0.00  0.00    -0.179 NA
ENDBRANCH  11  19
BRANCH  14  23
ATOM     23  C   LIG    1      -32.942  76.974  28.326  0.00  0.00    +0.417 C 
ATOM     24  F   LIG    1      -33.783  77.633  29.168  0.00  0.00    -0.166 F 
ATOM     25  F   LIG    1      -33.464  77.117  27.077  0.00  0.00    -0.166 F 
ATOM     26  F   LIG    1      -31.781  77.685  28.326  0.00  0.00    -0.166 F 
ENDBRANCH  14  23
ENDBRANCH   9  12
ENDBRANCH   7   9
BRANCH   7  27
ATOM     27  O   LIG    1      -31.357  73.074  32.917  0.00  0.00    -0.481 OA
ATOM     28  H   LIG    1      -32.223  73.097  32.483  0.00  0.00    +0.295 HD
ENDBRANCH   7  27
ENDBRANCH   1   8
BRANCH   4  29
ATOM     29  O   LIG    1      -25.761  77.868  30.902  0.00  0.00    -0.424 OA
BRANCH  29  30
ATOM     30  C   LIG    1      -24.540  77.842  31.530  0.00  0.00    +0.132 A 
ATOM     31  C   LIG    1      -23.452  77.371  30.800  0.00  0.00    +0.047 A 
ATOM     32  C   LIG    1      -22.180  77.353  31.383  0.00  0.00    +0.012 A 
ATOM     33  C   LIG    1      -21.974  77.794  32.698  0.00  0.00    -0.013 A 
ATOM     34  C   LIG    1      -23.092  78.218  33.430  0.00  0.00    +0.012 A 
ATOM     35  C   LIG    1      -24.364  78.215  32.861  0.00  0.00    +0.047 A 
BRANCH  33  36
ATOM     36  C   LIG    1      -20.651  77.839  33.315  0.00  0.00    +0.046 A 
ATOM     37  C   LIG    1      -20.263  78.597  34.412  0.00  0.00    +0.165 A 
ATOM     38  N   LIG    1      -20.928  79.487  35.219  0.00  0.00    -0.213 NA
ATOM     39  C   LIG    1      -20.277  80.067  36.204  0.00  0.00    +0.125 A 
ATOM     40  C   LIG    1      -18.807  79.803  36.436  0.00  0.00    +0.063 A 
ATOM     41  C   LIG    1      -18.207  78.910  35.645  0.00  0.00    +0.118 A 
ATOM     42  N   LIG    1      -18.915  78.295  34.627  0.00  0.00    -0.221 N 
ATOM     43  N   LIG    1      -18.439  77.385  33.749  0.00  0.00    -0.173 NA
ATOM     44  C   LIG    1      -19.481  77.122  32.965  0.00  0.00    +0.145 A 
BRANCH  39  45
ATOM     45  N   LIG    1      -20.919  80.970  37.046  0.00  0.00    -0.315 N 
ATOM     46  C   LIG    1      -21.870  81.875  36.472  0.00  0.00    +0.108 C 
ATOM     47  C   LIG    1      -21.376  82.932  37.453  0.00  0.00    +0.038 C 
ATOM     48  C   LIG    1      -20.150  82.033  37.638  0.00  0.00    +0.108 C 
ENDBRANCH  39  45
ENDBRANCH  33  36
ENDBRANCH  29  30
ENDBRANCH   4  29
TORSDOF 10
ENDMDL
MODEL 8
REMARK VINA RESULT:      -7.1     12.101     16.470
REMARK  Name = pdb/CHEMBL3938428.pdb
REMARK                            x       y       z     vdW  Elec       q    Type
REMARK                         _______ _______ _______ _____ _____    ______ ____
ROOT
ATOM      1  C   LIG    1      -36.340  74.690  28.067  0.00  0.00    +0.105 A 
ATOM      2  C   LIG    1      -35.027  74.271  27.963  0.00  0.00    +0.145 A 
ATOM      3  N   LIG    1      -34.615  72.996  28.160  0.00  0.00    -0.201 NA
ATOM      4  C   LIG    1      -35.569  72.105  28.497  0.00  0.00    +0.323 A 
ATOM      5  N   LIG    1      -36.873  72.381  28.611  0.00  0.00    -0.201 NA
ATOM      6  C   LIG    1      -37.222  73.663  28.360  0.00  0.00    +0.145 A 
ENDROOT
BRANCH   1   8
ATOM      7  C   LIG    1      -36.979  76.418  26.563  0.00  0.00    +0.285 C 
ATOM      8  N   LIG    1      -36.702  76.007  27.766  0.00  0.00    -0.196 NA
BRANCH   7   9
ATOM      9  N   LIG    1      -37.125  75.748  25.386  0.00  0.00    -0.269 N 
ATOM     10  H   LIG    1      -36.537  76.033  24.613  0.00  0.00    +0.157 HD
BRANCH   9  12
ATOM     11  C   LIG    1      -39.427  75.367  24.537  0.00  0.00    +0.021 A 
ATOM     12  C   LIG    1      -38.173  74.870  24.997  0.00  0.00    +0.045 A 
ATOM     13  C   LIG    1      -37.926  73.474  24.968  0.00  0.00    +0.036 A 
ATOM     14  C   LIG    1      -38.860  72.559  24.465  0.00  0.00    +0.057 A 
ATOM     15  C   LIG    1      -40.059  73.057  23.964  0.00  0.00    +0.013 A 
ATOM     16  C   LIG    1      -40.325  74.429  23.991  0.00  0.00    +0.012 A 
BRANCH  11  19
ATOM     17  C   LIG    1      -40.786  77.092  26.896  0.00  0.00    +0.173 C 
ATOM     18  N   LIG    1      -40.382  77.528  25.577  0.00  0.00    -0.267 N 
ATOM     19  C   LIG    1      -39.785  76.813  24.541  0.00  0.00    +0.070 A 
ATOM     20  C   LIG    1      -39.639  77.769  23.540  0.00  0.00    +0.049 A 
ATOM     21  C   LIG    1      -40.138  78.972  24.054  0.00  0.00    +0.135 A 
ATOM     22  N   LIG    1      -40.601  78.827  25.288  0.00  0.00    -0.179 NA
ENDBRANCH  11  19
BRANCH  14  23
ATOM     23  C   LIG    1      -38.552  71.080  24.426  0.00  0.00    +0.417 C 
ATOM     24  F   LIG    1      -38.938  70.431  25.558  0.00  0.00    -0.166 F 
ATOM     25  F   LIG    1      -37.220  70.837  24.282  0.00  0.00    -0.166 F 
ATOM     26  F   LIG    1      -39.161  70.431  23.396  0.00  0.00    -0.166 F 
ENDBRANCH  14  23
ENDBRANCH   9  12
ENDBRANCH   7   9
BRANCH   7  27
ATOM     27  O   LIG    1      -37.250  77.733  26.470  0.00  0.00    -0.481 OA
ATOM     28  H   LIG    1      -37.941  77.885  25.809  0.00  0.00    +0.295 HD
ENDBRANCH   7  27
ENDBRANCH   1   8
BRANCH   4  29
ATOM     29  O   LIG    1      -35.231  70.774  28.703  0.00  0.00    -0.424 OA
BRANCH  29  30
ATOM     30  C   LIG    1      -35.265  69.939  27.613  0.00  0.00    +0.132 A 
ATOM     31  C   LIG    1      -34.133  69.893  26.804  0.00  0.00    +0.047 A 
ATOM     32  C   LIG    1      -34.105  69.037  25.698  0.00  0.00    +0.012 A 
ATOM     33  C   LIG    1      -35.200  68.221  25.379  0.00  0.00    -0.013 A 
ATOM     34  C   LIG    1      -36.346  68.320  26.180  0.00  0.00    +0.012 A 
ATOM     35  C   LIG    1      -36.388  69.189  27.267  0.00  0.00    +0.047 A 
BRANCH  33  36
ATOM     36  C   LIG    1      -35.179  67.277  24.264  0.00  0.00    +0.046 A 
ATOM     37  C   LIG    1      -35.246  65.891  24.339  0.00  0.00    +0.165 A 
ATOM     38  N   LIG    1      -35.342  65.012  25.390  0.00  0.00    -0.213 NA
ATOM     39  C   LIG    1      -35.383  63.721  25.141  0.00  0.00    +0.125 A 
ATOM     40  C   LIG    1      -35.285  63.190  23.730  0.00  0.00    +0.063 A 
ATOM     41  C   LIG    1      -35.221  64.081  22.737  0.00  0.00    +0.118 A 
ATOM     42  N   LIG    1      -35.200  65.436  23.018  0.00  0.00    -0.221 N 
ATOM     43  N   LIG    1      -35.127  66.444  22.122  0.00  0.00    -0.173 NA
ATOM     44  C   LIG    1      -35.110  67.541  22.875  0.00  0.00    +0.145 A 
BRANCH  39  45
ATOM     45  N   LIG    1      -35.486  62.801  26.180  0.00  0.00    -0.315 N 
ATOM     46  C   LIG    1      -34.572  62.912  27.278  0.00  0.00    +0.108 C 
ATOM     47  C   LIG    1      -34.546  61.389  27.340  0.00  0.00    +0.038 C 
ATOM     48  C   LIG    1      -35.134  61.428  25.927  0.00  0.00    +0.108 C 
ENDBRANCH  39  45
ENDBRANCH  33  36
ENDBRANCH  29  30
ENDBRANCH   4  29
TORSDOF 10
ENDMDL
MODEL 9
REMARK VINA RESULT:      -7.1      9.811     17.231
REMARK  Name = pdb/CHEMBL3938428.pdb
REMARK                            x       y       z     vdW  Elec       q    Type
REMARK                         _______ _______ _______ _____ _____    ______ ____
ROOT
ATOM      1  C   LIG    1      -38.401  68.862  23.430  0.00  0.00    +0.105 A 
ATOM      2  C   LIG    1      -37.040  69.083  23.523  0.00  0.00    +0.145 A 
ATOM      3  N   LIG    1      -36.310  68.882  24.646  0.00  0.00    -0.201 NA
ATOM      4  C   LIG    1      -36.987  68.455  25.731  0.00  0.00    +0.323 A 
ATOM      5  N   LIG    1      -38.298  68.188  25.763  0.00  0.00    -0.201 NA
ATOM      6  C   LIG    1      -38.959  68.370  24.598  0.00  0.00    +0.145 A 
ENDROOT
BRANCH   1   8
ATOM      7  C   LIG    1      -40.199  69.652  22.088  0.00  0.00    +0.285 C 
ATOM      8  N   LIG    1      -39.073  69.012  22.212  0.00  0.00    -0.196 NA
BRANCH   7   9
ATOM      9  N   LIG    1      -40.915  70.407  22.967  0.00  0.00    -0.269 N 
ATOM     10  H   LIG    1      -41.707  69.966  23.420  0.00  0.00    +0.157 HD
BRANCH   9  12
ATOM     11  C   LIG    1      -41.947  72.651  22.720  0.00  0.00    +0.021 A 
ATOM     12  C   LIG    1      -40.878  71.815  23.152  0.00  0.00    +0.045 A 
ATOM     13  C   LIG    1      -39.801  72.385  23.878  0.00  0.00    +0.036 A 
ATOM     14  C   LIG    1      -39.764  73.743  24.221  0.00  0.00    +0.057 A 
ATOM     15  C   LIG    1      -40.840  74.541  23.845  0.00  0.00    +0.013 A 
ATOM     16  C   LIG    1      -41.907  74.000  23.122  0.00  0.00    +0.012 A 
BRANCH  11  19
ATOM     17  C   LIG    1      -44.736  71.468  23.819  0.00  0.00    +0.173 C 
ATOM     18  N   LIG    1      -44.305  71.635  22.449  0.00  0.00    -0.267 N 
ATOM     19  C   LIG    1      -43.114  72.150  21.941  0.00  0.00    +0.070 A 
ATOM     20  C   LIG    1      -43.290  72.054  20.564  0.00  0.00    +0.049 A 
ATOM     21  C   LIG    1      -44.564  71.512  20.355  0.00  0.00    +0.135 A 
ATOM     22  N   LIG    1      -45.180  71.245  21.499  0.00  0.00    -0.179 NA
ENDBRANCH  11  19
BRANCH  14  23
ATOM     23  C   LIG    1      -38.612  74.310  25.018  0.00  0.00    +0.417 C 
ATOM     24  F   LIG    1      -38.217  75.535  24.575  0.00  0.00    -0.166 F 
ATOM     25  F   LIG    1      -37.510  73.512  24.966  0.00  0.00    -0.166 F 
ATOM     26  F   LIG    1      -38.897  74.465  26.340  0.00  0.00    -0.166 F 
ENDBRANCH  14  23
ENDBRANCH   9  12
ENDBRANCH   7   9
BRANCH   7  27
ATOM     27  O   LIG    1      -40.717  69.637  20.846  0.00  0.00    -0.481 OA
ATOM     28  H   LIG    1      -40.265  68.973  20.304  0.00  0.00    +0.295 HD
ENDBRANCH   7  27
ENDBRANCH   1   8
BRANCH   4  29
ATOM     29  O   LIG    1      -36.309  68.212  26.918  0.00  0.00    -0.424 OA
BRANCH  29  30
ATOM     30  C   LIG    1      -35.458  69.191  27.369  0.00  0.00    +0.132 A 
ATOM     31  C   LIG    1      -36.000  70.450  27.614  0.00  0.00    +0.047 A 
ATOM     32  C   LIG    1      -35.182  71.475  28.103  0.00  0.00    +0.012 A 
ATOM     33  C   LIG    1      -33.817  71.264  28.349  0.00  0.00    -0.013 A 
ATOM     34  C   LIG    1      -33.284  70.003  28.049  0.00  0.00    +0.012 A 
ATOM     35  C   LIG    1      -34.090  68.988  27.539  0.00  0.00    +0.047 A 
BRANCH  33  36
ATOM     36  C   LIG    1      -32.951  72.297  28.911  0.00  0.00    +0.046 A 
ATOM     37  C   LIG    1      -33.059  73.670  28.732  0.00  0.00    +0.165 A 
ATOM     38  N   LIG    1      -33.936  74.458  28.027  0.00  0.00    -0.213 NA
ATOM     39  C   LIG    1      -33.778  75.763  28.044  0.00  0.00    +0.125 A 
ATOM     40  C   LIG    1      -32.631  76.406  28.789  0.00  0.00    +0.063 A 
ATOM     41  C   LIG    1      -31.820  75.605  29.484  0.00  0.00    +0.118 A 
ATOM     42  N   LIG    1      -32.015  74.234  29.470  0.00  0.00    -0.221 N 
ATOM     43  N   LIG    1      -31.272  73.307  30.113  0.00  0.00    -0.173 NA
ATOM     44  C   LIG    1      -31.834  72.152  29.770  0.00  0.00    +0.145 A 
BRANCH  39  45
ATOM     45  N   LIG    1      -34.650  76.594  27.346  0.00  0.00    -0.315 N 
ATOM     46  C   LIG    1      -35.240  77.698  28.043  0.00  0.00    +0.108 C 
ATOM     47  C   LIG    1      -36.515  77.451  27.245  0.00  0.00    +0.038 C 
ATOM     48  C   LIG    1      -35.927  76.071  26.936  0.00  0.00    +0.108 C 
ENDBRANCH  39  45
ENDBRANCH  33  36
ENDBRANCH  29  30
ENDBRANCH   4  29
TORSDOF 10
ENDMDL
