MODEL 1
REMARK VINA RESULT:      -7.5      0.000      0.000
REMARK  Name = pdb/CHEMBL365585.pdb
REMARK                            x       y       z     vdW  Elec       q    Type
REMARK                         _______ _______ _______ _____ _____    ______ ____
ROOT
ATOM      1  N   LIG    1      -20.679  78.631  34.539  0.00  0.00    -0.311 N 
ATOM      2  C   LIG    1      -21.505  78.192  33.528  0.00  0.00    +0.077 A 
ATOM      3  C   LIG    1      -22.860  77.933  33.426  0.00  0.00    +0.072 A 
ATOM      4  N   LIG    1      -23.883  77.969  34.329  0.00  0.00    -0.352 N 
ATOM      5  H   LIG    1      -23.773  78.223  35.301  0.00  0.00    +0.166 HD
ATOM      6  C   LIG    1      -25.082  77.617  33.720  0.00  0.00    +0.048 A 
ATOM      7  C   LIG    1      -26.370  77.552  34.266  0.00  0.00    +0.026 A 
ATOM      8  C   LIG    1      -27.412  77.150  33.428  0.00  0.00    +0.002 A 
ATOM      9  C   LIG    1      -27.176  76.820  32.095  0.00  0.00    +0.001 A 
ATOM     10  C   LIG    1      -25.884  76.886  31.556  0.00  0.00    +0.010 A 
ATOM     11  C   LIG    1      -24.813  77.295  32.376  0.00  0.00    +0.008 A 
ATOM     12  C   LIG    1      -23.441  77.502  32.278  0.00  0.00    +0.015 A 
ATOM     13  C   LIG    1      -22.635  77.290  31.144  0.00  0.00    -0.008 A 
ATOM     14  C   LIG    1      -23.034  76.798  29.820  0.00  0.00    +0.141 C 
ATOM     15  N   LIG    1      -21.745  76.781  29.168  0.00  0.00    -0.307 N 
ATOM     16  H   LIG    1      -21.590  76.489  28.214  0.00  0.00    +0.149 HD
ATOM     17  C   LIG    1      -20.663  77.197  29.936  0.00  0.00    +0.245 C 
ATOM     18  O   LIG    1      -19.534  77.219  29.463  0.00  0.00    -0.270 OA
ATOM     19  C   LIG    1      -21.234  77.523  31.219  0.00  0.00    +0.052 A 
ATOM     20  C   LIG    1      -20.688  77.985  32.451  0.00  0.00    +0.022 A 
ATOM     21  C   LIG    1      -19.339  78.182  32.730  0.00  0.00    +0.008 A 
ATOM     22  C   LIG    1      -18.098  78.099  32.064  0.00  0.00    +0.010 A 
ATOM     23  C   LIG    1      -16.906  78.336  32.756  0.00  0.00    +0.001 A 
ATOM     24  C   LIG    1      -16.923  78.640  34.108  0.00  0.00    +0.002 A 
ATOM     25  C   LIG    1      -18.132  78.737  34.798  0.00  0.00    +0.026 A 
ATOM     26  C   LIG    1      -19.339  78.530  34.097  0.00  0.00    +0.052 A 
ENDROOT
BRANCH   1  31
ATOM     27  C   LIG    1      -23.579  81.660  36.208  0.00  0.00    +0.044 C 
ATOM     28  C   LIG    1      -22.386  80.846  36.716  0.00  0.00    +0.097 C 
ATOM     29  C   LIG    1      -21.010  81.468  36.405  0.00  0.00    +0.121 C 
ATOM     30  C   LIG    1      -20.099  80.256  36.375  0.00  0.00    +0.094 C 
ATOM     31  C   LIG    1      -21.003  79.116  35.889  0.00  0.00    +0.223 C 
ATOM     32  O   LIG    1      -22.366  79.591  35.986  0.00  0.00    -0.348 OA
ATOM     33  C   LIG    1      -22.610  80.497  38.195  0.00  0.00    +0.044 C 
BRANCH  29  34
ATOM     34  O   LIG    1      -21.000  82.070  35.095  0.00  0.00    -0.383 OA
ATOM     35  H   LIG    1      -21.000  81.362  34.422  0.00  0.00    +0.210 HD
ENDBRANCH  29  34
BRANCH  29  36
ATOM     36  C   LIG    1      -20.510  82.539  37.380  0.00  0.00    +0.193 C 
BRANCH  36  37
ATOM     37  O   LIG    1      -20.625  83.835  36.799  0.00  0.00    -0.392 OA
ATOM     38  H   LIG    1      -19.926  84.368  37.226  0.00  0.00    +0.210 HD
ENDBRANCH  36  37
ENDBRANCH  29  36
ENDBRANCH   1  31
TORSDOF 4
ENDMDL
MODEL 2
REMARK VINA RESULT:      -7.2      2.463      6.239
REMARK  Name = pdb/CHEMBL365585.pdb
REMARK                            x       y       z     vdW  Elec       q    Type
REMARK                         _______ _______ _______ _____ _____    ______ ____
ROOT
ATOM      1  N   LIG    1      -23.462  77.689  32.082  0.00  0.00    -0.311 N 
ATOM      2  C   LIG    1      -22.948  78.287  33.212  0.00  0.00    +0.077 A 
ATOM      3  C   LIG    1      -23.501  78.897  34.324  0.00  0.00    +0.072 A 
ATOM      4  N   LIG    1      -24.786  79.181  34.684  0.00  0.00    -0.352 N 
ATOM      5  H   LIG    1      -25.596  78.952  34.124  0.00  0.00    +0.166 HD
ATOM      6  C   LIG    1      -24.815  79.814  35.921  0.00  0.00    +0.048 A 
ATOM      7  C   LIG    1      -25.916  80.250  36.669  0.00  0.00    +0.026 A 
ATOM      8  C   LIG    1      -25.664  80.879  37.891  0.00  0.00    +0.002 A 
ATOM      9  C   LIG    1      -24.361  81.070  38.345  0.00  0.00    +0.001 A 
ATOM     10  C   LIG    1      -23.265  80.632  37.589  0.00  0.00    +0.010 A 
ATOM     11  C   LIG    1      -23.488  79.988  36.357  0.00  0.00    +0.008 A 
ATOM     12  C   LIG    1      -22.749  79.414  35.327  0.00  0.00    +0.015 A 
ATOM     13  C   LIG    1      -21.346  79.348  35.232  0.00  0.00    -0.008 A 
ATOM     14  C   LIG    1      -20.342  79.867  36.169  0.00  0.00    +0.141 C 
ATOM     15  N   LIG    1      -19.137  79.504  35.460  0.00  0.00    -0.307 N 
ATOM     16  H   LIG    1      -18.201  79.699  35.785  0.00  0.00    +0.149 HD
ATOM     17  C   LIG    1      -19.312  78.849  34.246  0.00  0.00    +0.245 C 
ATOM     18  O   LIG    1      -18.346  78.500  33.580  0.00  0.00    -0.270 OA
ATOM     19  C   LIG    1      -20.742  78.749  34.092  0.00  0.00    +0.052 A 
ATOM     20  C   LIG    1      -21.589  78.215  33.078  0.00  0.00    +0.022 A 
ATOM     21  C   LIG    1      -21.176  77.674  31.864  0.00  0.00    +0.008 A 
ATOM     22  C   LIG    1      -19.972  77.388  31.188  0.00  0.00    +0.010 A 
ATOM     23  C   LIG    1      -19.995  76.872  29.888  0.00  0.00    +0.001 A 
ATOM     24  C   LIG    1      -21.199  76.646  29.239  0.00  0.00    +0.002 A 
ATOM     25  C   LIG    1      -22.410  76.912  29.879  0.00  0.00    +0.026 A 
ATOM     26  C   LIG    1      -22.392  77.404  31.201  0.00  0.00    +0.052 A 
ENDROOT
BRANCH   1  31
ATOM     27  C   LIG    1      -27.177  76.628  34.415  0.00  0.00    +0.044 C 
ATOM     28  C   LIG    1      -26.729  76.626  32.950  0.00  0.00    +0.097 C 
ATOM     29  C   LIG    1      -25.930  75.377  32.529  0.00  0.00    +0.121 C 
ATOM     30  C   LIG    1      -25.087  75.896  31.380  0.00  0.00    +0.094 C 
ATOM     31  C   LIG    1      -24.852  77.373  31.723  0.00  0.00    +0.223 C 
ATOM     32  O   LIG    1      -25.780  77.712  32.779  0.00  0.00    -0.348 OA
ATOM     33  C   LIG    1      -27.937  76.945  32.057  0.00  0.00    +0.044 C 
BRANCH  29  34
ATOM     34  O   LIG    1      -25.042  74.952  33.583  0.00  0.00    -0.383 OA
ATOM     35  H   LIG    1      -24.297  75.581  33.639  0.00  0.00    +0.210 HD
ENDBRANCH  29  34
BRANCH  29  36
ATOM     36  C   LIG    1      -26.751  74.146  32.129  0.00  0.00    +0.193 C 
BRANCH  36  37
ATOM     37  O   LIG    1      -26.110  73.444  31.067  0.00  0.00    -0.392 OA
ATOM     38  H   LIG    1      -26.569  72.582  31.018  0.00  0.00    +0.210 HD
ENDBRANCH  36  37
ENDBRANCH  29  36
ENDBRANCH   1  31
TORSDOF 4
ENDMDL
MODEL 3
REMARK VINA RESULT:      -7.1     19.424     24.255
REMARK  Name = pdb/CHEMBL365585.pdb
REMARK                            x       y       z     vdW  Elec       q    Type
REMARK                         _______ _______ _______ _____ _____    ______ ____
ROOT
ATOM      1  N   LIG    1      -42.095  71.760  22.831  0.00  0.00    -0.311 N 
ATOM      2  C   LIG    1      -41.459  72.887  23.304  0.00  0.00    +0.077 A 
ATOM      3  C   LIG    1      -41.776  74.233  23.352  0.00  0.00    +0.072 A 
ATOM      4  N   LIG    1      -42.838  74.953  22.890  0.00  0.00    -0.352 N 
ATOM      5  H   LIG    1      -43.626  74.552  22.398  0.00  0.00    +0.166 HD
ATOM      6  C   LIG    1      -42.684  76.300  23.197  0.00  0.00    +0.048 A 
ATOM      7  C   LIG    1      -43.543  77.374  22.937  0.00  0.00    +0.026 A 
ATOM      8  C   LIG    1      -43.136  78.646  23.346  0.00  0.00    +0.002 A 
ATOM      9  C   LIG    1      -41.914  78.838  23.986  0.00  0.00    +0.001 A 
ATOM     10  C   LIG    1      -41.059  77.757  24.242  0.00  0.00    +0.010 A 
ATOM     11  C   LIG    1      -41.446  76.462  23.847  0.00  0.00    +0.008 A 
ATOM     12  C   LIG    1      -40.951  75.162  23.895  0.00  0.00    +0.015 A 
ATOM     13  C   LIG    1      -39.709  74.752  24.415  0.00  0.00    -0.008 A 
ATOM     14  C   LIG    1      -38.651  75.576  25.010  0.00  0.00    +0.141 C 
ATOM     15  N   LIG    1      -37.669  74.553  25.284  0.00  0.00    -0.307 N 
ATOM     16  H   LIG    1      -36.767  74.722  25.703  0.00  0.00    +0.149 HD
ATOM     17  C   LIG    1      -38.019  73.255  24.927  0.00  0.00    +0.245 C 
ATOM     18  O   LIG    1      -37.250  72.324  25.127  0.00  0.00    -0.270 OA
ATOM     19  C   LIG    1      -39.339  73.379  24.360  0.00  0.00    +0.052 A 
ATOM     20  C   LIG    1      -40.256  72.452  23.787  0.00  0.00    +0.022 A 
ATOM     21  C   LIG    1      -40.028  71.096  23.574  0.00  0.00    +0.008 A 
ATOM     22  C   LIG    1      -39.016  70.142  23.814  0.00  0.00    +0.010 A 
ATOM     23  C   LIG    1      -39.163  68.825  23.367  0.00  0.00    +0.001 A 
ATOM     24  C   LIG    1      -40.296  68.440  22.668  0.00  0.00    +0.002 A 
ATOM     25  C   LIG    1      -41.321  69.354  22.417  0.00  0.00    +0.026 A 
ATOM     26  C   LIG    1      -41.190  70.676  22.893  0.00  0.00    +0.052 A 
ENDROOT
BRANCH   1  31
ATOM     27  C   LIG    1      -44.260  68.451  20.656  0.00  0.00    +0.044 C 
ATOM     28  C   LIG    1      -44.504  69.925  20.990  0.00  0.00    +0.097 C 
ATOM     29  C   LIG    1      -43.836  70.919  20.020  0.00  0.00    +0.121 C 
ATOM     30  C   LIG    1      -43.648  72.150  20.885  0.00  0.00    +0.094 C 
ATOM     31  C   LIG    1      -43.457  71.590  22.301  0.00  0.00    +0.223 C 
ATOM     32  O   LIG    1      -43.857  70.201  22.261  0.00  0.00    -0.348 OA
ATOM     33  C   LIG    1      -46.009  70.149  21.198  0.00  0.00    +0.044 C 
BRANCH  29  34
ATOM     34  O   LIG    1      -42.533  70.450  19.617  0.00  0.00    -0.383 OA
ATOM     35  H   LIG    1      -42.638  69.823  18.876  0.00  0.00    +0.210 HD
ENDBRANCH  29  34
BRANCH  29  36
ATOM     36  C   LIG    1      -44.603  71.234  18.731  0.00  0.00    +0.193 C 
BRANCH  36  37
ATOM     37  O   LIG    1      -43.861  70.805  17.592  0.00  0.00    -0.392 OA
ATOM     38  H   LIG    1      -43.752  71.607  17.043  0.00  0.00    +0.210 HD
ENDBRANCH  36  37
ENDBRANCH  29  36
ENDBRANCH   1  31
TORSDOF 4
ENDMDL
MODEL 4
REMARK VINA RESULT:      -7.1     15.317     20.123
REMARK  Name = pdb/CHEMBL365585.pdb
REMARK                            x       y       z     vdW  Elec       q    Type
REMARK                         _______ _______ _______ _____ _____    ______ ____
ROOT
ATOM      1  N   LIG    1      -39.198  71.887  25.164  0.00  0.00    -0.311 N 
ATOM      2  C   LIG    1      -38.797  73.194  25.336  0.00  0.00    +0.077 A 
ATOM      3  C   LIG    1      -37.830  73.820  26.102  0.00  0.00    +0.072 A 
ATOM      4  N   LIG    1      -36.938  73.362  27.027  0.00  0.00    -0.352 N 
ATOM      5  H   LIG    1      -36.854  72.392  27.303  0.00  0.00    +0.166 HD
ATOM      6  C   LIG    1      -36.168  74.408  27.521  0.00  0.00    +0.048 A 
ATOM      7  C   LIG    1      -35.126  74.379  28.456  0.00  0.00    +0.026 A 
ATOM      8  C   LIG    1      -34.521  75.592  28.793  0.00  0.00    +0.002 A 
ATOM      9  C   LIG    1      -34.944  76.790  28.220  0.00  0.00    +0.001 A 
ATOM     10  C   LIG    1      -35.989  76.810  27.286  0.00  0.00    +0.010 A 
ATOM     11  C   LIG    1      -36.614  75.601  26.922  0.00  0.00    +0.008 A 
ATOM     12  C   LIG    1      -37.631  75.162  26.080  0.00  0.00    +0.015 A 
ATOM     13  C   LIG    1      -38.451  75.960  25.261  0.00  0.00    -0.008 A 
ATOM     14  C   LIG    1      -38.442  77.419  25.105  0.00  0.00    +0.141 C 
ATOM     15  N   LIG    1      -39.534  77.572  24.172  0.00  0.00    -0.307 N 
ATOM     16  H   LIG    1      -39.858  78.456  23.809  0.00  0.00    +0.149 HD
ATOM     17  C   LIG    1      -40.168  76.400  23.771  0.00  0.00    +0.245 C 
ATOM     18  O   LIG    1      -41.100  76.434  22.979  0.00  0.00    -0.270 OA
ATOM     19  C   LIG    1      -39.472  75.353  24.477  0.00  0.00    +0.052 A 
ATOM     20  C   LIG    1      -39.622  73.938  24.537  0.00  0.00    +0.022 A 
ATOM     21  C   LIG    1      -40.613  73.189  23.910  0.00  0.00    +0.008 A 
ATOM     22  C   LIG    1      -41.704  73.396  23.040  0.00  0.00    +0.010 A 
ATOM     23  C   LIG    1      -42.531  72.328  22.675  0.00  0.00    +0.001 A 
ATOM     24  C   LIG    1      -42.302  71.056  23.173  0.00  0.00    +0.002 A 
ATOM     25  C   LIG    1      -41.228  70.812  24.032  0.00  0.00    +0.026 A 
ATOM     26  C   LIG    1      -40.373  71.880  24.378  0.00  0.00    +0.052 A 
ENDROOT
BRANCH   1  31
ATOM     27  C   LIG    1      -35.697  70.887  27.830  0.00  0.00    +0.044 C 
ATOM     28  C   LIG    1      -36.660  70.134  26.909  0.00  0.00    +0.097 C 
ATOM     29  C   LIG    1      -36.268  70.158  25.419  0.00  0.00    +0.121 C 
ATOM     30  C   LIG    1      -37.605  69.986  24.723  0.00  0.00    +0.094 C 
ATOM     31  C   LIG    1      -38.614  70.639  25.677  0.00  0.00    +0.223 C 
ATOM     32  O   LIG    1      -37.933  70.832  26.938  0.00  0.00    -0.348 OA
ATOM     33  C   LIG    1      -36.909  68.731  27.483  0.00  0.00    +0.044 C 
BRANCH  29  34
ATOM     34  O   LIG    1      -35.730  71.442  25.047  0.00  0.00    -0.383 OA
ATOM     35  H   LIG    1      -36.199  72.138  25.547  0.00  0.00    +0.210 HD
ENDBRANCH  29  34
BRANCH  29  36
ATOM     36  C   LIG    1      -35.246  69.109  24.966  0.00  0.00    +0.193 C 
BRANCH  36  37
ATOM     37  O   LIG    1      -33.924  69.632  25.057  0.00  0.00    -0.392 OA
ATOM     38  H   LIG    1      -33.456  69.280  24.273  0.00  0.00    +0.210 HD
ENDBRANCH  36  37
ENDBRANCH  29  36
ENDBRANCH   1  31
TORSDOF 4
ENDMDL
MODEL 5
REMARK VINA RESULT:      -6.9     14.122     18.490
REMARK  Name = pdb/CHEMBL365585.pdb
REMARK                            x       y       z     vdW  Elec       q    Type
REMARK                         _______ _______ _______ _____ _____    ______ ____
ROOT
ATOM      1  N   LIG    1      -36.154  71.592  27.201  0.00  0.00    -0.311 N 
ATOM      2  C   LIG    1      -36.773  72.754  26.796  0.00  0.00    +0.077 A 
ATOM      3  C   LIG    1      -37.857  73.045  25.988  0.00  0.00    +0.072 A 
ATOM      4  N   LIG    1      -38.692  72.268  25.240  0.00  0.00    -0.352 N 
ATOM      5  H   LIG    1      -38.624  71.261  25.173  0.00  0.00    +0.166 HD
ATOM      6  C   LIG    1      -39.643  73.053  24.598  0.00  0.00    +0.048 A 
ATOM      7  C   LIG    1      -40.698  72.665  23.763  0.00  0.00    +0.026 A 
ATOM      8  C   LIG    1      -41.509  73.670  23.230  0.00  0.00    +0.002 A 
ATOM      9  C   LIG    1      -41.271  75.013  23.517  0.00  0.00    +0.001 A 
ATOM     10  C   LIG    1      -40.211  75.393  24.352  0.00  0.00    +0.010 A 
ATOM     11  C   LIG    1      -39.381  74.401  24.910  0.00  0.00    +0.008 A 
ATOM     12  C   LIG    1      -38.276  74.313  25.750  0.00  0.00    +0.015 A 
ATOM     13  C   LIG    1      -37.571  75.385  26.331  0.00  0.00    -0.008 A 
ATOM     14  C   LIG    1      -37.817  76.824  26.186  0.00  0.00    +0.141 C 
ATOM     15  N   LIG    1      -36.733  77.338  26.990  0.00  0.00    -0.307 N 
ATOM     16  H   LIG    1      -36.549  78.319  27.143  0.00  0.00    +0.149 HD
ATOM     17  C   LIG    1      -35.900  76.391  27.576  0.00  0.00    +0.245 C 
ATOM     18  O   LIG    1      -34.959  76.738  28.278  0.00  0.00    -0.270 OA
ATOM     19  C   LIG    1      -36.437  75.124  27.148  0.00  0.00    +0.052 A 
ATOM     20  C   LIG    1      -36.055  73.769  27.367  0.00  0.00    +0.022 A 
ATOM     21  C   LIG    1      -34.931  73.333  28.062  0.00  0.00    +0.008 A 
ATOM     22  C   LIG    1      -33.860  73.886  28.794  0.00  0.00    +0.010 A 
ATOM     23  C   LIG    1      -32.854  73.063  29.310  0.00  0.00    +0.001 A 
ATOM     24  C   LIG    1      -32.886  71.693  29.098  0.00  0.00    +0.002 A 
ATOM     25  C   LIG    1      -33.933  71.109  28.384  0.00  0.00    +0.026 A 
ATOM     26  C   LIG    1      -34.966  71.933  27.888  0.00  0.00    +0.052 A 
ENDROOT
BRANCH   1  31
ATOM     27  C   LIG    1      -33.987  67.640  27.436  0.00  0.00    +0.044 C 
ATOM     28  C   LIG    1      -35.337  68.154  26.929  0.00  0.00    +0.097 C 
ATOM     29  C   LIG    1      -35.298  68.755  25.510  0.00  0.00    +0.121 C 
ATOM     30  C   LIG    1      -36.461  69.729  25.532  0.00  0.00    +0.094 C 
ATOM     31  C   LIG    1      -36.540  70.188  26.995  0.00  0.00    +0.223 C 
ATOM     32  O   LIG    1      -35.722  69.277  27.765  0.00  0.00    -0.348 OA
ATOM     33  C   LIG    1      -36.398  67.062  27.132  0.00  0.00    +0.044 C 
BRANCH  29  34
ATOM     34  O   LIG    1      -34.086  69.507  25.300  0.00  0.00    -0.383 OA
ATOM     35  H   LIG    1      -33.342  69.027  25.712  0.00  0.00    +0.210 HD
ENDBRANCH  29  34
BRANCH  29  36
ATOM     36  C   LIG    1      -35.403  67.763  24.346  0.00  0.00    +0.193 C 
BRANCH  36  37
ATOM     37  O   LIG    1      -34.764  68.288  23.186  0.00  0.00    -0.392 OA
ATOM     38  H   LIG    1      -35.457  68.802  22.724  0.00  0.00    +0.210 HD
ENDBRANCH  36  37
ENDBRANCH  29  36
ENDBRANCH   1  31
TORSDOF 4
ENDMDL
MODEL 6
REMARK VINA RESULT:      -6.9     19.578     24.324
REMARK  Name = pdb/CHEMBL365585.pdb
REMARK                            x       y       z     vdW  Elec       q    Type
REMARK                         _______ _______ _______ _____ _____    ______ ____
ROOT
ATOM      1  N   LIG    1      -42.291  72.846  22.946  0.00  0.00    -0.311 N 
ATOM      2  C   LIG    1      -41.927  74.128  23.295  0.00  0.00    +0.077 A 
ATOM      3  C   LIG    1      -42.516  75.373  23.167  0.00  0.00    +0.072 A 
ATOM      4  N   LIG    1      -43.676  75.796  22.585  0.00  0.00    -0.352 N 
ATOM      5  H   LIG    1      -44.335  75.184  22.122  0.00  0.00    +0.166 HD
ATOM      6  C   LIG    1      -43.819  77.171  22.729  0.00  0.00    +0.048 A 
ATOM      7  C   LIG    1      -44.864  78.003  22.310  0.00  0.00    +0.026 A 
ATOM      8  C   LIG    1      -44.750  79.371  22.571  0.00  0.00    +0.002 A 
ATOM      9  C   LIG    1      -43.632  79.888  23.221  0.00  0.00    +0.001 A 
ATOM     10  C   LIG    1      -42.589  79.048  23.635  0.00  0.00    +0.010 A 
ATOM     11  C   LIG    1      -42.679  77.663  23.392  0.00  0.00    +0.008 A 
ATOM     12  C   LIG    1      -41.931  76.511  23.616  0.00  0.00    +0.015 A 
ATOM     13  C   LIG    1      -40.663  76.434  24.221  0.00  0.00    -0.008 A 
ATOM     14  C   LIG    1      -39.833  77.526  24.743  0.00  0.00    +0.141 C 
ATOM     15  N   LIG    1      -38.679  76.770  25.172  0.00  0.00    -0.307 N 
ATOM     16  H   LIG    1      -37.855  77.173  25.595  0.00  0.00    +0.149 HD
ATOM     17  C   LIG    1      -38.734  75.395  24.968  0.00  0.00    +0.245 C 
ATOM     18  O   LIG    1      -37.803  74.677  25.306  0.00  0.00    -0.270 OA
ATOM     19  C   LIG    1      -40.017  75.173  24.349  0.00  0.00    +0.052 A 
ATOM     20  C   LIG    1      -40.689  74.014  23.866  0.00  0.00    +0.022 A 
ATOM     21  C   LIG    1      -40.176  72.721  23.830  0.00  0.00    +0.008 A 
ATOM     22  C   LIG    1      -39.006  72.036  24.219  0.00  0.00    +0.010 A 
ATOM     23  C   LIG    1      -38.854  70.675  23.933  0.00  0.00    +0.001 A 
ATOM     24  C   LIG    1      -39.842  69.982  23.253  0.00  0.00    +0.002 A 
ATOM     25  C   LIG    1      -41.016  70.625  22.858  0.00  0.00    +0.026 A 
ATOM     26  C   LIG    1      -41.187  71.991  23.170  0.00  0.00    +0.052 A 
ENDROOT
BRANCH   1  31
ATOM     27  C   LIG    1      -43.549  69.009  20.930  0.00  0.00    +0.044 C 
ATOM     28  C   LIG    1      -44.141  70.401  21.169  0.00  0.00    +0.097 C 
ATOM     29  C   LIG    1      -43.688  71.469  20.154  0.00  0.00    +0.121 C 
ATOM     30  C   LIG    1      -43.823  72.755  20.947  0.00  0.00    +0.094 C 
ATOM     31  C   LIG    1      -43.556  72.333  22.399  0.00  0.00    +0.223 C 
ATOM     32  O   LIG    1      -43.621  70.889  22.434  0.00  0.00    -0.348 OA
ATOM     33  C   LIG    1      -45.663  70.277  21.331  0.00  0.00    +0.044 C 
BRANCH  29  34
ATOM     34  O   LIG    1      -42.299  71.298  19.809  0.00  0.00    -0.383 OA
ATOM     35  H   LIG    1      -42.083  71.895  19.067  0.00  0.00    +0.210 HD
ENDBRANCH  29  34
BRANCH  29  36
ATOM     36  C   LIG    1      -44.463  71.526  18.833  0.00  0.00    +0.193 C 
BRANCH  36  37
ATOM     37  O   LIG    1      -43.761  70.819  17.814  0.00  0.00    -0.392 OA
ATOM     38  H   LIG    1      -42.860  70.687  18.171  0.00  0.00    +0.210 HD
ENDBRANCH  36  37
ENDBRANCH  29  36
ENDBRANCH   1  31
TORSDOF 4
ENDMDL
MODEL 7
REMARK VINA RESULT:      -6.9     15.692     20.194
REMARK  Name = pdb/CHEMBL365585.pdb
REMARK                            x       y       z     vdW  Elec       q    Type
REMARK                         _______ _______ _______ _____ _____    ______ ____
ROOT
ATOM      1  N   LIG    1      -38.857  76.621  25.114  0.00  0.00    -0.311 N 
ATOM      2  C   LIG    1      -39.376  75.423  24.672  0.00  0.00    +0.077 A 
ATOM      3  C   LIG    1      -38.914  74.120  24.637  0.00  0.00    +0.072 A 
ATOM      4  N   LIG    1      -37.727  73.546  24.987  0.00  0.00    -0.352 N 
ATOM      5  H   LIG    1      -36.939  74.055  25.366  0.00  0.00    +0.166 HD
ATOM      6  C   LIG    1      -37.762  72.175  24.757  0.00  0.00    +0.048 A 
ATOM      7  C   LIG    1      -36.778  71.208  24.999  0.00  0.00    +0.026 A 
ATOM      8  C   LIG    1      -37.069  69.886  24.657  0.00  0.00    +0.002 A 
ATOM      9  C   LIG    1      -38.295  69.542  24.091  0.00  0.00    +0.001 A 
ATOM     10  C   LIG    1      -39.274  70.517  23.850  0.00  0.00    +0.010 A 
ATOM     11  C   LIG    1      -39.011  71.858  24.190  0.00  0.00    +0.008 A 
ATOM     12  C   LIG    1      -39.650  73.094  24.141  0.00  0.00    +0.015 A 
ATOM     13  C   LIG    1      -40.930  73.361  23.621  0.00  0.00    -0.008 A 
ATOM     14  C   LIG    1      -41.879  72.426  23.007  0.00  0.00    +0.141 C 
ATOM     15  N   LIG    1      -42.942  73.343  22.669  0.00  0.00    -0.307 N 
ATOM     16  H   LIG    1      -43.802  73.080  22.210  0.00  0.00    +0.149 HD
ATOM     17  C   LIG    1      -42.732  74.677  23.005  0.00  0.00    +0.245 C 
ATOM     18  O   LIG    1      -43.582  75.523  22.760  0.00  0.00    -0.270 OA
ATOM     19  C   LIG    1      -41.427  74.694  23.619  0.00  0.00    +0.052 A 
ATOM     20  C   LIG    1      -40.609  75.724  24.164  0.00  0.00    +0.022 A 
ATOM     21  C   LIG    1      -40.896  77.086  24.167  0.00  0.00    +0.008 A 
ATOM     22  C   LIG    1      -41.939  77.949  23.771  0.00  0.00    +0.010 A 
ATOM     23  C   LIG    1      -41.801  79.334  23.903  0.00  0.00    +0.001 A 
ATOM     24  C   LIG    1      -40.634  79.882  24.410  0.00  0.00    +0.002 A 
ATOM     25  C   LIG    1      -39.583  79.060  24.819  0.00  0.00    +0.026 A 
ATOM     26  C   LIG    1      -39.730  77.660  24.716  0.00  0.00    +0.052 A 
ENDROOT
BRANCH   1  31
ATOM     27  C   LIG    1      -36.253  74.281  27.962  0.00  0.00    +0.044 C 
ATOM     28  C   LIG    1      -36.382  75.732  27.489  0.00  0.00    +0.097 C 
ATOM     29  C   LIG    1      -37.461  76.550  28.226  0.00  0.00    +0.121 C 
ATOM     30  C   LIG    1      -37.837  77.601  27.199  0.00  0.00    +0.094 C 
ATOM     31  C   LIG    1      -37.615  76.905  25.849  0.00  0.00    +0.223 C 
ATOM     32  O   LIG    1      -36.851  75.706  26.115  0.00  0.00    -0.348 OA
ATOM     33  C   LIG    1      -34.989  76.379  27.472  0.00  0.00    +0.044 C 
BRANCH  29  34
ATOM     34  O   LIG    1      -38.626  75.745  28.492  0.00  0.00    -0.383 OA
ATOM     35  H   LIG    1      -38.487  74.854  28.118  0.00  0.00    +0.210 HD
ENDBRANCH  29  34
BRANCH  29  36
ATOM     36  C   LIG    1      -37.048  77.176  29.563  0.00  0.00    +0.193 C 
BRANCH  36  37
ATOM     37  O   LIG    1      -36.988  78.595  29.450  0.00  0.00    -0.392 OA
ATOM     38  H   LIG    1      -37.799  78.846  28.966  0.00  0.00    +0.210 HD
ENDBRANCH  36  37
ENDBRANCH  29  36
ENDBRANCH   1  31
TORSDOF 4
ENDMDL
MODEL 8
REMARK VINA RESULT:      -6.8     15.601     19.922
REMARK  Name = pdb/CHEMBL365585.pdb
REMARK                            x       y       z     vdW  Elec       q    Type
REMARK                         _______ _______ _______ _____ _____    ______ ____
ROOT
ATOM      1  N   LIG    1      -38.340  75.089  24.992  0.00  0.00    -0.311 N 
ATOM      2  C   LIG    1      -38.662  73.785  24.687  0.00  0.00    +0.077 A 
ATOM      3  C   LIG    1      -38.019  72.568  24.828  0.00  0.00    +0.072 A 
ATOM      4  N   LIG    1      -36.781  72.220  25.283  0.00  0.00    -0.352 N 
ATOM      5  H   LIG    1      -36.093  72.880  25.620  0.00  0.00    +0.166 HD
ATOM      6  C   LIG    1      -36.611  70.841  25.223  0.00  0.00    +0.048 A 
ATOM      7  C   LIG    1      -35.513  70.064  25.614  0.00  0.00    +0.026 A 
ATOM      8  C   LIG    1      -35.596  68.682  25.429  0.00  0.00    +0.002 A 
ATOM      9  C   LIG    1      -36.732  68.099  24.872  0.00  0.00    +0.001 A 
ATOM     10  C   LIG    1      -37.826  68.884  24.482  0.00  0.00    +0.010 A 
ATOM     11  C   LIG    1      -37.773  70.280  24.661  0.00  0.00    +0.008 A 
ATOM     12  C   LIG    1      -38.577  71.394  24.440  0.00  0.00    +0.015 A 
ATOM     13  C   LIG    1      -39.855  71.407  23.851  0.00  0.00    -0.008 A 
ATOM     14  C   LIG    1      -40.631  70.277  23.328  0.00  0.00    +0.141 C 
ATOM     15  N   LIG    1      -41.796  70.983  22.846  0.00  0.00    -0.307 N 
ATOM     16  H   LIG    1      -42.586  70.544  22.397  0.00  0.00    +0.149 HD
ATOM     17  C   LIG    1      -41.793  72.363  23.021  0.00  0.00    +0.245 C 
ATOM     18  O   LIG    1      -42.741  73.040  22.647  0.00  0.00    -0.270 OA
ATOM     19  C   LIG    1      -40.536  72.643  23.669  0.00  0.00    +0.052 A 
ATOM     20  C   LIG    1      -39.899  73.840  24.107  0.00  0.00    +0.022 A 
ATOM     21  C   LIG    1      -40.376  75.135  23.933  0.00  0.00    +0.008 A 
ATOM     22  C   LIG    1      -41.510  75.783  23.401  0.00  0.00    +0.010 A 
ATOM     23  C   LIG    1      -41.577  77.179  23.364  0.00  0.00    +0.001 A 
ATOM     24  C   LIG    1      -40.525  77.949  23.836  0.00  0.00    +0.002 A 
ATOM     25  C   LIG    1      -39.389  77.343  24.376  0.00  0.00    +0.026 A 
ATOM     26  C   LIG    1      -39.331  75.935  24.442  0.00  0.00    +0.052 A 
ENDROOT
BRANCH   1  31
ATOM     27  C   LIG    1      -36.944  74.930  29.281  0.00  0.00    +0.044 C 
ATOM     28  C   LIG    1      -36.588  75.706  28.010  0.00  0.00    +0.097 C 
ATOM     29  C   LIG    1      -37.486  76.929  27.736  0.00  0.00    +0.121 C 
ATOM     30  C   LIG    1      -37.397  77.072  26.229  0.00  0.00    +0.094 C 
ATOM     31  C   LIG    1      -37.189  75.637  25.725  0.00  0.00    +0.223 C 
ATOM     32  O   LIG    1      -36.842  74.834  26.877  0.00  0.00    -0.348 OA
ATOM     33  C   LIG    1      -35.082  76.007  28.013  0.00  0.00    +0.044 C 
BRANCH  29  34
ATOM     34  O   LIG    1      -38.858  76.649  28.080  0.00  0.00    -0.383 OA
ATOM     35  H   LIG    1      -39.224  76.019  27.430  0.00  0.00    +0.210 HD
ENDBRANCH  29  34
BRANCH  29  36
ATOM     36  C   LIG    1      -37.111  78.227  28.459  0.00  0.00    +0.193 C 
BRANCH  36  37
ATOM     37  O   LIG    1      -36.532  79.155  27.546  0.00  0.00    -0.392 OA
ATOM     38  H   LIG    1      -35.596  78.883  27.467  0.00  0.00    +0.210 HD
ENDBRANCH  36  37
ENDBRANCH  29  36
ENDBRANCH   1  31
TORSDOF 4
ENDMDL
MODEL 9
REMARK VINA RESULT:      -6.8     17.083     21.850
REMARK  Name = pdb/CHEMBL365585.pdb
REMARK                            x       y       z     vdW  Elec       q    Type
REMARK                         _______ _______ _______ _____ _____    ______ ____
ROOT
ATOM      1  N   LIG    1      -39.833  70.659  23.376  0.00  0.00    -0.311 N 
ATOM      2  C   LIG    1      -38.995  71.299  24.263  0.00  0.00    +0.077 A 
ATOM      3  C   LIG    1      -37.886  70.918  24.997  0.00  0.00    +0.072 A 
ATOM      4  N   LIG    1      -37.240  69.727  25.152  0.00  0.00    -0.352 N 
ATOM      5  H   LIG    1      -37.515  68.868  24.694  0.00  0.00    +0.166 HD
ATOM      6  C   LIG    1      -36.158  69.869  26.013  0.00  0.00    +0.048 A 
ATOM      7  C   LIG    1      -35.217  68.915  26.422  0.00  0.00    +0.026 A 
ATOM      8  C   LIG    1      -34.226  69.323  27.318  0.00  0.00    +0.002 A 
ATOM      9  C   LIG    1      -34.179  70.632  27.792  0.00  0.00    +0.001 A 
ATOM     10  C   LIG    1      -35.125  71.580  27.379  0.00  0.00    +0.010 A 
ATOM     11  C   LIG    1      -36.133  71.200  26.470  0.00  0.00    +0.008 A 
ATOM     12  C   LIG    1      -37.220  71.771  25.815  0.00  0.00    +0.015 A 
ATOM     13  C   LIG    1      -37.681  73.095  25.943  0.00  0.00    -0.008 A 
ATOM     14  C   LIG    1      -37.147  74.170  26.787  0.00  0.00    +0.141 C 
ATOM     15  N   LIG    1      -38.090  75.218  26.472  0.00  0.00    -0.307 N 
ATOM     16  H   LIG    1      -38.067  76.146  26.867  0.00  0.00    +0.149 HD
ATOM     17  C   LIG    1      -39.091  74.891  25.563  0.00  0.00    +0.245 C 
ATOM     18  O   LIG    1      -39.930  75.719  25.235  0.00  0.00    -0.270 OA
ATOM     19  C   LIG    1      -38.832  73.514  25.221  0.00  0.00    +0.052 A 
ATOM     20  C   LIG    1      -39.480  72.573  24.370  0.00  0.00    +0.022 A 
ATOM     21  C   LIG    1      -40.659  72.782  23.660  0.00  0.00    +0.008 A 
ATOM     22  C   LIG    1      -41.583  73.822  23.426  0.00  0.00    +0.010 A 
ATOM     23  C   LIG    1      -42.728  73.591  22.657  0.00  0.00    +0.001 A 
ATOM     24  C   LIG    1      -42.981  72.337  22.126  0.00  0.00    +0.002 A 
ATOM     25  C   LIG    1      -42.087  71.285  22.332  0.00  0.00    +0.026 A 
ATOM     26  C   LIG    1      -40.915  71.521  23.081  0.00  0.00    +0.052 A 
ENDROOT
BRANCH   1  31
ATOM     27  C   LIG    1      -36.944  67.213  23.759  0.00  0.00    +0.044 C 
ATOM     28  C   LIG    1      -38.115  67.604  22.853  0.00  0.00    +0.097 C 
ATOM     29  C   LIG    1      -37.738  68.553  21.698  0.00  0.00    +0.121 C 
ATOM     30  C   LIG    1      -39.044  69.274  21.424  0.00  0.00    +0.094 C 
ATOM     31  C   LIG    1      -39.746  69.314  22.788  0.00  0.00    +0.223 C 
ATOM     32  O   LIG    1      -39.045  68.386  23.648  0.00  0.00    -0.348 OA
ATOM     33  C   LIG    1      -38.860  66.332  22.419  0.00  0.00    +0.044 C 
BRANCH  29  34
ATOM     34  O   LIG    1      -36.767  69.528  22.126  0.00  0.00    -0.383 OA
ATOM     35  H   LIG    1      -36.397  69.972  21.339  0.00  0.00    +0.210 HD
ENDBRANCH  29  34
BRANCH  29  36
ATOM     36  C   LIG    1      -37.169  67.897  20.435  0.00  0.00    +0.193 C 
BRANCH  36  37
ATOM     37  O   LIG    1      -37.743  68.482  19.269  0.00  0.00    -0.392 OA
ATOM     38  H   LIG    1      -38.696  68.268  19.320  0.00  0.00    +0.210 HD
ENDBRANCH  36  37
ENDBRANCH  29  36
ENDBRANCH   1  31
TORSDOF 4
ENDMDL
