MODEL 1
REMARK VINA RESULT:      -6.6      0.000      0.000
REMARK  Name = pdb/CHEMBL3673478.pdb
REMARK                            x       y       z     vdW  Elec       q    Type
REMARK                         _______ _______ _______ _____ _____    ______ ____
ROOT
ATOM      1  C   LIG    1      -36.317  68.624  23.648  0.00  0.00    +0.162 A 
ATOM      2  C   LIG    1      -37.514  69.347  23.627  0.00  0.00    +0.162 A 
ATOM      3  C   LIG    1      -38.402  69.133  22.551  0.00  0.00    +0.050 A 
ATOM      4  C   LIG    1      -38.175  68.108  21.609  0.00  0.00    +0.009 A 
ATOM      5  C   LIG    1      -37.022  67.334  21.686  0.00  0.00    -0.024 A 
ATOM      6  C   LIG    1      -36.093  67.672  22.670  0.00  0.00    +0.054 A 
ENDROOT
BRANCH   1   8
ATOM      7  C   LIG    1      -35.291  68.049  25.793  0.00  0.00    +0.277 C 
ATOM      8  O   LIG    1      -35.411  68.853  24.630  0.00  0.00    -0.491 OA
ENDBRANCH   1   8
BRANCH   2   9
ATOM      9  O   LIG    1      -37.928  70.255  24.571  0.00  0.00    -0.484 OA
BRANCH   9  10
ATOM     10  C   LIG    1      -37.513  71.654  24.548  0.00  0.00    +0.264 C 
BRANCH  10  11
ATOM     11  C   LIG    1      -38.569  72.755  24.680  0.00  0.00    -0.010 A 
ATOM     12  C   LIG    1      -38.178  74.022  25.131  0.00  0.00    +0.007 A 
ATOM     13  C   LIG    1      -38.923  75.161  24.792  0.00  0.00    +0.013 A 
ATOM     14  C   LIG    1      -40.128  75.052  24.081  0.00  0.00    +0.055 A 
ATOM     15  C   LIG    1      -40.619  73.760  23.818  0.00  0.00    +0.013 A 
ATOM     16  C   LIG    1      -39.830  72.619  24.068  0.00  0.00    +0.007 A 
BRANCH  14  17
ATOM     17  C   LIG    1      -40.887  76.265  23.573  0.00  0.00    +0.417 C 
ATOM     18  F   LIG    1      -40.139  77.195  22.923  0.00  0.00    -0.166 F 
ATOM     19  F   LIG    1      -41.469  76.952  24.583  0.00  0.00    -0.166 F 
ATOM     20  F   LIG    1      -41.866  75.961  22.675  0.00  0.00    -0.166 F 
ENDBRANCH  14  17
ENDBRANCH  10  11
ENDBRANCH   9  10
ENDBRANCH   2   9
BRANCH   5  21
ATOM     21  C   LIG    1      -36.646  66.253  20.688  0.00  0.00    +0.161 C 
BRANCH  21  22
ATOM     22  N   LIG    1      -35.881  66.649  19.508  0.00  0.00    -0.293 N 
ATOM     23  C   LIG    1      -34.508  66.640  19.407  0.00  0.00    +0.162 A 
ATOM     24  N   LIG    1      -33.612  66.413  20.390  0.00  0.00    -0.235 NA
ATOM     25  C   LIG    1      -32.338  66.638  19.961  0.00  0.00    +0.121 A 
ATOM     26  C   LIG    1      -31.936  67.051  18.685  0.00  0.00    +0.005 A 
ATOM     27  C   LIG    1      -32.918  67.194  17.702  0.00  0.00    +0.041 A 
ATOM     28  C   LIG    1      -34.230  66.989  18.097  0.00  0.00    +0.110 A 
ATOM     29  N   LIG    1      -35.366  67.131  17.381  0.00  0.00    -0.213 NA
ATOM     30  C   LIG    1      -36.271  67.004  18.239  0.00  0.00    +0.195 A 
BRANCH  26  31
ATOM     31  C   LIG    1      -30.565  67.362  18.369  0.00  0.00    +0.021 A 
ATOM     32  C   LIG    1      -30.016  68.628  18.423  0.00  0.00    +0.116 A 
ATOM     33  N   LIG    1      -28.713  68.493  18.047  0.00  0.00    -0.274 N 
ATOM     34  C   LIG    1      -27.754  69.562  17.917  0.00  0.00    +0.172 C 
ATOM     35  N   LIG    1      -28.364  67.223  17.771  0.00  0.00    -0.179 NA
ATOM     36  C   LIG    1      -29.493  66.537  17.968  0.00  0.00    +0.143 A 
ENDBRANCH  26  31
BRANCH  30  37
ATOM     37  N   LIG    1      -37.571  67.279  17.940  0.00  0.00    -0.329 N 
ATOM     38  H   LIG    1      -37.565  67.910  17.154  0.00  0.00    +0.145 HD
ATOM     39  H   LIG    1      -38.107  67.661  18.699  0.00  0.00    +0.145 HD
ENDBRANCH  30  37
ENDBRANCH  21  22
ENDBRANCH   5  21
TORSDOF 9
ENDMDL
MODEL 2
REMARK VINA RESULT:      -6.5     18.887     21.707
REMARK  Name = pdb/CHEMBL3673478.pdb
REMARK                            x       y       z     vdW  Elec       q    Type
REMARK                         _______ _______ _______ _____ _____    ______ ____
ROOT
ATOM      1  C   LIG    1      -21.093  75.449  31.638  0.00  0.00    +0.162 A 
ATOM      2  C   LIG    1      -20.249  75.973  30.654  0.00  0.00    +0.162 A 
ATOM      3  C   LIG    1      -20.833  76.681  29.584  0.00  0.00    +0.050 A 
ATOM      4  C   LIG    1      -22.208  76.997  29.580  0.00  0.00    +0.009 A 
ATOM      5  C   LIG    1      -23.029  76.545  30.608  0.00  0.00    -0.024 A 
ATOM      6  C   LIG    1      -22.448  75.719  31.570  0.00  0.00    +0.054 A 
ENDROOT
BRANCH   1   8
ATOM      7  C   LIG    1      -20.294  75.219  33.939  0.00  0.00    +0.277 C 
ATOM      8  O   LIG    1      -20.572  74.705  32.646  0.00  0.00    -0.491 OA
ENDBRANCH   1   8
BRANCH   2   9
ATOM      9  O   LIG    1      -18.878  75.875  30.629  0.00  0.00    -0.484 OA
BRANCH   9  10
ATOM     10  C   LIG    1      -18.006  77.014  30.899  0.00  0.00    +0.264 C 
BRANCH  10  11
ATOM     11  C   LIG    1      -18.313  77.932  32.084  0.00  0.00    -0.010 A 
ATOM     12  C   LIG    1      -19.485  78.699  32.065  0.00  0.00    +0.007 A 
ATOM     13  C   LIG    1      -20.077  79.129  33.262  0.00  0.00    +0.013 A 
ATOM     14  C   LIG    1      -19.461  78.890  34.500  0.00  0.00    +0.055 A 
ATOM     15  C   LIG    1      -18.181  78.307  34.493  0.00  0.00    +0.013 A 
ATOM     16  C   LIG    1      -17.627  77.785  33.305  0.00  0.00    +0.007 A 
BRANCH  14  17
ATOM     17  C   LIG    1      -20.136  79.211  35.821  0.00  0.00    +0.417 C 
ATOM     18  F   LIG    1      -21.140  78.371  36.186  0.00  0.00    -0.166 F 
ATOM     19  F   LIG    1      -20.714  80.434  35.805  0.00  0.00    -0.166 F 
ATOM     20  F   LIG    1      -19.290  79.179  36.889  0.00  0.00    -0.166 F 
ENDBRANCH  14  17
ENDBRANCH  10  11
ENDBRANCH   9  10
ENDBRANCH   2   9
BRANCH   5  21
ATOM     21  C   LIG    1      -24.530  76.768  30.669  0.00  0.00    +0.161 C 
BRANCH  21  22
ATOM     22  N   LIG    1      -25.137  76.973  31.982  0.00  0.00    -0.293 N 
ATOM     23  C   LIG    1      -24.765  77.938  32.890  0.00  0.00    +0.162 A 
ATOM     24  N   LIG    1      -23.706  78.770  32.820  0.00  0.00    -0.235 NA
ATOM     25  C   LIG    1      -23.560  79.486  33.970  0.00  0.00    +0.121 A 
ATOM     26  C   LIG    1      -24.364  79.421  35.115  0.00  0.00    +0.005 A 
ATOM     27  C   LIG    1      -25.485  78.587  35.082  0.00  0.00    +0.041 A 
ATOM     28  C   LIG    1      -25.665  77.829  33.936  0.00  0.00    +0.110 A 
ATOM     29  N   LIG    1      -26.608  76.901  33.670  0.00  0.00    -0.213 NA
ATOM     30  C   LIG    1      -26.223  76.392  32.591  0.00  0.00    +0.195 A 
BRANCH  26  31
ATOM     31  C   LIG    1      -24.056  80.148  36.320  0.00  0.00    +0.021 A 
ATOM     32  C   LIG    1      -23.974  81.523  36.406  0.00  0.00    +0.116 A 
ATOM     33  N   LIG    1      -23.658  81.804  37.702  0.00  0.00    -0.274 N 
ATOM     34  C   LIG    1      -23.429  83.118  38.252  0.00  0.00    +0.172 C 
ATOM     35  N   LIG    1      -23.550  80.709  38.476  0.00  0.00    -0.179 NA
ATOM     36  C   LIG    1      -23.793  79.703  37.632  0.00  0.00    +0.143 A 
ENDBRANCH  26  31
BRANCH  30  37
ATOM     37  N   LIG    1      -26.812  75.272  32.088  0.00  0.00    -0.329 N 
ATOM     38  H   LIG    1      -27.411  75.568  31.333  0.00  0.00    +0.145 HD
ATOM     39  H   LIG    1      -27.327  74.729  32.759  0.00  0.00    +0.145 HD
ENDBRANCH  30  37
ENDBRANCH  21  22
ENDBRANCH   5  21
TORSDOF 9
ENDMDL
MODEL 3
REMARK VINA RESULT:      -6.4     15.676     18.829
REMARK  Name = pdb/CHEMBL3673478.pdb
REMARK                            x       y       z     vdW  Elec       q    Type
REMARK                         _______ _______ _______ _____ _____    ______ ____
ROOT
ATOM      1  C   LIG    1      -26.898  79.148  11.212  0.00  0.00    +0.162 A 
ATOM      2  C   LIG    1      -27.214  78.347  12.314  0.00  0.00    +0.162 A 
ATOM      3  C   LIG    1      -28.572  78.055  12.558  0.00  0.00    +0.050 A 
ATOM      4  C   LIG    1      -29.576  78.419  11.636  0.00  0.00    +0.009 A 
ATOM      5  C   LIG    1      -29.243  79.145  10.496  0.00  0.00    -0.024 A 
ATOM      6  C   LIG    1      -27.914  79.547  10.363  0.00  0.00    +0.054 A 
ENDROOT
BRANCH   1   8
ATOM      7  C   LIG    1      -24.972  79.387   9.725  0.00  0.00    +0.277 C 
ATOM      8  O   LIG    1      -25.609  79.504  10.986  0.00  0.00    -0.491 OA
ENDBRANCH   1   8
BRANCH   2   9
ATOM      9  O   LIG    1      -26.316  77.794  13.196  0.00  0.00    -0.484 OA
BRANCH   9  10
ATOM     10  C   LIG    1      -26.052  78.370  14.510  0.00  0.00    +0.264 C 
BRANCH  10  11
ATOM     11  C   LIG    1      -24.827  79.265  14.707  0.00  0.00    -0.010 A 
ATOM     12  C   LIG    1      -24.830  80.553  14.156  0.00  0.00    +0.007 A 
ATOM     13  C   LIG    1      -24.030  81.566  14.705  0.00  0.00    +0.013 A 
ATOM     14  C   LIG    1      -23.136  81.295  15.751  0.00  0.00    +0.055 A 
ATOM     15  C   LIG    1      -22.986  79.955  16.154  0.00  0.00    +0.013 A 
ATOM     16  C   LIG    1      -23.854  78.952  15.676  0.00  0.00    +0.007 A 
BRANCH  14  17
ATOM     17  C   LIG    1      -22.361  82.387  16.466  0.00  0.00    +0.417 C 
ATOM     18  F   LIG    1      -22.658  82.552  17.782  0.00  0.00    -0.166 F 
ATOM     19  F   LIG    1      -22.589  83.604  15.918  0.00  0.00    -0.166 F 
ATOM     20  F   LIG    1      -21.013  82.192  16.466  0.00  0.00    -0.166 F 
ENDBRANCH  14  17
ENDBRANCH  10  11
ENDBRANCH   9  10
ENDBRANCH   2   9
BRANCH   5  21
ATOM     21  C   LIG    1      -30.248  79.645   9.474  0.00  0.00    +0.161 C 
BRANCH  21  22
ATOM     22  N   LIG    1      -31.530  80.147   9.965  0.00  0.00    -0.293 N 
ATOM     23  C   LIG    1      -31.873  81.474  10.084  0.00  0.00    +0.162 A 
ATOM     24  N   LIG    1      -31.076  82.549   9.917  0.00  0.00    -0.235 NA
ATOM     25  C   LIG    1      -31.715  83.701  10.267  0.00  0.00    +0.121 A 
ATOM     26  C   LIG    1      -33.026  83.829  10.745  0.00  0.00    +0.005 A 
ATOM     27  C   LIG    1      -33.811  82.677  10.820  0.00  0.00    +0.041 A 
ATOM     28  C   LIG    1      -33.198  81.480  10.487  0.00  0.00    +0.110 A 
ATOM     29  N   LIG    1      -33.693  80.226  10.540  0.00  0.00    -0.213 NA
ATOM     30  C   LIG    1      -32.694  79.505  10.312  0.00  0.00    +0.195 A 
BRANCH  26  31
ATOM     31  C   LIG    1      -33.569  85.088  11.187  0.00  0.00    +0.021 A 
ATOM     32  C   LIG    1      -32.816  86.211  11.467  0.00  0.00    +0.116 A 
ATOM     33  N   LIG    1      -33.699  87.173  11.856  0.00  0.00    -0.274 N 
ATOM     34  C   LIG    1      -33.363  88.508  12.285  0.00  0.00    +0.172 C 
ATOM     35  N   LIG    1      -34.981  86.765  11.829  0.00  0.00    -0.179 NA
ATOM     36  C   LIG    1      -34.898  85.496  11.421  0.00  0.00    +0.143 A 
ENDBRANCH  26  31
BRANCH  30  37
ATOM     37  N   LIG    1      -32.746  78.153  10.473  0.00  0.00    -0.329 N 
ATOM     38  H   LIG    1      -32.302  77.945  11.354  0.00  0.00    +0.145 HD
ATOM     39  H   LIG    1      -32.326  77.624   9.730  0.00  0.00    +0.145 HD
ENDBRANCH  30  37
ENDBRANCH  21  22
ENDBRANCH   5  21
TORSDOF 9
ENDMDL
MODEL 4
REMARK VINA RESULT:      -6.3      1.178      2.051
REMARK  Name = pdb/CHEMBL3673478.pdb
REMARK                            x       y       z     vdW  Elec       q    Type
REMARK                         _______ _______ _______ _____ _____    ______ ____
ROOT
ATOM      1  C   LIG    1      -39.440  68.593  21.973  0.00  0.00    +0.162 A 
ATOM      2  C   LIG    1      -38.746  69.417  22.866  0.00  0.00    +0.162 A 
ATOM      3  C   LIG    1      -37.384  69.139  23.108  0.00  0.00    +0.050 A 
ATOM      4  C   LIG    1      -36.692  68.165  22.357  0.00  0.00    +0.009 A 
ATOM      5  C   LIG    1      -37.370  67.406  21.409  0.00  0.00    -0.024 A 
ATOM      6  C   LIG    1      -38.747  67.602  21.302  0.00  0.00    +0.054 A 
ENDROOT
BRANCH   1   8
ATOM      7  C   LIG    1      -41.648  67.780  21.306  0.00  0.00    +0.277 C 
ATOM      8  O   LIG    1      -40.766  68.791  21.768  0.00  0.00    -0.491 OA
ENDBRANCH   1   8
BRANCH   2   9
ATOM      9  O   LIG    1      -39.263  70.499  23.537  0.00  0.00    -0.484 OA
BRANCH   9  10
ATOM     10  C   LIG    1      -38.429  71.414  24.310  0.00  0.00    +0.264 C 
BRANCH  10  11
ATOM     11  C   LIG    1      -38.939  72.825  24.612  0.00  0.00    -0.010 A 
ATOM     12  C   LIG    1      -38.054  73.768  25.150  0.00  0.00    +0.007 A 
ATOM     13  C   LIG    1      -38.277  75.140  24.968  0.00  0.00    +0.013 A 
ATOM     14  C   LIG    1      -39.437  75.607  24.332  0.00  0.00    +0.055 A 
ATOM     15  C   LIG    1      -40.419  74.662  23.985  0.00  0.00    +0.013 A 
ATOM     16  C   LIG    1      -40.160  73.279  24.076  0.00  0.00    +0.007 A 
BRANCH  14  17
ATOM     17  C   LIG    1      -39.646  77.071  23.989  0.00  0.00    +0.417 C 
ATOM     18  F   LIG    1      -40.178  77.316  22.763  0.00  0.00    -0.166 F 
ATOM     19  F   LIG    1      -38.479  77.757  23.989  0.00  0.00    -0.166 F 
ATOM     20  F   LIG    1      -40.493  77.717  24.838  0.00  0.00    -0.166 F 
ENDBRANCH  14  17
ENDBRANCH  10  11
ENDBRANCH   9  10
ENDBRANCH   2   9
BRANCH   5  21
ATOM     21  C   LIG    1      -36.742  66.289  20.594  0.00  0.00    +0.161 C 
BRANCH  21  22
ATOM     22  N   LIG    1      -35.909  66.661  19.453  0.00  0.00    -0.293 N 
ATOM     23  C   LIG    1      -34.533  66.641  19.430  0.00  0.00    +0.162 A 
ATOM     24  N   LIG    1      -33.695  66.423  20.465  0.00  0.00    -0.235 NA
ATOM     25  C   LIG    1      -32.397  66.632  20.106  0.00  0.00    +0.121 A 
ATOM     26  C   LIG    1      -31.920  67.022  18.848  0.00  0.00    +0.005 A 
ATOM     27  C   LIG    1      -32.844  67.158  17.810  0.00  0.00    +0.041 A 
ATOM     28  C   LIG    1      -34.179  66.968  18.132  0.00  0.00    +0.110 A 
ATOM     29  N   LIG    1      -35.271  67.107  17.352  0.00  0.00    -0.213 NA
ATOM     30  C   LIG    1      -36.224  67.000  18.159  0.00  0.00    +0.195 A 
BRANCH  26  31
ATOM     31  C   LIG    1      -30.531  67.319  18.605  0.00  0.00    +0.021 A 
ATOM     32  C   LIG    1      -30.053  68.546  18.192  0.00  0.00    +0.116 A 
ATOM     33  N   LIG    1      -28.702  68.407  18.074  0.00  0.00    -0.274 N 
ATOM     34  C   LIG    1      -27.782  69.424  17.629  0.00  0.00    +0.172 C 
ATOM     35  N   LIG    1      -28.260  67.179  18.401  0.00  0.00    -0.179 NA
ATOM     36  C   LIG    1      -29.376  66.519  18.724  0.00  0.00    +0.143 A 
ENDBRANCH  26  31
BRANCH  30  37
ATOM     37  N   LIG    1      -37.503  67.279  17.783  0.00  0.00    -0.329 N 
ATOM     38  H   LIG    1      -37.513  68.234  17.461  0.00  0.00    +0.145 HD
ATOM     39  H   LIG    1      -38.193  67.138  18.499  0.00  0.00    +0.145 HD
ENDBRANCH  30  37
ENDBRANCH  21  22
ENDBRANCH   5  21
TORSDOF 9
ENDMDL
MODEL 5
REMARK VINA RESULT:      -6.2     15.674     19.871
REMARK  Name = pdb/CHEMBL3673478.pdb
REMARK                            x       y       z     vdW  Elec       q    Type
REMARK                         _______ _______ _______ _____ _____    ______ ____
ROOT
ATOM      1  C   LIG    1      -35.877  85.038  28.412  0.00  0.00    +0.162 A 
ATOM      2  C   LIG    1      -35.711  83.775  28.989  0.00  0.00    +0.162 A 
ATOM      3  C   LIG    1      -35.002  83.687  30.206  0.00  0.00    +0.050 A 
ATOM      4  C   LIG    1      -34.609  84.846  30.909  0.00  0.00    +0.009 A 
ATOM      5  C   LIG    1      -34.853  86.104  30.368  0.00  0.00    -0.024 A 
ATOM      6  C   LIG    1      -35.420  86.150  29.094  0.00  0.00    +0.054 A 
ENDROOT
BRANCH   1   8
ATOM      7  C   LIG    1      -35.959  85.880  26.117  0.00  0.00    +0.277 C 
ATOM      8  O   LIG    1      -36.495  85.152  27.210  0.00  0.00    -0.491 OA
ENDBRANCH   1   8
BRANCH   2   9
ATOM      9  O   LIG    1      -36.187  82.587  28.489  0.00  0.00    -0.484 OA
BRANCH   9  10
ATOM     10  C   LIG    1      -36.034  81.320  29.197  0.00  0.00    +0.264 C 
BRANCH  10  11
ATOM     11  C   LIG    1      -34.824  80.432  28.896  0.00  0.00    -0.010 A 
ATOM     12  C   LIG    1      -34.608  79.289  29.677  0.00  0.00    +0.007 A 
ATOM     13  C   LIG    1      -33.884  78.202  29.166  0.00  0.00    +0.013 A 
ATOM     14  C   LIG    1      -33.274  78.268  27.904  0.00  0.00    +0.055 A 
ATOM     15  C   LIG    1      -33.318  79.496  27.219  0.00  0.00    +0.013 A 
ATOM     16  C   LIG    1      -34.124  80.556  27.681  0.00  0.00    +0.007 A 
BRANCH  14  17
ATOM     17  C   LIG    1      -32.607  77.068  27.258  0.00  0.00    +0.417 C 
ATOM     18  F   LIG    1      -33.446  76.081  26.845  0.00  0.00    -0.166 F 
ATOM     19  F   LIG    1      -31.757  76.448  28.109  0.00  0.00    -0.166 F 
ATOM     20  F   LIG    1      -31.899  77.373  26.134  0.00  0.00    -0.166 F 
ENDBRANCH  14  17
ENDBRANCH  10  11
ENDBRANCH   9  10
ENDBRANCH   2   9
BRANCH   5  21
ATOM     21  C   LIG    1      -34.415  87.411  31.004  0.00  0.00    +0.161 C 
BRANCH  21  22
ATOM     22  N   LIG    1      -33.020  87.815  30.845  0.00  0.00    -0.293 N 
ATOM     23  C   LIG    1      -32.015  87.586  31.757  0.00  0.00    +0.162 A 
ATOM     24  N   LIG    1      -32.134  87.091  33.006  0.00  0.00    -0.235 NA
ATOM     25  C   LIG    1      -30.950  87.147  33.678  0.00  0.00    +0.121 A 
ATOM     26  C   LIG    1      -29.729  87.641  33.199  0.00  0.00    +0.005 A 
ATOM     27  C   LIG    1      -29.671  88.070  31.872  0.00  0.00    +0.041 A 
ATOM     28  C   LIG    1      -30.856  88.043  31.154  0.00  0.00    +0.110 A 
ATOM     29  N   LIG    1      -31.098  88.462  29.894  0.00  0.00    -0.213 NA
ATOM     30  C   LIG    1      -32.345  88.386  29.794  0.00  0.00    +0.195 A 
BRANCH  26  31
ATOM     31  C   LIG    1      -28.559  87.753  34.033  0.00  0.00    +0.021 A 
ATOM     32  C   LIG    1      -28.206  88.884  34.740  0.00  0.00    +0.116 A 
ATOM     33  N   LIG    1      -27.045  88.581  35.387  0.00  0.00    -0.274 N 
ATOM     34  C   LIG    1      -26.280  89.476  36.219  0.00  0.00    +0.172 C 
ATOM     35  N   LIG    1      -26.625  87.321  35.170  0.00  0.00    -0.179 NA
ATOM     36  C   LIG    1      -27.549  86.820  34.346  0.00  0.00    +0.143 A 
ENDBRANCH  26  31
BRANCH  30  37
ATOM     37  N   LIG    1      -33.001  88.912  28.722  0.00  0.00    -0.329 N 
ATOM     38  H   LIG    1      -32.356  89.532  28.258  0.00  0.00    +0.145 HD
ATOM     39  H   LIG    1      -33.856  89.389  28.944  0.00  0.00    +0.145 HD
ENDBRANCH  30  37
ENDBRANCH  21  22
ENDBRANCH   5  21
TORSDOF 9
ENDMDL
MODEL 6
REMARK VINA RESULT:      -6.2     19.235     22.821
REMARK  Name = pdb/CHEMBL3673478.pdb
REMARK                            x       y       z     vdW  Elec       q    Type
REMARK                         _______ _______ _______ _____ _____    ______ ____
ROOT
ATOM      1  C   LIG    1      -24.671  86.943  11.259  0.00  0.00    +0.162 A 
ATOM      2  C   LIG    1      -24.351  88.294  11.425  0.00  0.00    +0.162 A 
ATOM      3  C   LIG    1      -23.222  88.621  12.204  0.00  0.00    +0.050 A 
ATOM      4  C   LIG    1      -22.341  87.622  12.670  0.00  0.00    +0.009 A 
ATOM      5  C   LIG    1      -22.620  86.280  12.428  0.00  0.00    -0.024 A 
ATOM      6  C   LIG    1      -23.823  85.986  11.787  0.00  0.00    +0.054 A 
ENDROOT
BRANCH   1   8
ATOM      7  C   LIG    1      -25.782  86.208   9.208  0.00  0.00    +0.277 C 
ATOM      8  O   LIG    1      -25.787  86.595  10.573  0.00  0.00    -0.491 OA
ENDBRANCH   1   8
BRANCH   2   9
ATOM      9  O   LIG    1      -25.034  89.359  10.887  0.00  0.00    -0.484 OA
BRANCH   9  10
ATOM     10  C   LIG    1      -24.471  90.704  10.833  0.00  0.00    +0.264 C 
BRANCH  10  11
ATOM     11  C   LIG    1      -25.305  91.889  11.329  0.00  0.00    -0.010 A 
ATOM     12  C   LIG    1      -26.114  91.725  12.460  0.00  0.00    +0.007 A 
ATOM     13  C   LIG    1      -26.471  92.829  13.249  0.00  0.00    +0.013 A 
ATOM     14  C   LIG    1      -26.113  94.132  12.872  0.00  0.00    +0.055 A 
ATOM     15  C   LIG    1      -25.484  94.305  11.626  0.00  0.00    +0.013 A 
ATOM     16  C   LIG    1      -25.037  93.196  10.879  0.00  0.00    +0.007 A 
BRANCH  14  17
ATOM     17  C   LIG    1      -26.354  95.334  13.768  0.00  0.00    +0.417 C 
ATOM     18  F   LIG    1      -25.380  96.282  13.753  0.00  0.00    -0.166 F 
ATOM     19  F   LIG    1      -26.453  94.978  15.070  0.00  0.00    -0.166 F 
ATOM     20  F   LIG    1      -27.482  96.032  13.455  0.00  0.00    -0.166 F 
ENDBRANCH  14  17
ENDBRANCH  10  11
ENDBRANCH   9  10
ENDBRANCH   2   9
BRANCH   5  21
ATOM     21  C   LIG    1      -21.780  85.124  12.940  0.00  0.00    +0.161 C 
BRANCH  21  22
ATOM     22  N   LIG    1      -22.326  84.309  14.023  0.00  0.00    -0.293 N 
ATOM     23  C   LIG    1      -22.780  83.016  13.896  0.00  0.00    +0.162 A 
ATOM     24  N   LIG    1      -22.946  82.309  12.760  0.00  0.00    -0.235 NA
ATOM     25  C   LIG    1      -23.561  81.117  13.001  0.00  0.00    +0.121 A 
ATOM     26  C   LIG    1      -23.993  80.624  14.239  0.00  0.00    +0.005 A 
ATOM     27  C   LIG    1      -23.720  81.384  15.378  0.00  0.00    +0.041 A 
ATOM     28  C   LIG    1      -23.107  82.610  15.179  0.00  0.00    +0.110 A 
ATOM     29  N   LIG    1      -22.799  83.565  16.082  0.00  0.00    -0.213 NA
ATOM     30  C   LIG    1      -22.434  84.532  15.374  0.00  0.00    +0.195 A 
BRANCH  26  31
ATOM     31  C   LIG    1      -24.730  79.393  14.367  0.00  0.00    +0.021 A 
ATOM     32  C   LIG    1      -24.430  78.225  13.694  0.00  0.00    +0.116 A 
ATOM     33  N   LIG    1      -25.362  77.311  14.084  0.00  0.00    -0.274 N 
ATOM     34  C   LIG    1      -25.468  75.954  13.608  0.00  0.00    +0.172 C 
ATOM     35  N   LIG    1      -26.239  77.792  14.984  0.00  0.00    -0.179 NA
ATOM     36  C   LIG    1      -25.852  79.059  15.154  0.00  0.00    +0.143 A 
ENDBRANCH  26  31
BRANCH  30  37
ATOM     37  N   LIG    1      -22.224  85.765  15.915  0.00  0.00    -0.329 N 
ATOM     38  H   LIG    1      -22.284  86.431  15.162  0.00  0.00    +0.145 HD
ATOM     39  H   LIG    1      -21.356  85.865  16.411  0.00  0.00    +0.145 HD
ENDBRANCH  30  37
ENDBRANCH  21  22
ENDBRANCH   5  21
TORSDOF 9
ENDMDL
MODEL 7
REMARK VINA RESULT:      -6.2     18.403     20.916
REMARK  Name = pdb/CHEMBL3673478.pdb
REMARK                            x       y       z     vdW  Elec       q    Type
REMARK                         _______ _______ _______ _____ _____    ______ ____
ROOT
ATOM      1  C   LIG    1      -23.726  75.357  30.988  0.00  0.00    +0.162 A 
ATOM      2  C   LIG    1      -24.708  76.322  30.749  0.00  0.00    +0.162 A 
ATOM      3  C   LIG    1      -24.308  77.559  30.200  0.00  0.00    +0.050 A 
ATOM      4  C   LIG    1      -22.986  77.766  29.751  0.00  0.00    +0.009 A 
ATOM      5  C   LIG    1      -22.031  76.767  29.915  0.00  0.00    -0.024 A 
ATOM      6  C   LIG    1      -22.425  75.616  30.598  0.00  0.00    +0.054 A 
ENDROOT
BRANCH   1   8
ATOM      7  C   LIG    1      -24.443  73.022  30.854  0.00  0.00    +0.277 C 
ATOM      8  O   LIG    1      -24.065  74.183  31.576  0.00  0.00    -0.491 OA
ENDBRANCH   1   8
BRANCH   2   9
ATOM      9  O   LIG    1      -26.055  76.184  30.989  0.00  0.00    -0.484 OA
BRANCH   9  10
ATOM     10  C   LIG    1      -26.706  76.767  32.157  0.00  0.00    +0.264 C 
BRANCH  10  11
ATOM     11  C   LIG    1      -25.938  76.863  33.478  0.00  0.00    -0.010 A 
ATOM     12  C   LIG    1      -25.700  75.694  34.212  0.00  0.00    +0.007 A 
ATOM     13  C   LIG    1      -24.616  75.617  35.098  0.00  0.00    +0.013 A 
ATOM     14  C   LIG    1      -23.804  76.733  35.347  0.00  0.00    +0.055 A 
ATOM     15  C   LIG    1      -24.179  77.959  34.767  0.00  0.00    +0.013 A 
ATOM     16  C   LIG    1      -25.206  78.021  33.802  0.00  0.00    +0.007 A 
BRANCH  14  17
ATOM     17  C   LIG    1      -22.540  76.652  36.184  0.00  0.00    +0.417 C 
ATOM     18  F   LIG    1      -22.132  77.820  36.746  0.00  0.00    -0.166 F 
ATOM     19  F   LIG    1      -21.477  76.246  35.451  0.00  0.00    -0.166 F 
ATOM     20  F   LIG    1      -22.641  75.806  37.248  0.00  0.00    -0.166 F 
ENDBRANCH  14  17
ENDBRANCH  10  11
ENDBRANCH   9  10
ENDBRANCH   2   9
BRANCH   5  21
ATOM     21  C   LIG    1      -20.569  76.907  29.531  0.00  0.00    +0.161 C 
BRANCH  21  22
ATOM     22  N   LIG    1      -19.594  77.075  30.606  0.00  0.00    -0.293 N 
ATOM     23  C   LIG    1      -19.854  77.632  31.838  0.00  0.00    +0.162 A 
ATOM     24  N   LIG    1      -20.983  78.249  32.241  0.00  0.00    -0.235 NA
ATOM     25  C   LIG    1      -20.829  78.814  33.472  0.00  0.00    +0.121 A 
ATOM     26  C   LIG    1      -19.679  78.797  34.272  0.00  0.00    +0.005 A 
ATOM     27  C   LIG    1      -18.573  78.076  33.815  0.00  0.00    +0.041 A 
ATOM     28  C   LIG    1      -18.681  77.495  32.561  0.00  0.00    +0.110 A 
ATOM     29  N   LIG    1      -17.753  76.814  31.856  0.00  0.00    -0.213 NA
ATOM     30  C   LIG    1      -18.288  76.667  30.733  0.00  0.00    +0.195 A 
BRANCH  26  31
ATOM     31  C   LIG    1      -19.590  79.519  35.515  0.00  0.00    +0.021 A 
ATOM     32  C   LIG    1      -20.391  80.590  35.858  0.00  0.00    +0.116 A 
ATOM     33  N   LIG    1      -19.986  80.987  37.097  0.00  0.00    -0.274 N 
ATOM     34  C   LIG    1      -20.513  82.101  37.844  0.00  0.00    +0.172 C 
ATOM     35  N   LIG    1      -18.988  80.236  37.599  0.00  0.00    -0.179 NA
ATOM     36  C   LIG    1      -18.750  79.344  36.634  0.00  0.00    +0.143 A 
ENDBRANCH  26  31
BRANCH  30  37
ATOM     37  N   LIG    1      -17.581  76.190  29.670  0.00  0.00    -0.329 N 
ATOM     38  H   LIG    1      -16.627  76.083  29.977  0.00  0.00    +0.145 HD
ATOM     39  H   LIG    1      -17.628  76.759  28.844  0.00  0.00    +0.145 HD
ENDBRANCH  30  37
ENDBRANCH  21  22
ENDBRANCH   5  21
TORSDOF 9
ENDMDL
MODEL 8
REMARK VINA RESULT:      -6.1     14.050     16.024
REMARK  Name = pdb/CHEMBL3673478.pdb
REMARK                            x       y       z     vdW  Elec       q    Type
REMARK                         _______ _______ _______ _____ _____    ______ ____
ROOT
ATOM      1  C   LIG    1      -31.651  77.217   9.838  0.00  0.00    +0.162 A 
ATOM      2  C   LIG    1      -32.159  78.368  10.450  0.00  0.00    +0.162 A 
ATOM      3  C   LIG    1      -31.334  79.054  11.367  0.00  0.00    +0.050 A 
ATOM      4  C   LIG    1      -29.982  78.694  11.545  0.00  0.00    +0.009 A 
ATOM      5  C   LIG    1      -29.458  77.598  10.867  0.00  0.00    -0.024 A 
ATOM      6  C   LIG    1      -30.341  76.851  10.086  0.00  0.00    +0.054 A 
ENDROOT
BRANCH   1   8
ATOM      7  C   LIG    1      -32.392  75.081   8.906  0.00  0.00    +0.277 C 
ATOM      8  O   LIG    1      -32.440  76.496   9.004  0.00  0.00    -0.491 OA
ENDBRANCH   1   8
BRANCH   2   9
ATOM      9  O   LIG    1      -33.401  78.916  10.238  0.00  0.00    -0.484 OA
BRANCH   9  10
ATOM     10  C   LIG    1      -33.659  79.887   9.180  0.00  0.00    +0.264 C 
BRANCH  10  11
ATOM     11  C   LIG    1      -34.222  81.264   9.542  0.00  0.00    -0.010 A 
ATOM     12  C   LIG    1      -35.423  81.683   8.956  0.00  0.00    +0.007 A 
ATOM     13  C   LIG    1      -36.234  82.633   9.594  0.00  0.00    +0.013 A 
ATOM     14  C   LIG    1      -35.819  83.260  10.779  0.00  0.00    +0.055 A 
ATOM     15  C   LIG    1      -34.519  82.989  11.243  0.00  0.00    +0.013 A 
ATOM     16  C   LIG    1      -33.741  81.965  10.664  0.00  0.00    +0.007 A 
BRANCH  14  17
ATOM     17  C   LIG    1      -36.725  84.183  11.573  0.00  0.00    +0.417 C 
ATOM     18  F   LIG    1      -38.033  83.817  11.628  0.00  0.00    -0.166 F 
ATOM     19  F   LIG    1      -36.751  85.432  11.051  0.00  0.00    -0.166 F 
ATOM     20  F   LIG    1      -36.373  84.302  12.884  0.00  0.00    -0.166 F 
ENDBRANCH  14  17
ENDBRANCH  10  11
ENDBRANCH   9  10
ENDBRANCH   2   9
BRANCH   5  21
ATOM     21  C   LIG    1      -28.040  77.082  11.035  0.00  0.00    +0.161 C 
BRANCH  21  22
ATOM     22  N   LIG    1      -27.436  77.163  12.363  0.00  0.00    -0.293 N 
ATOM     23  C   LIG    1      -26.739  78.241  12.858  0.00  0.00    +0.162 A 
ATOM     24  N   LIG    1      -26.354  79.349  12.191  0.00  0.00    -0.235 NA
ATOM     25  C   LIG    1      -25.547  80.135  12.957  0.00  0.00    +0.121 A 
ATOM     26  C   LIG    1      -25.128  79.889  14.271  0.00  0.00    +0.005 A 
ATOM     27  C   LIG    1      -25.627  78.756  14.917  0.00  0.00    +0.041 A 
ATOM     28  C   LIG    1      -26.442  77.920  14.171  0.00  0.00    +0.110 A 
ATOM     29  N   LIG    1      -26.994  76.738  14.518  0.00  0.00    -0.213 NA
ATOM     30  C   LIG    1      -27.479  76.314  13.443  0.00  0.00    +0.195 A 
BRANCH  26  31
ATOM     31  C   LIG    1      -24.184  80.737  14.954  0.00  0.00    +0.021 A 
ATOM     32  C   LIG    1      -23.928  82.052  14.621  0.00  0.00    +0.116 A 
ATOM     33  N   LIG    1      -22.978  82.488  15.495  0.00  0.00    -0.274 N 
ATOM     34  C   LIG    1      -22.370  83.795  15.504  0.00  0.00    +0.172 C 
ATOM     35  N   LIG    1      -22.610  81.556  16.393  0.00  0.00    -0.179 NA
ATOM     36  C   LIG    1      -23.345  80.491  16.061  0.00  0.00    +0.143 A 
ENDBRANCH  26  31
BRANCH  30  37
ATOM     37  N   LIG    1      -27.959  75.043  13.337  0.00  0.00    -0.329 N 
ATOM     38  H   LIG    1      -27.761  74.732  12.399  0.00  0.00    +0.145 HD
ATOM     39  H   LIG    1      -28.936  74.943  13.547  0.00  0.00    +0.145 HD
ENDBRANCH  30  37
ENDBRANCH  21  22
ENDBRANCH   5  21
TORSDOF 9
ENDMDL
MODEL 9
REMARK VINA RESULT:      -6.0     12.859     15.528
REMARK  Name = pdb/CHEMBL3673478.pdb
REMARK                            x       y       z     vdW  Elec       q    Type
REMARK                         _______ _______ _______ _____ _____    ______ ____
ROOT
ATOM      1  C   LIG    1      -36.031  82.617  27.981  0.00  0.00    +0.162 A 
ATOM      2  C   LIG    1      -35.385  83.106  29.121  0.00  0.00    +0.162 A 
ATOM      3  C   LIG    1      -34.691  82.188  29.938  0.00  0.00    +0.050 A 
ATOM      4  C   LIG    1      -34.511  80.846  29.541  0.00  0.00    +0.009 A 
ATOM      5  C   LIG    1      -35.086  80.387  28.360  0.00  0.00    -0.024 A 
ATOM      6  C   LIG    1      -35.891  81.281  27.654  0.00  0.00    +0.054 A 
ENDROOT
BRANCH   1   8
ATOM      7  C   LIG    1      -36.501  83.694  25.836  0.00  0.00    +0.277 C 
ATOM      8  O   LIG    1      -36.763  83.460  27.210  0.00  0.00    -0.491 OA
ENDBRANCH   1   8
BRANCH   2   9
ATOM      9  O   LIG    1      -35.347  84.417  29.531  0.00  0.00    -0.484 OA
BRANCH   9  10
ATOM     10  C   LIG    1      -34.785  85.480  28.704  0.00  0.00    +0.264 C 
BRANCH  10  11
ATOM     11  C   LIG    1      -33.414  86.063  29.056  0.00  0.00    -0.010 A 
ATOM     12  C   LIG    1      -33.260  87.455  29.109  0.00  0.00    +0.007 A 
ATOM     13  C   LIG    1      -32.252  88.031  29.895  0.00  0.00    +0.013 A 
ATOM     14  C   LIG    1      -31.313  87.234  30.566  0.00  0.00    +0.055 A 
ATOM     15  C   LIG    1      -31.347  85.846  30.335  0.00  0.00    +0.013 A 
ATOM     16  C   LIG    1      -32.414  85.255  29.628  0.00  0.00    +0.007 A 
BRANCH  14  17
ATOM     17  C   LIG    1      -30.299  87.811  31.537  0.00  0.00    +0.417 C 
ATOM     18  F   LIG    1      -29.018  87.862  31.087  0.00  0.00    -0.166 F 
ATOM     19  F   LIG    1      -30.223  87.082  32.675  0.00  0.00    -0.166 F 
ATOM     20  F   LIG    1      -30.560  89.098  31.901  0.00  0.00    -0.166 F 
ENDBRANCH  14  17
ENDBRANCH  10  11
ENDBRANCH   9  10
ENDBRANCH   2   9
BRANCH   5  21
ATOM     21  C   LIG    1      -35.013  78.951  27.872  0.00  0.00    +0.161 C 
BRANCH  21  22
ATOM     22  N   LIG    1      -33.727  78.264  27.961  0.00  0.00    -0.293 N 
ATOM     23  C   LIG    1      -33.355  77.396  28.963  0.00  0.00    +0.162 A 
ATOM     24  N   LIG    1      -34.018  77.124  30.105  0.00  0.00    -0.235 NA
ATOM     25  C   LIG    1      -33.277  76.335  30.934  0.00  0.00    +0.121 A 
ATOM     26  C   LIG    1      -31.990  75.835  30.698  0.00  0.00    +0.005 A 
ATOM     27  C   LIG    1      -31.400  76.102  29.461  0.00  0.00    +0.041 A 
ATOM     28  C   LIG    1      -32.112  76.912  28.591  0.00  0.00    +0.110 A 
ATOM     29  N   LIG    1      -31.751  77.382  27.378  0.00  0.00    -0.213 NA
ATOM     30  C   LIG    1      -32.659  78.200  27.099  0.00  0.00    +0.195 A 
BRANCH  26  31
ATOM     31  C   LIG    1      -31.253  75.095  31.691  0.00  0.00    +0.021 A 
ATOM     32  C   LIG    1      -30.350  74.090  31.409  0.00  0.00    +0.116 A 
ATOM     33  N   LIG    1      -29.884  73.650  32.612  0.00  0.00    -0.274 N 
ATOM     34  C   LIG    1      -28.945  72.575  32.814  0.00  0.00    +0.172 C 
ATOM     35  N   LIG    1      -30.404  74.312  33.662  0.00  0.00    -0.179 NA
ATOM     36  C   LIG    1      -31.236  75.191  33.098  0.00  0.00    +0.143 A 
ENDBRANCH  26  31
BRANCH  30  37
ATOM     37  N   LIG    1      -32.552  79.036  26.028  0.00  0.00    -0.329 N 
ATOM     38  H   LIG    1      -32.908  79.933  26.319  0.00  0.00    +0.145 HD
ATOM     39  H   LIG    1      -33.021  78.719  25.198  0.00  0.00    +0.145 HD
ENDBRANCH  30  37
ENDBRANCH  21  22
ENDBRANCH   5  21
TORSDOF 9
ENDMDL
