MODEL 1
REMARK VINA RESULT:      -6.7      0.000      0.000
REMARK  Name = pdb/CHEMBL3935820.pdb
REMARK                            x       y       z     vdW  Elec       q    Type
REMARK                         _______ _______ _______ _____ _____    ______ ____
ROOT
ATOM      1  C   LIG    1      -38.404  76.707  27.588  0.00  0.00    +0.133 A 
ATOM      2  C   LIG    1      -37.352  77.521  27.917  0.00  0.00    +0.183 A 
ATOM      3  N   LIG    1      -36.006  77.404  27.695  0.00  0.00    -0.211 NA
ATOM      4  C   LIG    1      -35.208  78.347  28.142  0.00  0.00    +0.126 A 
ATOM      5  C   LIG    1      -35.739  79.487  28.977  0.00  0.00    +0.063 A 
ATOM      6  C   LIG    1      -37.063  79.543  29.179  0.00  0.00    +0.118 A 
ATOM      7  N   LIG    1      -37.896  78.580  28.636  0.00  0.00    -0.220 N 
ATOM      8  N   LIG    1      -39.250  78.507  28.708  0.00  0.00    -0.171 NA
ATOM      9  C   LIG    1      -39.550  77.390  28.034  0.00  0.00    +0.165 A 
ENDROOT
BRANCH   4  10
ATOM     10  N   LIG    1      -33.854  78.256  27.858  0.00  0.00    -0.308 N 
ATOM     11  C   LIG    1      -33.270  77.032  27.275  0.00  0.00    +0.108 C 
ATOM     12  C   LIG    1      -32.058  77.518  26.452  0.00  0.00    +0.029 C 
ATOM     13  C   LIG    1      -32.294  79.006  26.280  0.00  0.00    +0.021 C 
ATOM     14  C   LIG    1      -32.981  79.392  27.580  0.00  0.00    +0.107 C 
BRANCH  11  15
ATOM     15  C   LIG    1      -32.801  76.072  28.345  0.00  0.00    +0.011 A 
ATOM     16  C   LIG    1      -33.426  74.827  28.457  0.00  0.00    +0.129 A 
ATOM     17  F   LIG    1      -34.509  74.555  27.715  0.00  0.00    -0.205 F 
ATOM     18  C   LIG    1      -32.924  73.833  29.295  0.00  0.00    +0.041 A 
ATOM     19  C   LIG    1      -31.780  74.083  30.052  0.00  0.00    +0.041 A 
ATOM     20  C   LIG    1      -31.184  75.336  29.994  0.00  0.00    +0.124 A 
ATOM     21  F   LIG    1      -30.101  75.589  30.742  0.00  0.00    -0.205 F 
ATOM     22  C   LIG    1      -31.678  76.326  29.153  0.00  0.00    +0.046 A 
ENDBRANCH  11  15
ENDBRANCH   4  10
BRANCH   1  24
ATOM     23  C   LIG    1      -37.833  75.378  25.742  0.00  0.00    +0.285 C 
ATOM     24  N   LIG    1      -38.432  75.506  26.874  0.00  0.00    -0.194 NA
BRANCH  23  25
ATOM     25  O   LIG    1      -37.159  76.347  25.091  0.00  0.00    -0.481 OA
ATOM     26  H   LIG    1      -36.840  77.026  25.715  0.00  0.00    +0.295 HD
ENDBRANCH  23  25
BRANCH  23  27
ATOM     27  N   LIG    1      -37.726  74.255  24.973  0.00  0.00    -0.269 N 
ATOM     28  H   LIG    1      -36.799  74.113  24.605  0.00  0.00    +0.157 HD
BRANCH  27  29
ATOM     29  C   LIG    1      -38.728  73.401  24.497  0.00  0.00    +0.035 A 
ATOM     30  C   LIG    1      -38.504  72.014  24.527  0.00  0.00    +0.026 A 
ATOM     31  C   LIG    1      -39.468  71.120  24.049  0.00  0.00    +0.040 A 
ATOM     32  C   LIG    1      -40.677  71.609  23.572  0.00  0.00    +0.124 A 
ATOM     33  F   LIG    1      -41.592  70.760  23.088  0.00  0.00    -0.205 F 
ATOM     34  C   LIG    1      -40.945  72.968  23.584  0.00  0.00    +0.040 A 
ATOM     35  C   LIG    1      -39.969  73.855  24.033  0.00  0.00    +0.026 A 
ENDBRANCH  27  29
ENDBRANCH  23  27
ENDBRANCH   1  24
TORSDOF 6
ENDMDL
MODEL 2
REMARK VINA RESULT:      -6.7     19.670     23.294
REMARK  Name = pdb/CHEMBL3935820.pdb
REMARK                            x       y       z     vdW  Elec       q    Type
REMARK                         _______ _______ _______ _____ _____    ______ ____
ROOT
ATOM      1  C   LIG    1      -21.345  86.965  14.203  0.00  0.00    +0.133 A 
ATOM      2  C   LIG    1      -21.743  87.728  13.136  0.00  0.00    +0.183 A 
ATOM      3  N   LIG    1      -22.978  87.961  12.593  0.00  0.00    -0.211 NA
ATOM      4  C   LIG    1      -23.068  88.741  11.540  0.00  0.00    +0.126 A 
ATOM      5  C   LIG    1      -21.833  89.291  10.869  0.00  0.00    +0.063 A 
ATOM      6  C   LIG    1      -20.648  89.016  11.432  0.00  0.00    +0.118 A 
ATOM      7  N   LIG    1      -20.579  88.254  12.586  0.00  0.00    -0.220 N 
ATOM      8  N   LIG    1      -19.476  87.917  13.303  0.00  0.00    -0.171 NA
ATOM      9  C   LIG    1      -19.957  87.171  14.304  0.00  0.00    +0.165 A 
ENDROOT
BRANCH   4  10
ATOM     10  N   LIG    1      -24.327  89.025  11.034  0.00  0.00    -0.308 N 
ATOM     11  C   LIG    1      -24.595  90.275  10.294  0.00  0.00    +0.108 C 
ATOM     12  C   LIG    1      -25.734  89.924   9.314  0.00  0.00    +0.029 C 
ATOM     13  C   LIG    1      -25.736  88.408   9.268  0.00  0.00    +0.021 C 
ATOM     14  C   LIG    1      -25.331  88.026  10.682  0.00  0.00    +0.107 C 
BRANCH  11  15
ATOM     15  C   LIG    1      -25.047  91.384  11.217  0.00  0.00    +0.011 A 
ATOM     16  C   LIG    1      -24.791  92.710  10.855  0.00  0.00    +0.129 A 
ATOM     17  F   LIG    1      -24.039  92.974   9.778  0.00  0.00    -0.205 F 
ATOM     18  C   LIG    1      -25.340  93.777  11.566  0.00  0.00    +0.041 A 
ATOM     19  C   LIG    1      -26.151  93.524  12.671  0.00  0.00    +0.041 A 
ATOM     20  C   LIG    1      -26.364  92.212  13.075  0.00  0.00    +0.124 A 
ATOM     21  F   LIG    1      -27.120  91.967  14.154  0.00  0.00    -0.205 F 
ATOM     22  C   LIG    1      -25.825  91.147  12.364  0.00  0.00    +0.046 A 
ENDBRANCH  11  15
ENDBRANCH   4  10
BRANCH   1  24
ATOM     23  C   LIG    1      -22.235  84.937  14.974  0.00  0.00    +0.285 C 
ATOM     24  N   LIG    1      -22.096  86.210  15.107  0.00  0.00    -0.194 NA
BRANCH  23  25
ATOM     25  O   LIG    1      -21.735  84.188  13.971  0.00  0.00    -0.481 OA
ATOM     26  H   LIG    1      -22.174  83.317  13.939  0.00  0.00    +0.295 HD
ENDBRANCH  23  25
BRANCH  23  27
ATOM     27  N   LIG    1      -22.883  84.073  15.810  0.00  0.00    -0.269 N 
ATOM     28  H   LIG    1      -23.262  84.521  16.629  0.00  0.00    +0.157 HD
BRANCH  27  29
ATOM     29  C   LIG    1      -22.941  82.675  15.776  0.00  0.00    +0.035 A 
ATOM     30  C   LIG    1      -22.142  81.943  16.672  0.00  0.00    +0.026 A 
ATOM     31  C   LIG    1      -22.153  80.544  16.667  0.00  0.00    +0.040 A 
ATOM     32  C   LIG    1      -22.993  79.871  15.790  0.00  0.00    +0.124 A 
ATOM     33  F   LIG    1      -22.987  78.533  15.763  0.00  0.00    -0.205 F 
ATOM     34  C   LIG    1      -23.832  80.568  14.937  0.00  0.00    +0.040 A 
ATOM     35  C   LIG    1      -23.794  81.962  14.925  0.00  0.00    +0.026 A 
ENDBRANCH  27  29
ENDBRANCH  23  27
ENDBRANCH   1  24
TORSDOF 6
ENDMDL
MODEL 3
REMARK VINA RESULT:      -6.5      5.801     10.773
REMARK  Name = pdb/CHEMBL3935820.pdb
REMARK                            x       y       z     vdW  Elec       q    Type
REMARK                         _______ _______ _______ _____ _____    ______ ____
ROOT
ATOM      1  C   LIG    1      -35.153  69.321  25.279  0.00  0.00    +0.133 A 
ATOM      2  C   LIG    1      -35.383  68.299  24.396  0.00  0.00    +0.183 A 
ATOM      3  N   LIG    1      -36.046  68.263  23.198  0.00  0.00    -0.211 NA
ATOM      4  C   LIG    1      -36.128  67.119  22.556  0.00  0.00    +0.126 A 
ATOM      5  C   LIG    1      -35.599  65.843  23.165  0.00  0.00    +0.063 A 
ATOM      6  C   LIG    1      -34.976  65.934  24.349  0.00  0.00    +0.118 A 
ATOM      7  N   LIG    1      -34.833  67.161  24.975  0.00  0.00    -0.220 N 
ATOM      8  N   LIG    1      -34.202  67.436  26.145  0.00  0.00    -0.171 NA
ATOM      9  C   LIG    1      -34.366  68.755  26.298  0.00  0.00    +0.165 A 
ENDROOT
BRANCH   4  10
ATOM     10  N   LIG    1      -36.742  67.101  21.313  0.00  0.00    -0.308 N 
ATOM     11  C   LIG    1      -37.544  68.245  20.834  0.00  0.00    +0.108 C 
ATOM     12  C   LIG    1      -37.413  68.211  19.297  0.00  0.00    +0.029 C 
ATOM     13  C   LIG    1      -36.212  67.320  19.043  0.00  0.00    +0.021 C 
ATOM     14  C   LIG    1      -36.297  66.307  20.173  0.00  0.00    +0.107 C 
BRANCH  11  15
ATOM     15  C   LIG    1      -38.999  68.108  21.220  0.00  0.00    +0.011 A 
ATOM     16  C   LIG    1      -39.562  69.053  22.083  0.00  0.00    +0.129 A 
ATOM     17  F   LIG    1      -38.781  69.978  22.658  0.00  0.00    -0.205 F 
ATOM     18  C   LIG    1      -40.934  69.087  22.329  0.00  0.00    +0.041 A 
ATOM     19  C   LIG    1      -41.768  68.154  21.716  0.00  0.00    +0.041 A 
ATOM     20  C   LIG    1      -41.214  67.173  20.903  0.00  0.00    +0.124 A 
ATOM     21  F   LIG    1      -42.009  66.257  20.336  0.00  0.00    -0.205 F 
ATOM     22  C   LIG    1      -39.847  67.141  20.650  0.00  0.00    +0.046 A 
ENDBRANCH  11  15
ENDBRANCH   4  10
BRANCH   1  24
ATOM     23  C   LIG    1      -36.531  71.145  25.801  0.00  0.00    +0.285 C 
ATOM     24  N   LIG    1      -35.491  70.675  25.207  0.00  0.00    -0.194 NA
BRANCH  23  25
ATOM     25  O   LIG    1      -37.426  70.430  26.513  0.00  0.00    -0.481 OA
ATOM     26  H   LIG    1      -38.336  70.634  26.228  0.00  0.00    +0.295 HD
ENDBRANCH  23  25
BRANCH  23  27
ATOM     27  N   LIG    1      -36.944  72.445  25.867  0.00  0.00    -0.269 N 
ATOM     28  H   LIG    1      -36.464  72.979  26.574  0.00  0.00    +0.157 HD
BRANCH  27  29
ATOM     29  C   LIG    1      -38.023  73.072  25.233  0.00  0.00    +0.035 A 
ATOM     30  C   LIG    1      -38.068  74.476  25.204  0.00  0.00    +0.026 A 
ATOM     31  C   LIG    1      -39.134  75.149  24.597  0.00  0.00    +0.040 A 
ATOM     32  C   LIG    1      -40.141  74.418  23.981  0.00  0.00    +0.124 A 
ATOM     33  F   LIG    1      -41.176  75.056  23.421  0.00  0.00    -0.205 F 
ATOM     34  C   LIG    1      -40.091  73.035  23.944  0.00  0.00    +0.040 A 
ATOM     35  C   LIG    1      -39.042  72.369  24.579  0.00  0.00    +0.026 A 
ENDBRANCH  27  29
ENDBRANCH  23  27
ENDBRANCH   1  24
TORSDOF 6
ENDMDL
MODEL 4
REMARK VINA RESULT:      -6.4      2.905      5.245
REMARK  Name = pdb/CHEMBL3935820.pdb
REMARK                            x       y       z     vdW  Elec       q    Type
REMARK                         _______ _______ _______ _____ _____    ______ ____
ROOT
ATOM      1  C   LIG    1      -34.826  71.706  28.113  0.00  0.00    +0.133 A 
ATOM      2  C   LIG    1      -34.100  72.845  28.344  0.00  0.00    +0.183 A 
ATOM      3  N   LIG    1      -34.245  74.126  27.884  0.00  0.00    -0.211 NA
ATOM      4  C   LIG    1      -33.377  75.036  28.265  0.00  0.00    +0.126 A 
ATOM      5  C   LIG    1      -32.179  74.667  29.106  0.00  0.00    +0.063 A 
ATOM      6  C   LIG    1      -32.076  73.394  29.513  0.00  0.00    +0.118 A 
ATOM      7  N   LIG    1      -33.042  72.466  29.164  0.00  0.00    -0.220 N 
ATOM      8  N   LIG    1      -33.114  71.157  29.519  0.00  0.00    -0.171 NA
ATOM      9  C   LIG    1      -34.222  70.717  28.910  0.00  0.00    +0.165 A 
ENDROOT
BRANCH   4  10
ATOM     10  N   LIG    1      -33.566  76.345  27.849  0.00  0.00    -0.308 N 
ATOM     11  C   LIG    1      -34.288  77.323  28.688  0.00  0.00    +0.108 C 
ATOM     12  C   LIG    1      -33.679  78.692  28.322  0.00  0.00    +0.029 C 
ATOM     13  C   LIG    1      -32.375  78.349  27.626  0.00  0.00    +0.021 C 
ATOM     14  C   LIG    1      -32.708  77.053  26.905  0.00  0.00    +0.107 C 
BRANCH  11  15
ATOM     15  C   LIG    1      -35.769  77.332  28.386  0.00  0.00    +0.011 A 
ATOM     16  C   LIG    1      -36.656  77.783  29.367  0.00  0.00    +0.129 A 
ATOM     17  F   LIG    1      -36.202  78.068  30.596  0.00  0.00    -0.205 F 
ATOM     18  C   LIG    1      -38.007  77.987  29.089  0.00  0.00    +0.041 A 
ATOM     19  C   LIG    1      -38.494  77.727  27.809  0.00  0.00    +0.041 A 
ATOM     20  C   LIG    1      -37.634  77.222  26.841  0.00  0.00    +0.124 A 
ATOM     21  F   LIG    1      -38.105  76.943  25.618  0.00  0.00    -0.205 F 
ATOM     22  C   LIG    1      -36.285  77.024  27.114  0.00  0.00    +0.046 A 
ENDBRANCH  11  15
ENDBRANCH   4  10
BRANCH   1  24
ATOM     23  C   LIG    1      -35.935  71.258  26.096  0.00  0.00    +0.285 C 
ATOM     24  N   LIG    1      -35.985  71.508  27.358  0.00  0.00    -0.194 NA
BRANCH  23  25
ATOM     25  O   LIG    1      -34.817  71.194  25.346  0.00  0.00    -0.481 OA
ATOM     26  H   LIG    1      -35.038  71.199  24.396  0.00  0.00    +0.295 HD
ENDBRANCH  23  25
BRANCH  23  27
ATOM     27  N   LIG    1      -36.975  70.984  25.254  0.00  0.00    -0.269 N 
ATOM     28  H   LIG    1      -36.879  70.101  24.778  0.00  0.00    +0.157 HD
BRANCH  27  29
ATOM     29  C   LIG    1      -38.030  71.807  24.843  0.00  0.00    +0.035 A 
ATOM     30  C   LIG    1      -37.894  73.199  24.977  0.00  0.00    +0.026 A 
ATOM     31  C   LIG    1      -38.927  74.062  24.595  0.00  0.00    +0.040 A 
ATOM     32  C   LIG    1      -40.087  73.537  24.041  0.00  0.00    +0.124 A 
ATOM     33  F   LIG    1      -41.088  74.357  23.699  0.00  0.00    -0.205 F 
ATOM     34  C   LIG    1      -40.223  72.173  23.845  0.00  0.00    +0.040 A 
ATOM     35  C   LIG    1      -39.203  71.316  24.257  0.00  0.00    +0.026 A 
ENDBRANCH  27  29
ENDBRANCH  23  27
ENDBRANCH   1  24
TORSDOF 6
ENDMDL
MODEL 5
REMARK VINA RESULT:      -6.4      3.907      6.431
REMARK  Name = pdb/CHEMBL3935820.pdb
REMARK                            x       y       z     vdW  Elec       q    Type
REMARK                         _______ _______ _______ _____ _____    ______ ____
ROOT
ATOM      1  C   LIG    1      -35.120  78.061  28.061  0.00  0.00    +0.133 A 
ATOM      2  C   LIG    1      -35.427  79.391  28.187  0.00  0.00    +0.183 A 
ATOM      3  N   LIG    1      -35.948  80.294  27.298  0.00  0.00    -0.211 NA
ATOM      4  C   LIG    1      -36.128  81.534  27.691  0.00  0.00    +0.126 A 
ATOM      5  C   LIG    1      -35.677  81.993  29.056  0.00  0.00    +0.063 A 
ATOM      6  C   LIG    1      -35.155  81.072  29.879  0.00  0.00    +0.118 A 
ATOM      7  N   LIG    1      -35.043  79.753  29.473  0.00  0.00    -0.220 N 
ATOM      8  N   LIG    1      -34.579  78.694  30.186  0.00  0.00    -0.171 NA
ATOM      9  C   LIG    1      -34.670  77.667  29.334  0.00  0.00    +0.165 A 
ENDROOT
BRANCH   4  10
ATOM     10  N   LIG    1      -36.717  82.428  26.809  0.00  0.00    -0.308 N 
ATOM     11  C   LIG    1      -38.181  82.616  26.767  0.00  0.00    +0.108 C 
ATOM     12  C   LIG    1      -38.384  84.074  26.305  0.00  0.00    +0.029 C 
ATOM     13  C   LIG    1      -37.036  84.731  26.531  0.00  0.00    +0.021 C 
ATOM     14  C   LIG    1      -36.058  83.602  26.247  0.00  0.00    +0.107 C 
BRANCH  11  15
ATOM     15  C   LIG    1      -38.836  81.677  25.779  0.00  0.00    +0.011 A 
ATOM     16  C   LIG    1      -39.493  80.541  26.260  0.00  0.00    +0.129 A 
ATOM     17  F   LIG    1      -39.419  80.229  27.562  0.00  0.00    -0.205 F 
ATOM     18  C   LIG    1      -40.268  79.740  25.423  0.00  0.00    +0.041 A 
ATOM     19  C   LIG    1      -40.385  80.064  24.072  0.00  0.00    +0.041 A 
ATOM     20  C   LIG    1      -39.689  81.156  23.570  0.00  0.00    +0.124 A 
ATOM     21  F   LIG    1      -39.776  81.454  22.267  0.00  0.00    -0.205 F 
ATOM     22  C   LIG    1      -38.922  81.962  24.405  0.00  0.00    +0.046 A 
ENDBRANCH  11  15
ENDBRANCH   4  10
BRANCH   1  24
ATOM     23  C   LIG    1      -36.330  76.442  26.873  0.00  0.00    +0.285 C 
ATOM     24  N   LIG    1      -35.289  77.191  26.981  0.00  0.00    -0.194 NA
BRANCH  23  25
ATOM     25  O   LIG    1      -37.342  76.361  27.761  0.00  0.00    -0.481 OA
ATOM     26  H   LIG    1      -37.295  75.525  28.261  0.00  0.00    +0.295 HD
ENDBRANCH  23  25
BRANCH  23  27
ATOM     27  N   LIG    1      -36.653  75.598  25.849  0.00  0.00    -0.269 N 
ATOM     28  H   LIG    1      -35.851  75.141  25.442  0.00  0.00    +0.157 HD
BRANCH  27  29
ATOM     29  C   LIG    1      -37.876  75.418  25.193  0.00  0.00    +0.035 A 
ATOM     30  C   LIG    1      -38.373  74.112  25.035  0.00  0.00    +0.026 A 
ATOM     31  C   LIG    1      -39.583  73.879  24.373  0.00  0.00    +0.040 A 
ATOM     32  C   LIG    1      -40.321  74.955  23.900  0.00  0.00    +0.124 A 
ATOM     33  F   LIG    1      -41.467  74.736  23.242  0.00  0.00    -0.205 F 
ATOM     34  C   LIG    1      -39.883  76.255  24.092  0.00  0.00    +0.040 A 
ATOM     35  C   LIG    1      -38.661  76.479  24.725  0.00  0.00    +0.026 A 
ENDBRANCH  27  29
ENDBRANCH  23  27
ENDBRANCH   1  24
TORSDOF 6
ENDMDL
MODEL 6
REMARK VINA RESULT:      -6.2      2.887      5.936
REMARK  Name = pdb/CHEMBL3935820.pdb
REMARK                            x       y       z     vdW  Elec       q    Type
REMARK                         _______ _______ _______ _____ _____    ______ ____
ROOT
ATOM      1  C   LIG    1      -33.937  76.630  27.472  0.00  0.00    +0.133 A 
ATOM      2  C   LIG    1      -33.499  75.540  28.179  0.00  0.00    +0.183 A 
ATOM      3  N   LIG    1      -34.055  74.306  28.388  0.00  0.00    -0.211 NA
ATOM      4  C   LIG    1      -33.409  73.441  29.136  0.00  0.00    +0.126 A 
ATOM      5  C   LIG    1      -32.131  73.822  29.842  0.00  0.00    +0.063 A 
ATOM      6  C   LIG    1      -31.641  75.050  29.618  0.00  0.00    +0.118 A 
ATOM      7  N   LIG    1      -32.297  75.921  28.766  0.00  0.00    -0.220 N 
ATOM      8  N   LIG    1      -31.924  77.174  28.399  0.00  0.00    -0.171 NA
ATOM      9  C   LIG    1      -32.904  77.577  27.582  0.00  0.00    +0.165 A 
ENDROOT
BRANCH   4  10
ATOM     10  N   LIG    1      -33.944  72.171  29.290  0.00  0.00    -0.308 N 
ATOM     11  C   LIG    1      -33.934  71.192  28.185  0.00  0.00    +0.108 C 
ATOM     12  C   LIG    1      -33.882  69.812  28.874  0.00  0.00    +0.029 C 
ATOM     13  C   LIG    1      -33.436  70.116  30.291  0.00  0.00    +0.021 C 
ATOM     14  C   LIG    1      -34.074  71.469  30.563  0.00  0.00    +0.107 C 
BRANCH  11  15
ATOM     15  C   LIG    1      -35.185  71.288  27.342  0.00  0.00    +0.011 A 
ATOM     16  C   LIG    1      -35.169  70.765  26.046  0.00  0.00    +0.129 A 
ATOM     17  F   LIG    1      -34.019  70.313  25.524  0.00  0.00    -0.205 F 
ATOM     18  C   LIG    1      -36.335  70.658  25.289  0.00  0.00    +0.041 A 
ATOM     19  C   LIG    1      -37.546  71.092  25.825  0.00  0.00    +0.041 A 
ATOM     20  C   LIG    1      -37.566  71.668  27.089  0.00  0.00    +0.124 A 
ATOM     21  F   LIG    1      -38.724  72.113  27.595  0.00  0.00    -0.205 F 
ATOM     22  C   LIG    1      -36.406  71.769  27.849  0.00  0.00    +0.046 A 
ENDBRANCH  11  15
ENDBRANCH   4  10
BRANCH   1  24
ATOM     23  C   LIG    1      -36.211  77.144  27.223  0.00  0.00    +0.285 C 
ATOM     24  N   LIG    1      -35.087  76.804  26.698  0.00  0.00    -0.194 NA
BRANCH  23  25
ATOM     25  O   LIG    1      -36.445  77.333  28.537  0.00  0.00    -0.481 OA
ATOM     26  H   LIG    1      -36.803  78.225  28.700  0.00  0.00    +0.295 HD
ENDBRANCH  23  25
BRANCH  23  27
ATOM     27  N   LIG    1      -37.389  77.408  26.584  0.00  0.00    -0.269 N 
ATOM     28  H   LIG    1      -37.787  78.299  26.837  0.00  0.00    +0.157 HD
BRANCH  27  29
ATOM     29  C   LIG    1      -38.181  76.570  25.790  0.00  0.00    +0.035 A 
ATOM     30  C   LIG    1      -39.170  77.148  24.975  0.00  0.00    +0.026 A 
ATOM     31  C   LIG    1      -39.997  76.351  24.176  0.00  0.00    +0.040 A 
ATOM     32  C   LIG    1      -39.813  74.975  24.159  0.00  0.00    +0.124 A 
ATOM     33  F   LIG    1      -40.618  74.207  23.417  0.00  0.00    -0.205 F 
ATOM     34  C   LIG    1      -38.808  74.387  24.909  0.00  0.00    +0.040 A 
ATOM     35  C   LIG    1      -38.007  75.183  25.727  0.00  0.00    +0.026 A 
ENDBRANCH  27  29
ENDBRANCH  23  27
ENDBRANCH   1  24
TORSDOF 6
ENDMDL
MODEL 7
REMARK VINA RESULT:      -6.2     10.467     13.811
REMARK  Name = pdb/CHEMBL3935820.pdb
REMARK                            x       y       z     vdW  Elec       q    Type
REMARK                         _______ _______ _______ _____ _____    ______ ____
ROOT
ATOM      1  C   LIG    1      -24.171  79.469  34.898  0.00  0.00    +0.133 A 
ATOM      2  C   LIG    1      -23.034  79.097  34.230  0.00  0.00    +0.183 A 
ATOM      3  N   LIG    1      -22.825  78.199  33.218  0.00  0.00    -0.211 NA
ATOM      4  C   LIG    1      -21.603  78.028  32.768  0.00  0.00    +0.126 A 
ATOM      5  C   LIG    1      -20.429  78.723  33.415  0.00  0.00    +0.063 A 
ATOM      6  C   LIG    1      -20.689  79.577  34.414  0.00  0.00    +0.118 A 
ATOM      7  N   LIG    1      -21.992  79.801  34.825  0.00  0.00    -0.220 N 
ATOM      8  N   LIG    1      -22.434  80.653  35.785  0.00  0.00    -0.171 NA
ATOM      9  C   LIG    1      -23.760  80.474  35.792  0.00  0.00    +0.165 A 
ENDROOT
BRANCH   4  10
ATOM     10  N   LIG    1      -21.406  77.166  31.699  0.00  0.00    -0.308 N 
ATOM     11  C   LIG    1      -22.447  76.964  30.672  0.00  0.00    +0.108 C 
ATOM     12  C   LIG    1      -21.675  76.615  29.382  0.00  0.00    +0.029 C 
ATOM     13  C   LIG    1      -20.253  77.061  29.664  0.00  0.00    +0.021 C 
ATOM     14  C   LIG    1      -20.104  76.797  31.154  0.00  0.00    +0.107 C 
BRANCH  11  15
ATOM     15  C   LIG    1      -23.372  75.823  31.031  0.00  0.00    +0.011 A 
ATOM     16  C   LIG    1      -24.732  76.089  31.215  0.00  0.00    +0.129 A 
ATOM     17  F   LIG    1      -25.172  77.355  31.207  0.00  0.00    -0.205 F 
ATOM     18  C   LIG    1      -25.660  75.059  31.366  0.00  0.00    +0.041 A 
ATOM     19  C   LIG    1      -25.229  73.734  31.346  0.00  0.00    +0.041 A 
ATOM     20  C   LIG    1      -23.873  73.459  31.223  0.00  0.00    +0.124 A 
ATOM     21  F   LIG    1      -23.452  72.188  31.232  0.00  0.00    -0.205 F 
ATOM     22  C   LIG    1      -22.946  74.483  31.065  0.00  0.00    +0.046 A 
ENDBRANCH  11  15
ENDBRANCH   4  10
BRANCH   1  24
ATOM     23  C   LIG    1      -25.939  77.956  35.189  0.00  0.00    +0.285 C 
ATOM     24  N   LIG    1      -25.498  79.070  34.720  0.00  0.00    -0.194 NA
BRANCH  23  25
ATOM     25  O   LIG    1      -25.212  77.036  35.855  0.00  0.00    -0.481 OA
ATOM     26  H   LIG    1      -25.519  76.134  35.643  0.00  0.00    +0.295 HD
ENDBRANCH  23  25
BRANCH  23  27
ATOM     27  N   LIG    1      -27.216  77.473  35.144  0.00  0.00    -0.269 N 
ATOM     28  H   LIG    1      -27.726  77.618  36.001  0.00  0.00    +0.157 HD
BRANCH  27  29
ATOM     29  C   LIG    1      -27.835  76.679  34.172  0.00  0.00    +0.035 A 
ATOM     30  C   LIG    1      -27.990  75.304  34.420  0.00  0.00    +0.026 A 
ATOM     31  C   LIG    1      -28.588  74.466  33.473  0.00  0.00    +0.040 A 
ATOM     32  C   LIG    1      -29.069  75.007  32.288  0.00  0.00    +0.124 A 
ATOM     33  F   LIG    1      -29.618  74.205  31.368  0.00  0.00    -0.205 F 
ATOM     34  C   LIG    1      -28.980  76.367  32.044  0.00  0.00    +0.040 A 
ATOM     35  C   LIG    1      -28.355  77.193  32.978  0.00  0.00    +0.026 A 
ENDBRANCH  27  29
ENDBRANCH  23  27
ENDBRANCH   1  24
TORSDOF 6
ENDMDL
MODEL 8
REMARK VINA RESULT:      -6.1      3.513      7.604
REMARK  Name = pdb/CHEMBL3935820.pdb
REMARK                            x       y       z     vdW  Elec       q    Type
REMARK                         _______ _______ _______ _____ _____    ______ ____
ROOT
ATOM      1  C   LIG    1      -36.658  74.702  28.372  0.00  0.00    +0.133 A 
ATOM      2  C   LIG    1      -36.550  73.387  28.001  0.00  0.00    +0.183 A 
ATOM      3  N   LIG    1      -37.143  72.672  26.994  0.00  0.00    -0.211 NA
ATOM      4  C   LIG    1      -36.861  71.395  26.877  0.00  0.00    +0.126 A 
ATOM      5  C   LIG    1      -35.987  70.692  27.886  0.00  0.00    +0.063 A 
ATOM      6  C   LIG    1      -35.447  71.436  28.863  0.00  0.00    +0.118 A 
ATOM      7  N   LIG    1      -35.696  72.797  28.926  0.00  0.00    -0.220 N 
ATOM      8  N   LIG    1      -35.204  73.697  29.815  0.00  0.00    -0.171 NA
ATOM      9  C   LIG    1      -35.761  74.856  29.444  0.00  0.00    +0.165 A 
ENDROOT
BRANCH   4  10
ATOM     10  N   LIG    1      -37.413  70.691  25.817  0.00  0.00    -0.308 N 
ATOM     11  C   LIG    1      -37.617  71.322  24.497  0.00  0.00    +0.108 C 
ATOM     12  C   LIG    1      -37.508  70.167  23.480  0.00  0.00    +0.029 C 
ATOM     13  C   LIG    1      -36.830  69.050  24.251  0.00  0.00    +0.021 C 
ATOM     14  C   LIG    1      -37.365  69.241  25.661  0.00  0.00    +0.107 C 
BRANCH  11  15
ATOM     15  C   LIG    1      -38.982  71.963  24.389  0.00  0.00    +0.011 A 
ATOM     16  C   LIG    1      -39.073  73.357  24.343  0.00  0.00    +0.129 A 
ATOM     17  F   LIG    1      -37.975  74.103  24.530  0.00  0.00    -0.205 F 
ATOM     18  C   LIG    1      -40.278  73.999  24.061  0.00  0.00    +0.041 A 
ATOM     19  C   LIG    1      -41.425  73.241  23.831  0.00  0.00    +0.041 A 
ATOM     20  C   LIG    1      -41.361  71.857  23.932  0.00  0.00    +0.124 A 
ATOM     21  F   LIG    1      -42.468  71.128  23.740  0.00  0.00    -0.205 F 
ATOM     22  C   LIG    1      -40.159  71.214  24.206  0.00  0.00    +0.046 A 
ENDBRANCH  11  15
ENDBRANCH   4  10
BRANCH   1  24
ATOM     23  C   LIG    1      -36.910  76.459  26.840  0.00  0.00    +0.285 C 
ATOM     24  N   LIG    1      -37.387  75.747  27.800  0.00  0.00    -0.194 NA
BRANCH  23  25
ATOM     25  O   LIG    1      -35.681  76.334  26.298  0.00  0.00    -0.481 OA
ATOM     26  H   LIG    1      -35.382  77.183  25.922  0.00  0.00    +0.295 HD
ENDBRANCH  23  25
BRANCH  23  27
ATOM     27  N   LIG    1      -37.530  77.461  26.150  0.00  0.00    -0.269 N 
ATOM     28  H   LIG    1      -37.097  78.362  26.283  0.00  0.00    +0.157 HD
BRANCH  27  29
ATOM     29  C   LIG    1      -38.742  77.446  25.451  0.00  0.00    +0.035 A 
ATOM     30  C   LIG    1      -38.712  77.476  24.045  0.00  0.00    +0.026 A 
ATOM     31  C   LIG    1      -39.897  77.478  23.302  0.00  0.00    +0.040 A 
ATOM     32  C   LIG    1      -41.117  77.411  23.960  0.00  0.00    +0.124 A 
ATOM     33  F   LIG    1      -42.254  77.440  23.254  0.00  0.00    -0.205 F 
ATOM     34  C   LIG    1      -41.173  77.323  25.341  0.00  0.00    +0.040 A 
ATOM     35  C   LIG    1      -39.990  77.353  26.078  0.00  0.00    +0.026 A 
ENDBRANCH  27  29
ENDBRANCH  23  27
ENDBRANCH   1  24
TORSDOF 6
ENDMDL
MODEL 9
REMARK VINA RESULT:      -6.1      8.132     12.000
REMARK  Name = pdb/CHEMBL3935820.pdb
REMARK                            x       y       z     vdW  Elec       q    Type
REMARK                         _______ _______ _______ _____ _____    ______ ____
ROOT
ATOM      1  C   LIG    1      -26.583  71.454  31.036  0.00  0.00    +0.133 A 
ATOM      2  C   LIG    1      -25.595  72.369  31.291  0.00  0.00    +0.183 A 
ATOM      3  N   LIG    1      -25.592  73.738  31.266  0.00  0.00    -0.211 NA
ATOM      4  C   LIG    1      -24.477  74.373  31.545  0.00  0.00    +0.126 A 
ATOM      5  C   LIG    1      -23.190  73.620  31.786  0.00  0.00    +0.063 A 
ATOM      6  C   LIG    1      -23.246  72.281  31.780  0.00  0.00    +0.118 A 
ATOM      7  N   LIG    1      -24.447  71.630  31.559  0.00  0.00    -0.220 N 
ATOM      8  N   LIG    1      -24.688  70.293  31.558  0.00  0.00    -0.171 NA
ATOM      9  C   LIG    1      -25.994  70.200  31.282  0.00  0.00    +0.165 A 
ENDROOT
BRANCH   4  10
ATOM     10  N   LIG    1      -24.496  75.759  31.582  0.00  0.00    -0.308 N 
ATOM     11  C   LIG    1      -23.899  76.566  30.499  0.00  0.00    +0.108 C 
ATOM     12  C   LIG    1      -24.714  77.876  30.480  0.00  0.00    +0.029 C 
ATOM     13  C   LIG    1      -25.975  77.545  31.254  0.00  0.00    +0.021 C 
ATOM     14  C   LIG    1      -25.479  76.561  32.302  0.00  0.00    +0.107 C 
BRANCH  11  15
ATOM     15  C   LIG    1      -22.445  76.881  30.774  0.00  0.00    +0.011 A 
ATOM     16  C   LIG    1      -21.502  76.650  29.769  0.00  0.00    +0.129 A 
ATOM     17  F   LIG    1      -21.871  76.034  28.637  0.00  0.00    -0.205 F 
ATOM     18  C   LIG    1      -20.184  77.087  29.894  0.00  0.00    +0.041 A 
ATOM     19  C   LIG    1      -19.787  77.758  31.049  0.00  0.00    +0.041 A 
ATOM     20  C   LIG    1      -20.700  77.941  32.080  0.00  0.00    +0.124 A 
ATOM     21  F   LIG    1      -20.314  78.560  33.204  0.00  0.00    -0.205 F 
ATOM     22  C   LIG    1      -22.017  77.513  31.955  0.00  0.00    +0.046 A 
ENDBRANCH  11  15
ENDBRANCH   4  10
BRANCH   1  24
ATOM     23  C   LIG    1      -28.812  71.903  31.607  0.00  0.00    +0.285 C 
ATOM     24  N   LIG    1      -27.928  71.641  30.710  0.00  0.00    -0.194 NA
BRANCH  23  25
ATOM     25  O   LIG    1      -28.589  71.992  32.934  0.00  0.00    -0.481 OA
ATOM     26  H   LIG    1      -28.504  72.924  33.209  0.00  0.00    +0.295 HD
ENDBRANCH  23  25
BRANCH  23  27
ATOM     27  N   LIG    1      -30.139  72.169  31.425  0.00  0.00    -0.269 N 
ATOM     28  H   LIG    1      -30.735  71.388  31.648  0.00  0.00    +0.157 HD
BRANCH  27  29
ATOM     29  C   LIG    1      -30.753  73.276  30.827  0.00  0.00    +0.035 A 
ATOM     30  C   LIG    1      -30.297  74.564  31.158  0.00  0.00    +0.026 A 
ATOM     31  C   LIG    1      -30.888  75.701  30.599  0.00  0.00    +0.040 A 
ATOM     32  C   LIG    1      -31.915  75.555  29.677  0.00  0.00    +0.124 A 
ATOM     33  F   LIG    1      -32.502  76.641  29.159  0.00  0.00    -0.205 F 
ATOM     34  C   LIG    1      -32.345  74.296  29.290  0.00  0.00    +0.040 A 
ATOM     35  C   LIG    1      -31.772  73.167  29.873  0.00  0.00    +0.026 A 
ENDBRANCH  27  29
ENDBRANCH  23  27
ENDBRANCH   1  24
TORSDOF 6
ENDMDL
