MODEL 1
REMARK VINA RESULT:      -7.1      0.000      0.000
REMARK  Name = pdb/CHEMBL3915172.pdb
REMARK                            x       y       z     vdW  Elec       q    Type
REMARK                         _______ _______ _______ _____ _____    ______ ____
ROOT
ATOM      1  C   LIG    1      -36.087  69.125  24.938  0.00  0.00    +0.131 C 
ATOM      2  N   LIG    1      -37.033  70.066  24.796  0.00  0.00    -0.141 NA
ATOM      3  N   LIG    1      -36.651  71.088  25.601  0.00  0.00    -0.201 N 
ATOM      4  C   LIG    1      -35.350  70.900  26.094  0.00  0.00    +0.185 C 
ATOM      5  C   LIG    1      -35.051  69.588  25.796  0.00  0.00    +0.056 C 
ENDROOT
BRANCH   3   6
ATOM      6  C   LIG    1      -37.522  72.197  25.785  0.00  0.00    +0.052 A 
ATOM      7  C   LIG    1      -37.801  72.690  27.065  0.00  0.00    +0.025 A 
ATOM      8  C   LIG    1      -38.668  73.773  27.225  0.00  0.00    +0.002 A 
ATOM      9  C   LIG    1      -39.267  74.363  26.112  0.00  0.00    +0.000 A 
ATOM     10  C   LIG    1      -39.006  73.869  24.837  0.00  0.00    +0.002 A 
ATOM     11  C   LIG    1      -38.146  72.779  24.671  0.00  0.00    +0.025 A 
ENDBRANCH   3   6
BRANCH   4  12
ATOM     12  N   LIG    1      -34.514  71.880  26.669  0.00  0.00    -0.282 N 
ATOM     13  H   LIG    1      -33.911  72.394  26.049  0.00  0.00    +0.152 HD
ATOM     14  C   LIG    1      -34.380  72.100  28.098  0.00  0.00    +0.247 C 
ATOM     15  O   LIG    1      -35.002  71.426  28.884  0.00  0.00    -0.270 OA
BRANCH  14  16
ATOM     16  C   LIG    1      -33.363  73.082  28.587  0.00  0.00    +0.056 A 
ATOM     17  C   LIG    1      -32.231  72.731  29.309  0.00  0.00    +0.054 A 
ATOM     18 CL   LIG    1      -31.725  71.099  29.535  0.00  0.00    -0.083 Cl
ATOM     19  C   LIG    1      -31.413  73.727  29.847  0.00  0.00    +0.041 A 
ATOM     20  C   LIG    1      -31.676  75.085  29.610  0.00  0.00    +0.052 A 
ATOM     21 CL   LIG    1      -30.714  76.201  30.524  0.00  0.00    -0.083 Cl
ATOM     22  C   LIG    1      -32.709  75.486  28.737  0.00  0.00    +0.022 A 
ATOM     23  C   LIG    1      -33.564  74.449  28.266  0.00  0.00    +0.026 A 
BRANCH  22  24
ATOM     24  C   LIG    1      -32.889  76.895  28.280  0.00  0.00    +0.107 A 
ATOM     25  C   LIG    1      -33.675  77.839  28.945  0.00  0.00    +0.149 A 
ATOM     26  F   LIG    1      -34.284  77.549  30.104  0.00  0.00    -0.203 F 
ATOM     27  C   LIG    1      -33.831  79.120  28.417  0.00  0.00    +0.042 A 
ATOM     28  C   LIG    1      -33.167  79.460  27.246  0.00  0.00    +0.023 A 
ATOM     29  C   LIG    1      -32.397  78.486  26.639  0.00  0.00    +0.111 A 
ATOM     30  N   LIG    1      -32.276  77.220  27.109  0.00  0.00    -0.252 NA
ENDBRANCH  22  24
ENDBRANCH  14  16
ENDBRANCH   4  12
BRANCH   1  31
ATOM     31  C   LIG    1      -36.128  67.857  24.197  0.00  0.00    +0.233 C 
ATOM     32  N   LIG    1      -36.244  67.857  22.918  0.00  0.00    -0.248 NA
BRANCH  31  33
ATOM     33  O   LIG    1      -36.098  66.751  24.972  0.00  0.00    -0.491 OA
ATOM     34  H   LIG    1      -36.137  65.933  24.464  0.00  0.00    +0.294 HD
ENDBRANCH  31  33
BRANCH  32  35
ATOM     35  C   LIG    1      -36.314  66.599  22.181  0.00  0.00    +0.162 C 
BRANCH  35  36
ATOM     36  C   LIG    1      -35.325  66.632  21.042  0.00  0.00    +0.052 C 
ATOM     37  C   LIG    1      -35.860  66.703  19.677  0.00  0.00    +0.028 C 
ATOM     38  C   LIG    1      -35.019  66.733  18.630  0.00  0.00    +0.184 C 
ATOM     39  N   LIG    1      -33.663  66.694  18.808  0.00  0.00    -0.210 N 
ATOM     40  H   LIG    1      -33.042  66.735  18.011  0.00  0.00    +0.298 HD
ATOM     41  C   LIG    1      -33.092  66.617  20.049  0.00  0.00    +0.295 C 
ATOM     42  C   LIG    1      -33.989  66.570  21.249  0.00  0.00    +0.083 C 
BRANCH  41  43
ATOM     43  N   LIG    1      -31.801  66.588  20.159  0.00  0.00    -0.071 NA
ATOM     44  H   LIG    1      -31.502  67.026  21.033  0.00  0.00    +0.348 HD
ENDBRANCH  41  43
ENDBRANCH  35  36
ENDBRANCH  32  35
ENDBRANCH   1  31
TORSDOF 9
ENDMDL
MODEL 2
REMARK VINA RESULT:      -6.8      5.671     11.900
REMARK  Name = pdb/CHEMBL3915172.pdb
REMARK                            x       y       z     vdW  Elec       q    Type
REMARK                         _______ _______ _______ _____ _____    ______ ____
ROOT
ATOM      1  C   LIG    1      -37.094  80.106  27.558  0.00  0.00    +0.131 C 
ATOM      2  N   LIG    1      -36.011  79.358  27.822  0.00  0.00    -0.141 NA
ATOM      3  N   LIG    1      -36.424  78.071  27.724  0.00  0.00    -0.201 N 
ATOM      4  C   LIG    1      -37.718  77.985  27.183  0.00  0.00    +0.185 C 
ATOM      5  C   LIG    1      -38.198  79.276  27.218  0.00  0.00    +0.056 C 
ENDROOT
BRANCH   3   6
ATOM      6  C   LIG    1      -35.537  77.021  28.085  0.00  0.00    +0.052 A 
ATOM      7  C   LIG    1      -34.555  76.569  27.196  0.00  0.00    +0.025 A 
ATOM      8  C   LIG    1      -33.701  75.528  27.566  0.00  0.00    +0.002 A 
ATOM      9  C   LIG    1      -33.828  74.927  28.818  0.00  0.00    +0.000 A 
ATOM     10  C   LIG    1      -34.814  75.360  29.702  0.00  0.00    +0.002 A 
ATOM     11  C   LIG    1      -35.677  76.396  29.334  0.00  0.00    +0.025 A 
ENDBRANCH   3   6
BRANCH   4  12
ATOM     12  N   LIG    1      -38.328  76.837  26.634  0.00  0.00    -0.282 N 
ATOM     13  H   LIG    1      -38.966  76.328  27.223  0.00  0.00    +0.152 HD
ATOM     14  C   LIG    1      -37.997  76.280  25.336  0.00  0.00    +0.247 C 
ATOM     15  O   LIG    1      -37.152  76.796  24.643  0.00  0.00    -0.270 OA
BRANCH  14  16
ATOM     16  C   LIG    1      -38.621  74.985  24.923  0.00  0.00    +0.056 A 
ATOM     17  C   LIG    1      -39.794  74.888  24.188  0.00  0.00    +0.054 A 
ATOM     18 CL   LIG    1      -40.561  76.245  23.454  0.00  0.00    -0.083 Cl
ATOM     19  C   LIG    1      -40.378  73.637  23.971  0.00  0.00    +0.041 A 
ATOM     20  C   LIG    1      -39.759  72.462  24.425  0.00  0.00    +0.052 A 
ATOM     21 CL   LIG    1      -40.707  71.018  24.282  0.00  0.00    -0.083 Cl
ATOM     22  C   LIG    1      -38.480  72.494  25.019  0.00  0.00    +0.022 A 
ATOM     23  C   LIG    1      -37.950  73.789  25.286  0.00  0.00    +0.026 A 
BRANCH  22  24
ATOM     24  C   LIG    1      -37.687  71.265  25.314  0.00  0.00    +0.107 A 
ATOM     25  C   LIG    1      -37.284  70.342  24.347  0.00  0.00    +0.149 A 
ATOM     26  F   LIG    1      -37.537  70.540  23.045  0.00  0.00    -0.203 F 
ATOM     27  C   LIG    1      -36.590  69.191  24.719  0.00  0.00    +0.042 A 
ATOM     28  C   LIG    1      -36.270  68.992  26.056  0.00  0.00    +0.023 A 
ATOM     29  C   LIG    1      -36.688  69.944  26.966  0.00  0.00    +0.111 A 
ATOM     30  N   LIG    1      -37.408  71.042  26.628  0.00  0.00    -0.252 NA
ENDBRANCH  22  24
ENDBRANCH  14  16
ENDBRANCH   4  12
BRANCH   1  31
ATOM     31  C   LIG    1      -37.045  81.574  27.538  0.00  0.00    +0.233 C 
ATOM     32  N   LIG    1      -36.336  82.188  26.661  0.00  0.00    -0.248 NA
BRANCH  31  33
ATOM     33  O   LIG    1      -37.738  82.173  28.531  0.00  0.00    -0.491 OA
ATOM     34  H   LIG    1      -38.681  82.245  28.343  0.00  0.00    +0.294 HD
ENDBRANCH  31  33
BRANCH  32  35
ATOM     35  C   LIG    1      -36.263  83.646  26.657  0.00  0.00    +0.162 C 
BRANCH  35  36
ATOM     36  C   LIG    1      -36.967  84.177  25.432  0.00  0.00    +0.052 C 
ATOM     37  C   LIG    1      -36.882  85.618  25.169  0.00  0.00    +0.028 C 
ATOM     38  C   LIG    1      -37.493  86.139  24.093  0.00  0.00    +0.184 C 
ATOM     39  N   LIG    1      -38.204  85.350  23.230  0.00  0.00    -0.210 N 
ATOM     40  H   LIG    1      -38.645  85.754  22.414  0.00  0.00    +0.298 HD
ATOM     41  C   LIG    1      -38.337  84.001  23.416  0.00  0.00    +0.295 C 
ATOM     42  C   LIG    1      -37.681  83.374  24.610  0.00  0.00    +0.083 C 
BRANCH  41  43
ATOM     43  N   LIG    1      -39.019  83.302  22.565  0.00  0.00    -0.071 NA
ATOM     44  H   LIG    1      -38.575  83.322  21.643  0.00  0.00    +0.348 HD
ENDBRANCH  41  43
ENDBRANCH  35  36
ENDBRANCH  32  35
ENDBRANCH   1  31
TORSDOF 9
ENDMDL
MODEL 3
REMARK VINA RESULT:      -6.8     16.782     20.732
REMARK  Name = pdb/CHEMBL3915172.pdb
REMARK                            x       y       z     vdW  Elec       q    Type
REMARK                         _______ _______ _______ _____ _____    ______ ____
ROOT
ATOM      1  C   LIG    1      -22.727  82.926  15.528  0.00  0.00    +0.131 C 
ATOM      2  N   LIG    1      -23.866  82.368  15.088  0.00  0.00    -0.141 NA
ATOM      3  N   LIG    1      -23.597  81.046  14.960  0.00  0.00    -0.201 N 
ATOM      4  C   LIG    1      -22.354  80.714  15.523  0.00  0.00    +0.185 C 
ATOM      5  C   LIG    1      -21.739  81.927  15.747  0.00  0.00    +0.056 C 
ENDROOT
BRANCH   3   6
ATOM      6  C   LIG    1      -24.568  80.187  14.375  0.00  0.00    +0.052 A 
ATOM      7  C   LIG    1      -24.860  80.253  13.008  0.00  0.00    +0.025 A 
ATOM      8  C   LIG    1      -25.825  79.408  12.456  0.00  0.00    +0.002 A 
ATOM      9  C   LIG    1      -26.511  78.503  13.265  0.00  0.00    +0.000 A 
ATOM     10  C   LIG    1      -26.237  78.442  14.629  0.00  0.00    +0.002 A 
ATOM     11  C   LIG    1      -25.278  79.291  15.189  0.00  0.00    +0.025 A 
ENDBRANCH   3   6
BRANCH   4  12
ATOM     12  N   LIG    1      -21.902  79.424  15.869  0.00  0.00    -0.282 N 
ATOM     13  H   LIG    1      -21.905  79.180  16.846  0.00  0.00    +0.152 HD
ATOM     14  C   LIG    1      -21.317  78.486  14.929  0.00  0.00    +0.247 C 
ATOM     15  O   LIG    1      -21.189  78.783  13.764  0.00  0.00    -0.270 OA
BRANCH  14  16
ATOM     16  C   LIG    1      -20.755  77.199  15.444  0.00  0.00    +0.056 A 
ATOM     17  C   LIG    1      -19.464  77.056  15.930  0.00  0.00    +0.054 A 
ATOM     18 CL   LIG    1      -18.414  78.390  16.223  0.00  0.00    -0.083 Cl
ATOM     19  C   LIG    1      -18.979  75.786  16.255  0.00  0.00    +0.041 A 
ATOM     20  C   LIG    1      -19.804  74.654  16.167  0.00  0.00    +0.052 A 
ATOM     21 CL   LIG    1      -19.003  73.131  16.384  0.00  0.00    -0.083 Cl
ATOM     22  C   LIG    1      -21.173  74.771  15.850  0.00  0.00    +0.022 A 
ATOM     23  C   LIG    1      -21.611  76.068  15.456  0.00  0.00    +0.026 A 
BRANCH  22  24
ATOM     24  C   LIG    1      -22.136  73.636  15.959  0.00  0.00    +0.107 A 
ATOM     25  C   LIG    1      -22.906  73.369  17.092  0.00  0.00    +0.149 A 
ATOM     26  F   LIG    1      -22.875  74.176  18.163  0.00  0.00    -0.203 F 
ATOM     27  C   LIG    1      -23.742  72.254  17.127  0.00  0.00    +0.042 A 
ATOM     28  C   LIG    1      -23.830  71.434  16.010  0.00  0.00    +0.023 A 
ATOM     29  C   LIG    1      -23.050  71.754  14.915  0.00  0.00    +0.111 A 
ATOM     30  N   LIG    1      -22.193  72.804  14.883  0.00  0.00    -0.252 NA
ENDBRANCH  22  24
ENDBRANCH  14  16
ENDBRANCH   4  12
BRANCH   1  31
ATOM     31  C   LIG    1      -22.622  84.362  15.820  0.00  0.00    +0.233 C 
ATOM     32  N   LIG    1      -22.258  85.185  14.905  0.00  0.00    -0.248 NA
BRANCH  31  33
ATOM     33  O   LIG    1      -22.875  84.695  17.105  0.00  0.00    -0.491 OA
ATOM     34  H   LIG    1      -23.816  84.700  17.315  0.00  0.00    +0.294 HD
ENDBRANCH  31  33
BRANCH  32  35
ATOM     35  C   LIG    1      -22.125  86.608  15.199  0.00  0.00    +0.162 C 
BRANCH  35  36
ATOM     36  C   LIG    1      -21.227  87.249  14.169  0.00  0.00    +0.052 C 
ATOM     37  C   LIG    1      -21.814  88.272  13.295  0.00  0.00    +0.028 C 
ATOM     38  C   LIG    1      -21.056  88.870  12.362  0.00  0.00    +0.184 C 
ATOM     39  N   LIG    1      -19.737  88.540  12.201  0.00  0.00    -0.210 N 
ATOM     40  H   LIG    1      -19.174  89.011  11.506  0.00  0.00    +0.298 HD
ATOM     41  C   LIG    1      -19.124  87.588  12.971  0.00  0.00    +0.295 C 
ATOM     42  C   LIG    1      -19.932  86.886  14.020  0.00  0.00    +0.083 C 
BRANCH  41  43
ATOM     43  N   LIG    1      -17.871  87.320  12.778  0.00  0.00    -0.071 NA
ATOM     44  H   LIG    1      -17.285  87.833  13.442  0.00  0.00    +0.348 HD
ENDBRANCH  41  43
ENDBRANCH  35  36
ENDBRANCH  32  35
ENDBRANCH   1  31
TORSDOF 9
ENDMDL
MODEL 4
REMARK VINA RESULT:      -6.8     16.934     20.838
REMARK  Name = pdb/CHEMBL3915172.pdb
REMARK                            x       y       z     vdW  Elec       q    Type
REMARK                         _______ _______ _______ _____ _____    ______ ____
ROOT
ATOM      1  C   LIG    1      -20.191  81.769  14.312  0.00  0.00    +0.131 C 
ATOM      2  N   LIG    1      -21.521  81.593  14.294  0.00  0.00    -0.141 NA
ATOM      3  N   LIG    1      -21.718  80.285  14.590  0.00  0.00    -0.201 N 
ATOM      4  C   LIG    1      -20.531  79.667  15.014  0.00  0.00    +0.185 C 
ATOM      5  C   LIG    1      -19.536  80.566  14.694  0.00  0.00    +0.056 C 
ENDROOT
BRANCH   3   6
ATOM      6  C   LIG    1      -23.029  79.739  14.515  0.00  0.00    +0.052 A 
ATOM      7  C   LIG    1      -23.900  79.803  15.609  0.00  0.00    +0.025 A 
ATOM      8  C   LIG    1      -25.180  79.251  15.518  0.00  0.00    +0.002 A 
ATOM      9  C   LIG    1      -25.593  78.625  14.343  0.00  0.00    +0.000 A 
ATOM     10  C   LIG    1      -24.726  78.543  13.256  0.00  0.00    +0.002 A 
ATOM     11  C   LIG    1      -23.441  79.086  13.343  0.00  0.00    +0.025 A 
ENDBRANCH   3   6
BRANCH   4  12
ATOM     12  N   LIG    1      -20.416  78.443  15.707  0.00  0.00    -0.282 N 
ATOM     13  H   LIG    1      -20.465  78.474  16.711  0.00  0.00    +0.152 HD
ATOM     14  C   LIG    1      -20.106  77.174  15.073  0.00  0.00    +0.247 C 
ATOM     15  O   LIG    1      -19.925  77.112  13.880  0.00  0.00    -0.270 OA
BRANCH  14  16
ATOM     16  C   LIG    1      -19.882  75.971  15.933  0.00  0.00    +0.056 A 
ATOM     17  C   LIG    1      -18.769  75.791  16.742  0.00  0.00    +0.054 A 
ATOM     18 CL   LIG    1      -17.613  77.032  17.042  0.00  0.00    -0.083 Cl
ATOM     19  C   LIG    1      -18.576  74.573  17.398  0.00  0.00    +0.041 A 
ATOM     20  C   LIG    1      -19.529  73.546  17.312  0.00  0.00    +0.052 A 
ATOM     21 CL   LIG    1      -19.047  72.024  17.990  0.00  0.00    -0.083 Cl
ATOM     22  C   LIG    1      -20.758  73.745  16.650  0.00  0.00    +0.022 A 
ATOM     23  C   LIG    1      -20.888  74.970  15.934  0.00  0.00    +0.026 A 
BRANCH  22  24
ATOM     24  C   LIG    1      -21.888  72.773  16.717  0.00  0.00    +0.107 A 
ATOM     25  C   LIG    1      -22.754  72.654  17.807  0.00  0.00    +0.149 A 
ATOM     26  F   LIG    1      -22.661  73.472  18.865  0.00  0.00    -0.203 F 
ATOM     27  C   LIG    1      -23.752  71.680  17.808  0.00  0.00    +0.042 A 
ATOM     28  C   LIG    1      -23.901  70.856  16.700  0.00  0.00    +0.023 A 
ATOM     29  C   LIG    1      -23.019  71.028  15.649  0.00  0.00    +0.111 A 
ATOM     30  N   LIG    1      -22.011  71.934  15.653  0.00  0.00    -0.252 NA
ENDBRANCH  22  24
ENDBRANCH  14  16
ENDBRANCH   4  12
BRANCH   1  31
ATOM     31  C   LIG    1      -19.572  83.078  14.063  0.00  0.00    +0.233 C 
ATOM     32  N   LIG    1      -20.300  84.093  13.765  0.00  0.00    -0.248 NA
BRANCH  31  33
ATOM     33  O   LIG    1      -18.222  83.082  14.115  0.00  0.00    -0.491 OA
ATOM     34  H   LIG    1      -17.879  83.245  15.001  0.00  0.00    +0.294 HD
ENDBRANCH  31  33
BRANCH  32  35
ATOM     35  C   LIG    1      -19.686  85.389  13.489  0.00  0.00    +0.162 C 
BRANCH  35  36
ATOM     36  C   LIG    1      -20.744  86.464  13.549  0.00  0.00    +0.052 C 
ATOM     37  C   LIG    1      -21.437  86.806  12.301  0.00  0.00    +0.028 C 
ATOM     38  C   LIG    1      -22.385  87.758  12.302  0.00  0.00    +0.184 C 
ATOM     39  N   LIG    1      -22.719  88.426  13.450  0.00  0.00    -0.210 N 
ATOM     40  H   LIG    1      -23.446  89.128  13.439  0.00  0.00    +0.298 HD
ATOM     41  C   LIG    1      -22.107  88.169  14.647  0.00  0.00    +0.295 C 
ATOM     42  C   LIG    1      -21.036  87.122  14.694  0.00  0.00    +0.083 C 
BRANCH  41  43
ATOM     43  N   LIG    1      -22.467  88.828  15.703  0.00  0.00    -0.071 NA
ATOM     44  H   LIG    1      -23.301  89.389  15.512  0.00  0.00    +0.348 HD
ENDBRANCH  41  43
ENDBRANCH  35  36
ENDBRANCH  32  35
ENDBRANCH   1  31
TORSDOF 9
ENDMDL
MODEL 5
REMARK VINA RESULT:      -6.7      9.000     16.809
REMARK  Name = pdb/CHEMBL3915172.pdb
REMARK                            x       y       z     vdW  Elec       q    Type
REMARK                         _______ _______ _______ _____ _____    ______ ____
ROOT
ATOM      1  C   LIG    1      -31.176  87.194  30.990  0.00  0.00    +0.131 C 
ATOM      2  N   LIG    1      -32.323  87.884  30.898  0.00  0.00    -0.141 NA
ATOM      3  N   LIG    1      -33.118  87.160  30.073  0.00  0.00    -0.201 N 
ATOM      4  C   LIG    1      -32.569  85.895  29.806  0.00  0.00    +0.185 C 
ATOM      5  C   LIG    1      -31.271  85.975  30.264  0.00  0.00    +0.056 C 
ENDROOT
BRANCH   3   6
ATOM      6  C   LIG    1      -34.368  87.694  29.657  0.00  0.00    +0.052 A 
ATOM      7  C   LIG    1      -34.467  88.485  28.507  0.00  0.00    +0.025 A 
ATOM      8  C   LIG    1      -35.703  89.010  28.122  0.00  0.00    +0.002 A 
ATOM      9  C   LIG    1      -36.842  88.758  28.887  0.00  0.00    +0.000 A 
ATOM     10  C   LIG    1      -36.748  87.985  30.042  0.00  0.00    +0.002 A 
ATOM     11  C   LIG    1      -35.513  87.463  30.436  0.00  0.00    +0.025 A 
ENDBRANCH   3   6
BRANCH   4  12
ATOM     12  N   LIG    1      -33.246  84.775  29.280  0.00  0.00    -0.282 N 
ATOM     13  H   LIG    1      -33.173  84.614  28.290  0.00  0.00    +0.152 HD
ATOM     14  C   LIG    1      -34.136  83.926  30.050  0.00  0.00    +0.247 C 
ATOM     15  O   LIG    1      -34.343  84.153  31.219  0.00  0.00    -0.270 OA
BRANCH  14  16
ATOM     16  C   LIG    1      -34.897  82.847  29.347  0.00  0.00    +0.056 A 
ATOM     17  C   LIG    1      -36.242  82.936  29.016  0.00  0.00    +0.054 A 
ATOM     18 CL   LIG    1      -37.154  84.390  29.161  0.00  0.00    -0.083 Cl
ATOM     19  C   LIG    1      -36.903  81.823  28.490  0.00  0.00    +0.041 A 
ATOM     20  C   LIG    1      -36.212  80.631  28.220  0.00  0.00    +0.052 A 
ATOM     21 CL   LIG    1      -37.204  79.277  27.785  0.00  0.00    -0.083 Cl
ATOM     22  C   LIG    1      -34.812  80.550  28.372  0.00  0.00    +0.022 A 
ATOM     23  C   LIG    1      -34.185  81.678  28.977  0.00  0.00    +0.026 A 
BRANCH  22  24
ATOM     24  C   LIG    1      -34.006  79.390  27.893  0.00  0.00    +0.107 A 
ATOM     25  C   LIG    1      -33.943  78.157  28.547  0.00  0.00    +0.149 A 
ATOM     26  F   LIG    1      -34.673  77.911  29.644  0.00  0.00    -0.203 F 
ATOM     27  C   LIG    1      -33.120  77.144  28.058  0.00  0.00    +0.042 A 
ATOM     28  C   LIG    1      -32.395  77.357  26.893  0.00  0.00    +0.023 A 
ATOM     29  C   LIG    1      -32.505  78.594  26.286  0.00  0.00    +0.111 A 
ATOM     30  N   LIG    1      -33.259  79.609  26.776  0.00  0.00    -0.252 NA
ENDBRANCH  22  24
ENDBRANCH  14  16
ENDBRANCH   4  12
BRANCH   1  31
ATOM     31  C   LIG    1      -30.057  87.646  31.828  0.00  0.00    +0.233 C 
ATOM     32  N   LIG    1      -30.261  88.016  33.039  0.00  0.00    -0.248 NA
BRANCH  31  33
ATOM     33  O   LIG    1      -28.862  87.686  31.197  0.00  0.00    -0.491 OA
ATOM     34  H   LIG    1      -28.707  86.921  30.632  0.00  0.00    +0.294 HD
ENDBRANCH  31  33
BRANCH  32  35
ATOM     35  C   LIG    1      -29.156  88.492  33.865  0.00  0.00    +0.162 C 
BRANCH  35  36
ATOM     36  C   LIG    1      -28.852  87.468  34.931  0.00  0.00    +0.052 C 
ATOM     37  C   LIG    1      -29.714  87.444  36.118  0.00  0.00    +0.028 C 
ATOM     38  C   LIG    1      -29.482  86.551  37.095  0.00  0.00    +0.184 C 
ATOM     39  N   LIG    1      -28.448  85.658  37.009  0.00  0.00    -0.210 N 
ATOM     40  H   LIG    1      -28.297  84.981  37.744  0.00  0.00    +0.298 HD
ATOM     41  C   LIG    1      -27.597  85.629  35.938  0.00  0.00    +0.295 C 
ATOM     42  C   LIG    1      -27.809  86.613  34.827  0.00  0.00    +0.083 C 
BRANCH  41  43
ATOM     43  N   LIG    1      -26.638  84.758  35.908  0.00  0.00    -0.071 NA
ATOM     44  H   LIG    1      -26.593  84.301  34.994  0.00  0.00    +0.348 HD
ENDBRANCH  41  43
ENDBRANCH  35  36
ENDBRANCH  32  35
ENDBRANCH   1  31
TORSDOF 9
ENDMDL
MODEL 6
REMARK VINA RESULT:      -6.7      1.904      2.473
REMARK  Name = pdb/CHEMBL3915172.pdb
REMARK                            x       y       z     vdW  Elec       q    Type
REMARK                         _______ _______ _______ _____ _____    ______ ____
ROOT
ATOM      1  C   LIG    1      -36.943  68.273  23.210  0.00  0.00    +0.131 C 
ATOM      2  N   LIG    1      -37.592  69.415  22.934  0.00  0.00    -0.141 NA
ATOM      3  N   LIG    1      -37.619  70.109  24.098  0.00  0.00    -0.201 N 
ATOM      4  C   LIG    1      -36.798  69.516  25.071  0.00  0.00    +0.185 C 
ATOM      5  C   LIG    1      -36.490  68.274  24.558  0.00  0.00    +0.056 C 
ENDROOT
BRANCH   3   6
ATOM      6  C   LIG    1      -38.365  71.316  24.177  0.00  0.00    +0.052 A 
ATOM      7  C   LIG    1      -37.795  72.482  24.703  0.00  0.00    +0.025 A 
ATOM      8  C   LIG    1      -38.549  73.655  24.782  0.00  0.00    +0.002 A 
ATOM      9  C   LIG    1      -39.874  73.670  24.347  0.00  0.00    +0.000 A 
ATOM     10  C   LIG    1      -40.452  72.509  23.837  0.00  0.00    +0.002 A 
ATOM     11  C   LIG    1      -39.706  71.330  23.763  0.00  0.00    +0.025 A 
ENDBRANCH   3   6
BRANCH   4  12
ATOM     12  N   LIG    1      -36.323  70.117  26.256  0.00  0.00    -0.282 N 
ATOM     13  H   LIG    1      -36.986  70.260  26.999  0.00  0.00    +0.152 HD
ATOM     14  C   LIG    1      -34.984  70.654  26.416  0.00  0.00    +0.247 C 
ATOM     15  O   LIG    1      -34.190  70.606  25.506  0.00  0.00    -0.270 OA
BRANCH  14  16
ATOM     16  C   LIG    1      -34.643  71.385  27.676  0.00  0.00    +0.056 A 
ATOM     17  C   LIG    1      -34.667  70.809  28.938  0.00  0.00    +0.054 A 
ATOM     18 CL   LIG    1      -34.866  69.118  29.198  0.00  0.00    -0.083 Cl
ATOM     19  C   LIG    1      -34.473  71.605  30.070  0.00  0.00    +0.041 A 
ATOM     20  C   LIG    1      -34.181  72.973  29.950  0.00  0.00    +0.052 A 
ATOM     21 CL   LIG    1      -34.191  73.869  31.435  0.00  0.00    -0.083 Cl
ATOM     22  C   LIG    1      -33.970  73.566  28.688  0.00  0.00    +0.022 A 
ATOM     23  C   LIG    1      -34.246  72.742  27.559  0.00  0.00    +0.026 A 
BRANCH  22  24
ATOM     24  C   LIG    1      -33.444  74.952  28.516  0.00  0.00    +0.107 A 
ATOM     25  C   LIG    1      -34.078  75.942  27.762  0.00  0.00    +0.149 A 
ATOM     26  F   LIG    1      -35.266  75.723  27.180  0.00  0.00    -0.203 F 
ATOM     27  C   LIG    1      -33.487  77.195  27.610  0.00  0.00    +0.042 A 
ATOM     28  C   LIG    1      -32.282  77.462  28.248  0.00  0.00    +0.023 A 
ATOM     29  C   LIG    1      -31.708  76.445  28.986  0.00  0.00    +0.111 A 
ATOM     30  N   LIG    1      -32.242  75.205  29.102  0.00  0.00    -0.252 NA
ENDBRANCH  22  24
ENDBRANCH  14  16
ENDBRANCH   4  12
BRANCH   1  31
ATOM     31  C   LIG    1      -36.683  67.255  22.184  0.00  0.00    +0.233 C 
ATOM     32  N   LIG    1      -36.657  67.576  20.942  0.00  0.00    -0.248 NA
BRANCH  31  33
ATOM     33  O   LIG    1      -36.543  65.998  22.662  0.00  0.00    -0.491 OA
ATOM     34  H   LIG    1      -37.123  65.362  22.227  0.00  0.00    +0.294 HD
ENDBRANCH  31  33
BRANCH  32  35
ATOM     35  C   LIG    1      -36.427  66.561  19.918  0.00  0.00    +0.162 C 
BRANCH  35  36
ATOM     36  C   LIG    1      -35.048  66.747  19.333  0.00  0.00    +0.052 C 
ATOM     37  C   LIG    1      -34.955  67.184  17.935  0.00  0.00    +0.028 C 
ATOM     38  C   LIG    1      -33.750  67.362  17.368  0.00  0.00    +0.184 C 
ATOM     39  N   LIG    1      -32.596  67.138  18.070  0.00  0.00    -0.210 N 
ATOM     40  H   LIG    1      -31.697  67.292  17.636  0.00  0.00    +0.298 HD
ATOM     41  C   LIG    1      -32.605  66.719  19.373  0.00  0.00    +0.295 C 
ATOM     42  C   LIG    1      -33.926  66.497  20.046  0.00  0.00    +0.083 C 
BRANCH  41  43
ATOM     43  N   LIG    1      -31.481  66.527  19.990  0.00  0.00    -0.071 NA
ATOM     44  H   LIG    1      -31.503  65.650  20.516  0.00  0.00    +0.348 HD
ENDBRANCH  41  43
ENDBRANCH  35  36
ENDBRANCH  32  35
ENDBRANCH   1  31
TORSDOF 9
ENDMDL
MODEL 7
REMARK VINA RESULT:      -6.6     15.347     18.663
REMARK  Name = pdb/CHEMBL3915172.pdb
REMARK                            x       y       z     vdW  Elec       q    Type
REMARK                         _______ _______ _______ _____ _____    ______ ____
ROOT
ATOM      1  C   LIG    1      -21.094  79.872  35.082  0.00  0.00    +0.131 C 
ATOM      2  N   LIG    1      -20.345  80.341  36.093  0.00  0.00    -0.141 NA
ATOM      3  N   LIG    1      -20.959  81.478  36.503  0.00  0.00    -0.201 N 
ATOM      4  C   LIG    1      -22.221  81.628  35.906  0.00  0.00    +0.185 C 
ATOM      5  C   LIG    1      -22.242  80.692  34.895  0.00  0.00    +0.056 C 
ENDROOT
BRANCH   3   6
ATOM      6  C   LIG    1      -20.333  82.298  37.481  0.00  0.00    +0.052 A 
ATOM      7  C   LIG    1      -20.307  83.691  37.345  0.00  0.00    +0.025 A 
ATOM      8  C   LIG    1      -19.677  84.477  38.312  0.00  0.00    +0.002 A 
ATOM      9  C   LIG    1      -19.062  83.880  39.412  0.00  0.00    +0.000 A 
ATOM     10  C   LIG    1      -19.070  82.494  39.546  0.00  0.00    +0.002 A 
ATOM     11  C   LIG    1      -19.691  81.700  38.578  0.00  0.00    +0.025 A 
ENDBRANCH   3   6
BRANCH   4  12
ATOM     12  N   LIG    1      -23.260  82.482  36.331  0.00  0.00    -0.282 N 
ATOM     13  H   LIG    1      -23.141  83.469  36.172  0.00  0.00    +0.152 HD
ATOM     14  C   LIG    1      -24.416  82.043  37.091  0.00  0.00    +0.247 C 
ATOM     15  O   LIG    1      -24.541  80.883  37.403  0.00  0.00    -0.270 OA
BRANCH  14  16
ATOM     16  C   LIG    1      -25.383  83.067  37.596  0.00  0.00    +0.056 A 
ATOM     17  C   LIG    1      -25.592  83.340  38.940  0.00  0.00    +0.054 A 
ATOM     18 CL   LIG    1      -24.601  82.703  40.197  0.00  0.00    -0.083 Cl
ATOM     19  C   LIG    1      -26.617  84.210  39.322  0.00  0.00    +0.041 A 
ATOM     20  C   LIG    1      -27.397  84.873  38.362  0.00  0.00    +0.052 A 
ATOM     21 CL   LIG    1      -28.766  85.737  38.983  0.00  0.00    -0.083 Cl
ATOM     22  C   LIG    1      -27.107  84.767  36.986  0.00  0.00    +0.022 A 
ATOM     23  C   LIG    1      -26.105  83.818  36.633  0.00  0.00    +0.026 A 
BRANCH  22  24
ATOM     24  C   LIG    1      -27.758  85.617  35.947  0.00  0.00    +0.107 A 
ATOM     25  C   LIG    1      -29.066  85.434  35.493  0.00  0.00    +0.149 A 
ATOM     26  F   LIG    1      -29.864  84.495  36.021  0.00  0.00    -0.203 F 
ATOM     27  C   LIG    1      -29.577  86.243  34.478  0.00  0.00    +0.042 A 
ATOM     28  C   LIG    1      -28.787  87.257  33.952  0.00  0.00    +0.023 A 
ATOM     29  C   LIG    1      -27.505  87.394  34.449  0.00  0.00    +0.111 A 
ATOM     30  N   LIG    1      -26.974  86.584  35.397  0.00  0.00    -0.252 NA
ENDBRANCH  22  24
ENDBRANCH  14  16
ENDBRANCH   4  12
BRANCH   1  31
ATOM     31  C   LIG    1      -20.768  78.623  34.382  0.00  0.00    +0.233 C 
ATOM     32  N   LIG    1      -21.694  77.787  34.080  0.00  0.00    -0.248 NA
BRANCH  31  33
ATOM     33  O   LIG    1      -19.449  78.432  34.158  0.00  0.00    -0.491 OA
ATOM     34  H   LIG    1      -18.890  78.810  34.846  0.00  0.00    +0.294 HD
ENDBRANCH  31  33
BRANCH  32  35
ATOM     35  C   LIG    1      -21.370  76.532  33.410  0.00  0.00    +0.162 C 
BRANCH  35  36
ATOM     36  C   LIG    1      -21.395  76.744  31.916  0.00  0.00    +0.052 C 
ATOM     37  C   LIG    1      -20.202  76.357  31.153  0.00  0.00    +0.028 C 
ATOM     38  C   LIG    1      -20.175  76.528  29.821  0.00  0.00    +0.184 C 
ATOM     39  N   LIG    1      -21.243  77.064  29.153  0.00  0.00    -0.210 N 
ATOM     40  H   LIG    1      -21.215  77.171  28.148  0.00  0.00    +0.298 HD
ATOM     41  C   LIG    1      -22.384  77.459  29.798  0.00  0.00    +0.295 C 
ATOM     42  C   LIG    1      -22.457  77.297  31.287  0.00  0.00    +0.083 C 
BRANCH  41  43
ATOM     43  N   LIG    1      -23.366  77.956  29.114  0.00  0.00    -0.071 NA
ATOM     44  H   LIG    1      -24.025  78.440  29.728  0.00  0.00    +0.348 HD
ENDBRANCH  41  43
ENDBRANCH  35  36
ENDBRANCH  32  35
ENDBRANCH   1  31
TORSDOF 9
ENDMDL
MODEL 8
REMARK VINA RESULT:      -6.6      5.646     10.336
REMARK  Name = pdb/CHEMBL3915172.pdb
REMARK                            x       y       z     vdW  Elec       q    Type
REMARK                         _______ _______ _______ _____ _____    ______ ____
ROOT
ATOM      1  C   LIG    1      -31.241  74.914  30.222  0.00  0.00    +0.131 C 
ATOM      2  N   LIG    1      -31.573  76.202  30.043  0.00  0.00    -0.141 NA
ATOM      3  N   LIG    1      -32.471  76.209  29.028  0.00  0.00    -0.201 N 
ATOM      4  C   LIG    1      -32.885  74.908  28.696  0.00  0.00    +0.185 C 
ATOM      5  C   LIG    1      -31.995  74.082  29.348  0.00  0.00    +0.056 C 
ENDROOT
BRANCH   3   6
ATOM      6  C   LIG    1      -32.919  77.449  28.497  0.00  0.00    +0.052 A 
ATOM      7  C   LIG    1      -32.274  78.042  27.405  0.00  0.00    +0.025 A 
ATOM      8  C   LIG    1      -32.724  79.266  26.906  0.00  0.00    +0.002 A 
ATOM      9  C   LIG    1      -33.810  79.909  27.499  0.00  0.00    +0.000 A 
ATOM     10  C   LIG    1      -34.448  79.333  28.595  0.00  0.00    +0.002 A 
ATOM     11  C   LIG    1      -33.997  78.112  29.104  0.00  0.00    +0.025 A 
ENDBRANCH   3   6
BRANCH   4  12
ATOM     12  N   LIG    1      -34.024  74.551  27.944  0.00  0.00    -0.282 N 
ATOM     13  H   LIG    1      -33.882  74.304  26.980  0.00  0.00    +0.152 HD
ATOM     14  C   LIG    1      -35.386  74.642  28.438  0.00  0.00    +0.247 C 
ATOM     15  O   LIG    1      -35.610  75.043  29.555  0.00  0.00    -0.270 OA
BRANCH  14  16
ATOM     16  C   LIG    1      -36.517  74.358  27.500  0.00  0.00    +0.056 A 
ATOM     17  C   LIG    1      -36.981  73.083  27.208  0.00  0.00    +0.054 A 
ATOM     18 CL   LIG    1      -36.472  71.676  28.062  0.00  0.00    -0.083 Cl
ATOM     19  C   LIG    1      -37.945  72.905  26.212  0.00  0.00    +0.041 A 
ATOM     20  C   LIG    1      -38.509  74.005  25.547  0.00  0.00    +0.052 A 
ATOM     21 CL   LIG    1      -39.517  73.618  24.191  0.00  0.00    -0.083 Cl
ATOM     22  C   LIG    1      -38.201  75.326  25.933  0.00  0.00    +0.022 A 
ATOM     23  C   LIG    1      -37.164  75.467  26.899  0.00  0.00    +0.026 A 
BRANCH  22  24
ATOM     24  C   LIG    1      -38.933  76.519  25.414  0.00  0.00    +0.107 A 
ATOM     25  C   LIG    1      -38.517  77.276  24.316  0.00  0.00    +0.149 A 
ATOM     26  F   LIG    1      -37.436  76.933  23.601  0.00  0.00    -0.203 F 
ATOM     27  C   LIG    1      -39.234  78.408  23.932  0.00  0.00    +0.042 A 
ATOM     28  C   LIG    1      -40.387  78.753  24.626  0.00  0.00    +0.023 A 
ATOM     29  C   LIG    1      -40.753  77.959  25.697  0.00  0.00    +0.111 A 
ATOM     30  N   LIG    1      -40.039  76.886  26.117  0.00  0.00    -0.252 NA
ENDBRANCH  22  24
ENDBRANCH  14  16
ENDBRANCH   4  12
BRANCH   1  31
ATOM     31  C   LIG    1      -30.299  74.487  31.265  0.00  0.00    +0.233 C 
ATOM     32  N   LIG    1      -29.730  75.355  32.020  0.00  0.00    -0.248 NA
BRANCH  31  33
ATOM     33  O   LIG    1      -30.062  73.157  31.299  0.00  0.00    -0.491 OA
ATOM     34  H   LIG    1      -30.581  72.698  31.969  0.00  0.00    +0.294 HD
ENDBRANCH  31  33
BRANCH  32  35
ATOM     35  C   LIG    1      -28.773  74.936  33.039  0.00  0.00    +0.162 C 
BRANCH  35  36
ATOM     36  C   LIG    1      -27.388  75.379  32.634  0.00  0.00    +0.052 C 
ATOM     37  C   LIG    1      -26.248  74.624  33.168  0.00  0.00    +0.028 C 
ATOM     38  C   LIG    1      -24.996  74.980  32.838  0.00  0.00    +0.184 C 
ATOM     39  N   LIG    1      -24.756  76.045  32.011  0.00  0.00    -0.210 N 
ATOM     40  H   LIG    1      -23.809  76.291  31.758  0.00  0.00    +0.298 HD
ATOM     41  C   LIG    1      -25.767  76.802  31.485  0.00  0.00    +0.295 C 
ATOM     42  C   LIG    1      -27.182  76.449  31.832  0.00  0.00    +0.083 C 
BRANCH  41  43
ATOM     43  N   LIG    1      -25.482  77.795  30.704  0.00  0.00    -0.071 NA
ATOM     44  H   LIG    1      -25.799  77.607  29.749  0.00  0.00    +0.348 HD
ENDBRANCH  41  43
ENDBRANCH  35  36
ENDBRANCH  32  35
ENDBRANCH   1  31
TORSDOF 9
ENDMDL
MODEL 9
REMARK VINA RESULT:      -6.6      4.104     10.627
REMARK  Name = pdb/CHEMBL3915172.pdb
REMARK                            x       y       z     vdW  Elec       q    Type
REMARK                         _______ _______ _______ _____ _____    ______ ____
ROOT
ATOM      1  C   LIG    1      -35.643  71.681  26.859  0.00  0.00    +0.131 C 
ATOM      2  N   LIG    1      -36.834  72.266  26.656  0.00  0.00    -0.141 NA
ATOM      3  N   LIG    1      -37.260  71.816  25.450  0.00  0.00    -0.201 N 
ATOM      4  C   LIG    1      -36.449  70.773  24.973  0.00  0.00    +0.185 C 
ATOM      5  C   LIG    1      -35.341  70.790  25.792  0.00  0.00    +0.056 C 
ENDROOT
BRANCH   3   6
ATOM      6  C   LIG    1      -38.440  72.361  24.876  0.00  0.00    +0.052 A 
ATOM      7  C   LIG    1      -39.413  71.532  24.306  0.00  0.00    +0.025 A 
ATOM      8  C   LIG    1      -40.561  72.089  23.737  0.00  0.00    +0.002 A 
ATOM      9  C   LIG    1      -40.739  73.472  23.725  0.00  0.00    +0.000 A 
ATOM     10  C   LIG    1      -39.768  74.304  24.276  0.00  0.00    +0.002 A 
ATOM     11  C   LIG    1      -38.613  73.754  24.840  0.00  0.00    +0.025 A 
ENDBRANCH   3   6
BRANCH   4  12
ATOM     12  N   LIG    1      -36.768  69.858  23.948  0.00  0.00    -0.282 N 
ATOM     13  H   LIG    1      -36.737  70.196  23.001  0.00  0.00    +0.152 HD
ATOM     14  C   LIG    1      -37.258  68.512  24.182  0.00  0.00    +0.247 C 
ATOM     15  O   LIG    1      -37.421  68.104  25.308  0.00  0.00    -0.270 OA
BRANCH  14  16
ATOM     16  C   LIG    1      -37.686  67.683  23.012  0.00  0.00    +0.056 A 
ATOM     17  C   LIG    1      -38.928  67.075  22.905  0.00  0.00    +0.054 A 
ATOM     18 CL   LIG    1      -40.227  67.385  23.995  0.00  0.00    -0.083 Cl
ATOM     19  C   LIG    1      -39.187  66.203  21.844  0.00  0.00    +0.041 A 
ATOM     20  C   LIG    1      -38.232  65.985  20.839  0.00  0.00    +0.052 A 
ATOM     21 CL   LIG    1      -38.606  64.714  19.720  0.00  0.00    -0.083 Cl
ATOM     22  C   LIG    1      -37.026  66.715  20.808  0.00  0.00    +0.022 A 
ATOM     23  C   LIG    1      -36.768  67.539  21.941  0.00  0.00    +0.026 A 
BRANCH  22  24
ATOM     24  C   LIG    1      -36.083  66.684  19.651  0.00  0.00    +0.107 A 
ATOM     25  C   LIG    1      -36.380  67.194  18.385  0.00  0.00    +0.149 A 
ATOM     26  F   LIG    1      -37.541  67.818  18.139  0.00  0.00    -0.203 F 
ATOM     27  C   LIG    1      -35.459  67.074  17.346  0.00  0.00    +0.042 A 
ATOM     28  C   LIG    1      -34.229  66.479  17.591  0.00  0.00    +0.023 A 
ATOM     29  C   LIG    1      -33.989  66.001  18.866  0.00  0.00    +0.111 A 
ATOM     30  N   LIG    1      -34.893  66.062  19.875  0.00  0.00    -0.252 NA
ENDBRANCH  22  24
ENDBRANCH  14  16
ENDBRANCH   4  12
BRANCH   1  31
ATOM     31  C   LIG    1      -34.864  71.898  28.085  0.00  0.00    +0.233 C 
ATOM     32  N   LIG    1      -33.965  72.813  28.129  0.00  0.00    -0.248 NA
BRANCH  31  33
ATOM     33  O   LIG    1      -35.140  71.034  29.087  0.00  0.00    -0.491 OA
ATOM     34  H   LIG    1      -34.349  70.693  29.519  0.00  0.00    +0.294 HD
ENDBRANCH  31  33
BRANCH  32  35
ATOM     35  C   LIG    1      -33.170  73.012  29.337  0.00  0.00    +0.162 C 
BRANCH  35  36
ATOM     36  C   LIG    1      -32.586  74.404  29.326  0.00  0.00    +0.052 C 
ATOM     37  C   LIG    1      -33.246  75.412  28.488  0.00  0.00    +0.028 C 
ATOM     38  C   LIG    1      -32.764  76.665  28.444  0.00  0.00    +0.184 C 
ATOM     39  N   LIG    1      -31.657  77.025  29.164  0.00  0.00    -0.210 N 
ATOM     40  H   LIG    1      -31.315  77.976  29.134  0.00  0.00    +0.298 HD
ATOM     41  C   LIG    1      -30.983  76.137  29.958  0.00  0.00    +0.295 C 
ATOM     42  C   LIG    1      -31.478  74.724  30.032  0.00  0.00    +0.083 C 
BRANCH  41  43
ATOM     43  N   LIG    1      -29.943  76.534  30.621  0.00  0.00    -0.071 NA
ATOM     44  H   LIG    1      -29.849  76.008  31.494  0.00  0.00    +0.348 HD
ENDBRANCH  41  43
ENDBRANCH  35  36
ENDBRANCH  32  35
ENDBRANCH   1  31
TORSDOF 9
ENDMDL
