MODEL 1
REMARK VINA RESULT:      -6.4      0.000      0.000
REMARK  Name = pdb/CHEMBL3972751.pdb
REMARK                            x       y       z     vdW  Elec       q    Type
REMARK                         _______ _______ _______ _____ _____    ______ ____
ROOT
ATOM      1  C   LIG    1      -23.748  77.653  30.782  0.00  0.00    +0.099 A 
ATOM      2  C   LIG    1      -23.750  77.984  32.137  0.00  0.00    +0.179 A 
ATOM      3  N   LIG    1      -22.824  78.543  33.009  0.00  0.00    -0.211 NA
ATOM      4  C   LIG    1      -23.225  78.848  34.229  0.00  0.00    +0.126 A 
ATOM      5  C   LIG    1      -24.616  78.537  34.726  0.00  0.00    +0.063 A 
ATOM      6  C   LIG    1      -25.457  77.966  33.862  0.00  0.00    +0.118 A 
ATOM      7  N   LIG    1      -25.052  77.688  32.569  0.00  0.00    -0.220 N 
ATOM      8  N   LIG    1      -25.819  77.144  31.598  0.00  0.00    -0.171 NA
ATOM      9  C   LIG    1      -25.032  77.139  30.524  0.00  0.00    +0.160 A 
ENDROOT
BRANCH   4  10
ATOM     10  N   LIG    1      -22.387  79.464  35.154  0.00  0.00    -0.308 N 
ATOM     11  C   LIG    1      -21.187  80.225  34.762  0.00  0.00    +0.108 C 
ATOM     12  C   LIG    1      -21.109  81.391  35.773  0.00  0.00    +0.029 C 
ATOM     13  C   LIG    1      -22.474  81.421  36.444  0.00  0.00    +0.021 C 
ATOM     14  C   LIG    1      -22.888  79.960  36.438  0.00  0.00    +0.107 C 
BRANCH  11  15
ATOM     15  C   LIG    1      -19.953  79.340  34.850  0.00  0.00    +0.011 A 
ATOM     16  C   LIG    1      -19.265  78.976  33.687  0.00  0.00    +0.129 A 
ATOM     17  F   LIG    1      -19.698  79.405  32.493  0.00  0.00    -0.205 F 
ATOM     18  C   LIG    1      -18.117  78.177  33.732  0.00  0.00    +0.041 A 
ATOM     19  C   LIG    1      -17.627  77.732  34.959  0.00  0.00    +0.041 A 
ATOM     20  C   LIG    1      -18.291  78.094  36.122  0.00  0.00    +0.124 A 
ATOM     21  F   LIG    1      -17.826  77.678  37.307  0.00  0.00    -0.205 F 
ATOM     22  C   LIG    1      -19.434  78.888  36.079  0.00  0.00    +0.046 A 
ENDBRANCH  11  15
ENDBRANCH   4  10
BRANCH   1  23
ATOM     23  N   LIG    1      -22.730  77.791  29.893  0.00  0.00    -0.265 N 
ATOM     24  H   LIG    1      -22.934  78.135  28.959  0.00  0.00    +0.157 HD
BRANCH  23  25
ATOM     25  C   LIG    1      -21.547  77.096  29.956  0.00  0.00    +0.285 C 
ATOM     26  N   LIG    1      -20.699  76.938  30.933  0.00  0.00    -0.199 NA
BRANCH  26  27
ATOM     27  C   LIG    1      -19.523  76.166  30.812  0.00  0.00    +0.069 A 
ATOM     28  C   LIG    1      -18.323  76.678  30.314  0.00  0.00    +0.028 A 
ATOM     29  C   LIG    1      -17.187  75.870  30.182  0.00  0.00    +0.002 A 
ATOM     30  C   LIG    1      -17.219  74.544  30.608  0.00  0.00    +0.000 A 
ATOM     31  C   LIG    1      -18.390  74.031  31.165  0.00  0.00    +0.002 A 
ATOM     32  C   LIG    1      -19.532  74.837  31.267  0.00  0.00    +0.028 A 
ENDBRANCH  26  27
BRANCH  25  33
ATOM     33  O   LIG    1      -21.359  76.506  28.760  0.00  0.00    -0.481 OA
ATOM     34  H   LIG    1      -20.733  77.013  28.226  0.00  0.00    +0.295 HD
ENDBRANCH  25  33
ENDBRANCH  23  25
ENDBRANCH   1  23
TORSDOF 6
ENDMDL
MODEL 2
REMARK VINA RESULT:      -6.1     14.520     18.537
REMARK  Name = pdb/CHEMBL3972751.pdb
REMARK                            x       y       z     vdW  Elec       q    Type
REMARK                         _______ _______ _______ _____ _____    ______ ____
ROOT
ATOM      1  C   LIG    1      -35.056  76.382  27.323  0.00  0.00    +0.099 A 
ATOM      2  C   LIG    1      -35.126  77.761  27.513  0.00  0.00    +0.179 A 
ATOM      3  N   LIG    1      -36.161  78.681  27.628  0.00  0.00    -0.211 NA
ATOM      4  C   LIG    1      -35.854  79.924  27.948  0.00  0.00    +0.126 A 
ATOM      5  C   LIG    1      -34.427  80.390  28.111  0.00  0.00    +0.063 A 
ATOM      6  C   LIG    1      -33.468  79.477  27.956  0.00  0.00    +0.118 A 
ATOM      7  N   LIG    1      -33.790  78.163  27.665  0.00  0.00    -0.220 N 
ATOM      8  N   LIG    1      -32.913  77.145  27.517  0.00  0.00    -0.171 NA
ATOM      9  C   LIG    1      -33.683  76.076  27.325  0.00  0.00    +0.160 A 
ENDROOT
BRANCH   4  10
ATOM     10  N   LIG    1      -36.825  80.903  28.142  0.00  0.00    -0.308 N 
ATOM     11  C   LIG    1      -38.245  80.698  27.805  0.00  0.00    +0.108 C 
ATOM     12  C   LIG    1      -39.026  81.463  28.897  0.00  0.00    +0.029 C 
ATOM     13  C   LIG    1      -38.002  81.745  29.986  0.00  0.00    +0.021 C 
ATOM     14  C   LIG    1      -36.709  81.903  29.206  0.00  0.00    +0.107 C 
BRANCH  11  15
ATOM     15  C   LIG    1      -38.542  81.259  26.423  0.00  0.00    +0.011 A 
ATOM     16  C   LIG    1      -39.483  80.633  25.597  0.00  0.00    +0.129 A 
ATOM     17  F   LIG    1      -40.119  79.533  26.026  0.00  0.00    -0.205 F 
ATOM     18  C   LIG    1      -39.793  81.131  24.328  0.00  0.00    +0.041 A 
ATOM     19  C   LIG    1      -39.166  82.285  23.861  0.00  0.00    +0.041 A 
ATOM     20  C   LIG    1      -38.239  82.924  24.672  0.00  0.00    +0.124 A 
ATOM     21  F   LIG    1      -37.634  84.038  24.237  0.00  0.00    -0.205 F 
ATOM     22  C   LIG    1      -37.928  82.429  25.935  0.00  0.00    +0.046 A 
ENDBRANCH  11  15
ENDBRANCH   4  10
BRANCH   1  23
ATOM     23  N   LIG    1      -36.086  75.509  27.165  0.00  0.00    -0.265 N 
ATOM     24  H   LIG    1      -35.918  74.516  27.304  0.00  0.00    +0.157 HD
BRANCH  23  25
ATOM     25  C   LIG    1      -37.201  75.756  26.403  0.00  0.00    +0.285 C 
ATOM     26  N   LIG    1      -37.408  75.626  25.123  0.00  0.00    -0.199 NA
BRANCH  26  27
ATOM     27  C   LIG    1      -38.646  75.924  24.511  0.00  0.00    +0.069 A 
ATOM     28  C   LIG    1      -39.701  75.013  24.442  0.00  0.00    +0.028 A 
ATOM     29  C   LIG    1      -40.902  75.338  23.799  0.00  0.00    +0.002 A 
ATOM     30  C   LIG    1      -41.087  76.612  23.267  0.00  0.00    +0.000 A 
ATOM     31  C   LIG    1      -40.068  77.556  23.380  0.00  0.00    +0.002 A 
ATOM     32  C   LIG    1      -38.857  77.215  23.998  0.00  0.00    +0.028 A 
ENDBRANCH  26  27
BRANCH  25  33
ATOM     33  O   LIG    1      -38.176  76.170  27.234  0.00  0.00    -0.481 OA
ATOM     34  H   LIG    1      -37.826  76.792  27.886  0.00  0.00    +0.295 HD
ENDBRANCH  25  33
ENDBRANCH  23  25
ENDBRANCH   1  23
TORSDOF 6
ENDMDL
MODEL 3
REMARK VINA RESULT:      -5.9     19.802     23.535
REMARK  Name = pdb/CHEMBL3972751.pdb
REMARK                            x       y       z     vdW  Elec       q    Type
REMARK                         _______ _______ _______ _____ _____    ______ ____
ROOT
ATOM      1  C   LIG    1      -27.029  77.410  13.199  0.00  0.00    +0.099 A 
ATOM      2  C   LIG    1      -27.943  77.454  12.147  0.00  0.00    +0.179 A 
ATOM      3  N   LIG    1      -29.133  78.132  11.913  0.00  0.00    -0.211 NA
ATOM      4  C   LIG    1      -29.678  78.036  10.715  0.00  0.00    +0.126 A 
ATOM      5  C   LIG    1      -29.100  77.158   9.631  0.00  0.00    +0.063 A 
ATOM      6  C   LIG    1      -27.976  76.499   9.917  0.00  0.00    +0.118 A 
ATOM      7  N   LIG    1      -27.379  76.635  11.157  0.00  0.00    -0.220 N 
ATOM      8  N   LIG    1      -26.228  76.047  11.552  0.00  0.00    -0.171 NA
ATOM      9  C   LIG    1      -26.017  76.529  12.775  0.00  0.00    +0.160 A 
ENDROOT
BRANCH   4  10
ATOM     10  N   LIG    1      -30.837  78.724  10.369  0.00  0.00    -0.308 N 
ATOM     11  C   LIG    1      -32.146  78.444  10.984  0.00  0.00    +0.108 C 
ATOM     12  C   LIG    1      -32.841  79.821  11.081  0.00  0.00    +0.029 C 
ATOM     13  C   LIG    1      -31.732  80.837  10.850  0.00  0.00    +0.021 C 
ATOM     14  C   LIG    1      -30.798  80.111   9.899  0.00  0.00    +0.107 C 
BRANCH  11  15
ATOM     15  C   LIG    1      -32.943  77.489  10.108  0.00  0.00    +0.011 A 
ATOM     16  C   LIG    1      -32.728  76.108  10.197  0.00  0.00    +0.129 A 
ATOM     17  F   LIG    1      -31.813  75.630  11.053  0.00  0.00    -0.205 F 
ATOM     18  C   LIG    1      -33.454  75.200   9.421  0.00  0.00    +0.041 A 
ATOM     19  C   LIG    1      -34.428  75.663   8.537  0.00  0.00    +0.041 A 
ATOM     20  C   LIG    1      -34.662  77.028   8.446  0.00  0.00    +0.124 A 
ATOM     21  F   LIG    1      -35.599  77.484   7.606  0.00  0.00    -0.205 F 
ATOM     22  C   LIG    1      -33.939  77.933   9.218  0.00  0.00    +0.046 A 
ENDBRANCH  11  15
ENDBRANCH   4  10
BRANCH   1  23
ATOM     23  N   LIG    1      -27.092  78.069  14.386  0.00  0.00    -0.265 N 
ATOM     24  H   LIG    1      -28.001  78.310  14.770  0.00  0.00    +0.157 HD
BRANCH  23  25
ATOM     25  C   LIG    1      -26.079  78.842  14.897  0.00  0.00    +0.285 C 
ATOM     26  N   LIG    1      -25.149  79.536  14.303  0.00  0.00    -0.199 NA
BRANCH  26  27
ATOM     27  C   LIG    1      -24.185  80.291  15.008  0.00  0.00    +0.069 A 
ATOM     28  C   LIG    1      -23.315  79.731  15.945  0.00  0.00    +0.028 A 
ATOM     29  C   LIG    1      -22.394  80.519  16.644  0.00  0.00    +0.002 A 
ATOM     30  C   LIG    1      -22.287  81.881  16.367  0.00  0.00    +0.000 A 
ATOM     31  C   LIG    1      -23.105  82.447  15.391  0.00  0.00    +0.002 A 
ATOM     32  C   LIG    1      -24.045  81.657  14.716  0.00  0.00    +0.028 A 
ENDBRANCH  26  27
BRANCH  25  33
ATOM     33  O   LIG    1      -26.189  78.819  16.239  0.00  0.00    -0.481 OA
ATOM     34  H   LIG    1      -27.091  78.594  16.502  0.00  0.00    +0.295 HD
ENDBRANCH  25  33
ENDBRANCH  23  25
ENDBRANCH   1  23
TORSDOF 6
ENDMDL
MODEL 4
REMARK VINA RESULT:      -5.9     12.874     16.848
REMARK  Name = pdb/CHEMBL3972751.pdb
REMARK                            x       y       z     vdW  Elec       q    Type
REMARK                         _______ _______ _______ _____ _____    ______ ____
ROOT
ATOM      1  C   LIG    1      -38.780  78.820  26.836  0.00  0.00    +0.099 A 
ATOM      2  C   LIG    1      -37.595  78.761  27.568  0.00  0.00    +0.179 A 
ATOM      3  N   LIG    1      -36.298  78.340  27.299  0.00  0.00    -0.211 NA
ATOM      4  C   LIG    1      -35.371  78.562  28.211  0.00  0.00    +0.126 A 
ATOM      5  C   LIG    1      -35.686  79.175  29.554  0.00  0.00    +0.063 A 
ATOM      6  C   LIG    1      -36.953  79.529  29.779  0.00  0.00    +0.118 A 
ATOM      7  N   LIG    1      -37.917  79.340  28.805  0.00  0.00    -0.220 N 
ATOM      8  N   LIG    1      -39.220  79.685  28.903  0.00  0.00    -0.171 NA
ATOM      9  C   LIG    1      -39.729  79.382  27.710  0.00  0.00    +0.160 A 
ENDROOT
BRANCH   4  10
ATOM     10  N   LIG    1      -34.035  78.229  28.008  0.00  0.00    -0.308 N 
ATOM     11  C   LIG    1      -33.613  77.071  27.201  0.00  0.00    +0.108 C 
ATOM     12  C   LIG    1      -32.320  77.531  26.492  0.00  0.00    +0.029 C 
ATOM     13  C   LIG    1      -32.296  79.043  26.662  0.00  0.00    +0.021 C 
ATOM     14  C   LIG    1      -32.980  79.245  28.002  0.00  0.00    +0.107 C 
BRANCH  11  15
ATOM     15  C   LIG    1      -33.349  75.873  28.100  0.00  0.00    +0.011 A 
ATOM     16  C   LIG    1      -34.272  74.822  28.161  0.00  0.00    +0.129 A 
ATOM     17  F   LIG    1      -35.393  74.876  27.427  0.00  0.00    -0.205 F 
ATOM     18  C   LIG    1      -34.054  73.698  28.963  0.00  0.00    +0.041 A 
ATOM     19  C   LIG    1      -32.887  73.600  29.721  0.00  0.00    +0.041 A 
ATOM     20  C   LIG    1      -31.957  74.628  29.663  0.00  0.00    +0.124 A 
ATOM     21  F   LIG    1      -30.830  74.542  30.382  0.00  0.00    -0.205 F 
ATOM     22  C   LIG    1      -32.174  75.748  28.866  0.00  0.00    +0.046 A 
ENDBRANCH  11  15
ENDBRANCH   4  10
BRANCH   1  23
ATOM     23  N   LIG    1      -38.988  78.421  25.554  0.00  0.00    -0.265 N 
ATOM     24  H   LIG    1      -39.458  79.051  24.911  0.00  0.00    +0.157 HD
BRANCH  23  25
ATOM     25  C   LIG    1      -39.048  77.109  25.151  0.00  0.00    +0.285 C 
ATOM     26  N   LIG    1      -39.545  76.057  25.736  0.00  0.00    -0.199 NA
BRANCH  26  27
ATOM     27  C   LIG    1      -39.524  74.771  25.151  0.00  0.00    +0.069 A 
ATOM     28  C   LIG    1      -40.534  74.299  24.311  0.00  0.00    +0.028 A 
ATOM     29  C   LIG    1      -40.489  73.006  23.776  0.00  0.00    +0.002 A 
ATOM     30  C   LIG    1      -39.394  72.183  24.028  0.00  0.00    +0.000 A 
ATOM     31  C   LIG    1      -38.346  72.658  24.815  0.00  0.00    +0.002 A 
ATOM     32  C   LIG    1      -38.411  73.943  25.371  0.00  0.00    +0.028 A 
ENDBRANCH  26  27
BRANCH  25  33
ATOM     33  O   LIG    1      -38.493  77.037  23.925  0.00  0.00    -0.481 OA
ATOM     34  H   LIG    1      -38.792  77.772  23.374  0.00  0.00    +0.295 HD
ENDBRANCH  25  33
ENDBRANCH  23  25
ENDBRANCH   1  23
TORSDOF 6
ENDMDL
MODEL 5
REMARK VINA RESULT:      -5.9      2.736      5.997
REMARK  Name = pdb/CHEMBL3972751.pdb
REMARK                            x       y       z     vdW  Elec       q    Type
REMARK                         _______ _______ _______ _____ _____    ______ ____
ROOT
ATOM      1  C   LIG    1      -23.928  80.763  35.748  0.00  0.00    +0.099 A 
ATOM      2  C   LIG    1      -24.534  79.702  35.076  0.00  0.00    +0.179 A 
ATOM      3  N   LIG    1      -24.247  78.983  33.923  0.00  0.00    -0.211 NA
ATOM      4  C   LIG    1      -24.985  77.924  33.651  0.00  0.00    +0.126 A 
ATOM      5  C   LIG    1      -26.167  77.522  34.499  0.00  0.00    +0.063 A 
ATOM      6  C   LIG    1      -26.425  78.265  35.576  0.00  0.00    +0.118 A 
ATOM      7  N   LIG    1      -25.623  79.349  35.887  0.00  0.00    -0.220 N 
ATOM      8  N   LIG    1      -25.763  80.155  36.964  0.00  0.00    -0.171 NA
ATOM      9  C   LIG    1      -24.732  80.994  36.880  0.00  0.00    +0.160 A 
ENDROOT
BRANCH   4  10
ATOM     10  N   LIG    1      -24.737  77.108  32.551  0.00  0.00    -0.308 N 
ATOM     11  C   LIG    1      -23.696  76.066  32.546  0.00  0.00    +0.108 C 
ATOM     12  C   LIG    1      -24.290  74.914  31.705  0.00  0.00    +0.029 C 
ATOM     13  C   LIG    1      -25.773  75.234  31.594  0.00  0.00    +0.021 C 
ATOM     14  C   LIG    1      -25.796  76.752  31.602  0.00  0.00    +0.107 C 
BRANCH  11  15
ATOM     15  C   LIG    1      -22.420  76.603  31.917  0.00  0.00    +0.011 A 
ATOM     16  C   LIG    1      -21.452  77.228  32.713  0.00  0.00    +0.129 A 
ATOM     17  F   LIG    1      -21.655  77.357  34.032  0.00  0.00    -0.205 F 
ATOM     18  C   LIG    1      -20.260  77.719  32.171  0.00  0.00    +0.041 A 
ATOM     19  C   LIG    1      -20.007  77.581  30.807  0.00  0.00    +0.041 A 
ATOM     20  C   LIG    1      -20.951  76.953  30.006  0.00  0.00    +0.124 A 
ATOM     21  F   LIG    1      -20.717  76.810  28.695  0.00  0.00    -0.205 F 
ATOM     22  C   LIG    1      -22.139  76.466  30.544  0.00  0.00    +0.046 A 
ENDBRANCH  11  15
ENDBRANCH   4  10
BRANCH   1  23
ATOM     23  N   LIG    1      -22.804  81.440  35.394  0.00  0.00    -0.265 N 
ATOM     24  H   LIG    1      -22.848  82.101  34.623  0.00  0.00    +0.157 HD
BRANCH  23  25
ATOM     25  C   LIG    1      -21.526  81.009  35.652  0.00  0.00    +0.285 C 
ATOM     26  N   LIG    1      -21.076  79.847  36.033  0.00  0.00    -0.199 NA
BRANCH  26  27
ATOM     27  C   LIG    1      -19.704  79.585  36.239  0.00  0.00    +0.069 A 
ATOM     28  C   LIG    1      -18.870  79.062  35.249  0.00  0.00    +0.028 A 
ATOM     29  C   LIG    1      -17.521  78.788  35.505  0.00  0.00    +0.002 A 
ATOM     30  C   LIG    1      -16.969  79.095  36.747  0.00  0.00    +0.000 A 
ATOM     31  C   LIG    1      -17.770  79.674  37.729  0.00  0.00    +0.002 A 
ATOM     32  C   LIG    1      -19.127  79.918  37.476  0.00  0.00    +0.028 A 
ENDBRANCH  26  27
BRANCH  25  33
ATOM     33  O   LIG    1      -20.694  82.040  35.409  0.00  0.00    -0.481 OA
ATOM     34  H   LIG    1      -20.729  82.682  36.131  0.00  0.00    +0.295 HD
ENDBRANCH  25  33
ENDBRANCH  23  25
ENDBRANCH   1  23
TORSDOF 6
ENDMDL
MODEL 6
REMARK VINA RESULT:      -5.9     13.067     17.053
REMARK  Name = pdb/CHEMBL3972751.pdb
REMARK                            x       y       z     vdW  Elec       q    Type
REMARK                         _______ _______ _______ _____ _____    ______ ____
ROOT
ATOM      1  C   LIG    1      -34.711  77.394  27.819  0.00  0.00    +0.099 A 
ATOM      2  C   LIG    1      -34.325  76.190  28.407  0.00  0.00    +0.179 A 
ATOM      3  N   LIG    1      -34.976  75.007  28.731  0.00  0.00    -0.211 NA
ATOM      4  C   LIG    1      -34.249  73.995  29.165  0.00  0.00    +0.126 A 
ATOM      5  C   LIG    1      -32.761  74.108  29.394  0.00  0.00    +0.063 A 
ATOM      6  C   LIG    1      -32.187  75.276  29.101  0.00  0.00    +0.118 A 
ATOM      7  N   LIG    1      -32.942  76.323  28.603  0.00  0.00    -0.220 N 
ATOM      8  N   LIG    1      -32.472  77.537  28.242  0.00  0.00    -0.171 NA
ATOM      9  C   LIG    1      -33.539  78.171  27.759  0.00  0.00    +0.160 A 
ENDROOT
BRANCH   4  10
ATOM     10  N   LIG    1      -34.803  72.753  29.460  0.00  0.00    -0.308 N 
ATOM     11  C   LIG    1      -34.034  71.498  29.394  0.00  0.00    +0.108 C 
ATOM     12  C   LIG    1      -34.582  70.635  30.552  0.00  0.00    +0.029 C 
ATOM     13  C   LIG    1      -35.372  71.601  31.422  0.00  0.00    +0.021 C 
ATOM     14  C   LIG    1      -35.903  72.608  30.417  0.00  0.00    +0.107 C 
BRANCH  11  15
ATOM     15  C   LIG    1      -34.254  70.819  28.051  0.00  0.00    +0.011 A 
ATOM     16  C   LIG    1      -33.543  69.657  27.725  0.00  0.00    +0.129 A 
ATOM     17  F   LIG    1      -32.663  69.147  28.599  0.00  0.00    -0.205 F 
ATOM     18  C   LIG    1      -33.733  68.997  26.507  0.00  0.00    +0.041 A 
ATOM     19  C   LIG    1      -34.657  69.488  25.586  0.00  0.00    +0.041 A 
ATOM     20  C   LIG    1      -35.379  70.632  25.899  0.00  0.00    +0.124 A 
ATOM     21  F   LIG    1      -36.274  71.110  25.025  0.00  0.00    -0.205 F 
ATOM     22  C   LIG    1      -35.190  71.291  27.110  0.00  0.00    +0.046 A 
ENDBRANCH  11  15
ENDBRANCH   4  10
BRANCH   1  23
ATOM     23  N   LIG    1      -35.951  77.754  27.396  0.00  0.00    -0.265 N 
ATOM     24  H   LIG    1      -36.410  78.549  27.832  0.00  0.00    +0.157 HD
BRANCH  23  25
ATOM     25  C   LIG    1      -36.834  76.906  26.775  0.00  0.00    +0.285 C 
ATOM     26  N   LIG    1      -36.924  76.526  25.531  0.00  0.00    -0.199 NA
BRANCH  26  27
ATOM     27  C   LIG    1      -37.910  75.623  25.074  0.00  0.00    +0.069 A 
ATOM     28  C   LIG    1      -37.782  74.237  25.178  0.00  0.00    +0.028 A 
ATOM     29  C   LIG    1      -38.769  73.377  24.684  0.00  0.00    +0.002 A 
ATOM     30  C   LIG    1      -39.937  73.897  24.130  0.00  0.00    +0.000 A 
ATOM     31  C   LIG    1      -40.111  75.279  24.072  0.00  0.00    +0.002 A 
ATOM     32  C   LIG    1      -39.105  76.135  24.542  0.00  0.00    +0.028 A 
ENDBRANCH  26  27
BRANCH  25  33
ATOM     33  O   LIG    1      -37.676  76.438  27.716  0.00  0.00    -0.481 OA
ATOM     34  H   LIG    1      -38.202  75.706  27.368  0.00  0.00    +0.295 HD
ENDBRANCH  25  33
ENDBRANCH  23  25
ENDBRANCH   1  23
TORSDOF 6
ENDMDL
MODEL 7
REMARK VINA RESULT:      -5.8      2.002      5.695
REMARK  Name = pdb/CHEMBL3972751.pdb
REMARK                            x       y       z     vdW  Elec       q    Type
REMARK                         _______ _______ _______ _____ _____    ______ ____
ROOT
ATOM      1  C   LIG    1      -24.619  77.668  32.377  0.00  0.00    +0.099 A 
ATOM      2  C   LIG    1      -23.405  77.464  31.722  0.00  0.00    +0.179 A 
ATOM      3  N   LIG    1      -22.072  77.457  32.113  0.00  0.00    -0.211 NA
ATOM      4  C   LIG    1      -21.167  77.081  31.230  0.00  0.00    +0.126 A 
ATOM      5  C   LIG    1      -21.522  76.741  29.802  0.00  0.00    +0.063 A 
ATOM      6  C   LIG    1      -22.812  76.798  29.465  0.00  0.00    +0.118 A 
ATOM      7  N   LIG    1      -23.766  77.147  30.404  0.00  0.00    -0.220 N 
ATOM      8  N   LIG    1      -25.100  77.209  30.193  0.00  0.00    -0.171 NA
ATOM      9  C   LIG    1      -25.607  77.509  31.387  0.00  0.00    +0.160 A 
ENDROOT
BRANCH   4  10
ATOM     10  N   LIG    1      -19.815  76.987  31.544  0.00  0.00    -0.308 N 
ATOM     11  C   LIG    1      -19.303  76.114  32.616  0.00  0.00    +0.108 C 
ATOM     12  C   LIG    1      -17.946  75.595  32.090  0.00  0.00    +0.029 C 
ATOM     13  C   LIG    1      -17.951  75.919  30.604  0.00  0.00    +0.021 C 
ATOM     14  C   LIG    1      -18.773  77.194  30.536  0.00  0.00    +0.107 C 
BRANCH  11  15
ATOM     15  C   LIG    1      -19.125  76.910  33.900  0.00  0.00    +0.011 A 
ATOM     16  C   LIG    1      -19.990  76.703  34.981  0.00  0.00    +0.129 A 
ATOM     17  F   LIG    1      -20.979  75.804  34.881  0.00  0.00    -0.205 F 
ATOM     18  C   LIG    1      -19.846  77.405  36.182  0.00  0.00    +0.041 A 
ATOM     19  C   LIG    1      -18.813  78.330  36.327  0.00  0.00    +0.041 A 
ATOM     20  C   LIG    1      -17.940  78.539  35.269  0.00  0.00    +0.124 A 
ATOM     21  F   LIG    1      -16.941  79.421  35.399  0.00  0.00    -0.205 F 
ATOM     22  C   LIG    1      -18.083  77.842  34.072  0.00  0.00    +0.046 A 
ENDBRANCH  11  15
ENDBRANCH   4  10
BRANCH   1  23
ATOM     23  N   LIG    1      -24.819  77.963  33.688  0.00  0.00    -0.265 N 
ATOM     24  H   LIG    1      -25.752  77.864  34.080  0.00  0.00    +0.157 HD
BRANCH  23  25
ATOM     25  C   LIG    1      -24.021  78.804  34.425  0.00  0.00    +0.285 C 
ATOM     26  N   LIG    1      -23.625  80.024  34.196  0.00  0.00    -0.199 NA
BRANCH  26  27
ATOM     27  C   LIG    1      -22.801  80.744  35.090  0.00  0.00    +0.069 A 
ATOM     28  C   LIG    1      -21.410  80.630  35.105  0.00  0.00    +0.028 A 
ATOM     29  C   LIG    1      -20.632  81.339  36.028  0.00  0.00    +0.002 A 
ATOM     30  C   LIG    1      -21.237  82.227  36.915  0.00  0.00    +0.000 A 
ATOM     31  C   LIG    1      -22.619  82.401  36.874  0.00  0.00    +0.002 A 
ATOM     32  C   LIG    1      -23.395  81.666  35.968  0.00  0.00    +0.028 A 
ENDBRANCH  26  27
BRANCH  25  33
ATOM     33  O   LIG    1      -23.680  78.153  35.554  0.00  0.00    -0.481 OA
ATOM     34  H   LIG    1      -23.501  77.222  35.368  0.00  0.00    +0.295 HD
ENDBRANCH  25  33
ENDBRANCH  23  25
ENDBRANCH   1  23
TORSDOF 6
ENDMDL
MODEL 8
REMARK VINA RESULT:      -5.8      3.210      7.498
REMARK  Name = pdb/CHEMBL3972751.pdb
REMARK                            x       y       z     vdW  Elec       q    Type
REMARK                         _______ _______ _______ _____ _____    ______ ____
ROOT
ATOM      1  C   LIG    1      -22.792  80.433  35.338  0.00  0.00    +0.099 A 
ATOM      2  C   LIG    1      -22.044  79.609  34.499  0.00  0.00    +0.179 A 
ATOM      3  N   LIG    1      -22.350  78.636  33.556  0.00  0.00    -0.211 NA
ATOM      4  C   LIG    1      -21.366  78.141  32.830  0.00  0.00    +0.126 A 
ATOM      5  C   LIG    1      -19.924  78.534  33.047  0.00  0.00    +0.063 A 
ATOM      6  C   LIG    1      -19.677  79.445  33.990  0.00  0.00    +0.118 A 
ATOM      7  N   LIG    1      -20.714  79.998  34.719  0.00  0.00    -0.220 N 
ATOM      8  N   LIG    1      -20.593  80.948  35.673  0.00  0.00    -0.171 NA
ATOM      9  C   LIG    1      -21.848  81.214  36.031  0.00  0.00    +0.160 A 
ENDROOT
BRANCH   4  10
ATOM     10  N   LIG    1      -21.582  77.206  31.823  0.00  0.00    -0.308 N 
ATOM     11  C   LIG    1      -22.572  77.402  30.749  0.00  0.00    +0.108 C 
ATOM     12  C   LIG    1      -21.930  76.767  29.496  0.00  0.00    +0.029 C 
ATOM     13  C   LIG    1      -20.465  76.577  29.859  0.00  0.00    +0.021 C 
ATOM     14  C   LIG    1      -20.516  76.317  31.354  0.00  0.00    +0.107 C 
BRANCH  11  15
ATOM     15  C   LIG    1      -23.878  76.709  31.108  0.00  0.00    +0.011 A 
ATOM     16  C   LIG    1      -25.088  77.410  31.039  0.00  0.00    +0.129 A 
ATOM     17  F   LIG    1      -25.093  78.696  30.661  0.00  0.00    -0.205 F 
ATOM     18  C   LIG    1      -26.309  76.800  31.345  0.00  0.00    +0.041 A 
ATOM     19  C   LIG    1      -26.341  75.457  31.720  0.00  0.00    +0.041 A 
ATOM     20  C   LIG    1      -25.151  74.745  31.781  0.00  0.00    +0.124 A 
ATOM     21  F   LIG    1      -25.170  73.453  32.134  0.00  0.00    -0.205 F 
ATOM     22  C   LIG    1      -23.935  75.351  31.479  0.00  0.00    +0.046 A 
ENDBRANCH  11  15
ENDBRANCH   4  10
BRANCH   1  23
ATOM     23  N   LIG    1      -24.143  80.480  35.471  0.00  0.00    -0.265 N 
ATOM     24  H   LIG    1      -24.572  81.309  35.873  0.00  0.00    +0.157 HD
BRANCH  23  25
ATOM     25  C   LIG    1      -24.953  79.373  35.552  0.00  0.00    +0.285 C 
ATOM     26  N   LIG    1      -25.530  78.666  34.621  0.00  0.00    -0.199 NA
BRANCH  26  27
ATOM     27  C   LIG    1      -26.330  77.536  34.900  0.00  0.00    +0.069 A 
ATOM     28  C   LIG    1      -27.726  77.570  34.891  0.00  0.00    +0.028 A 
ATOM     29  C   LIG    1      -28.482  76.433  35.203  0.00  0.00    +0.002 A 
ATOM     30  C   LIG    1      -27.847  75.222  35.469  0.00  0.00    +0.000 A 
ATOM     31  C   LIG    1      -26.455  75.154  35.422  0.00  0.00    +0.002 A 
ATOM     32  C   LIG    1      -25.703  76.302  35.138  0.00  0.00    +0.028 A 
ENDBRANCH  26  27
BRANCH  25  33
ATOM     33  O   LIG    1      -25.071  79.051  36.854  0.00  0.00    -0.481 OA
ATOM     34  H   LIG    1      -24.613  78.221  37.041  0.00  0.00    +0.295 HD
ENDBRANCH  25  33
ENDBRANCH  23  25
ENDBRANCH   1  23
TORSDOF 6
ENDMDL
MODEL 9
REMARK VINA RESULT:      -5.7      2.478      5.954
REMARK  Name = pdb/CHEMBL3972751.pdb
REMARK                            x       y       z     vdW  Elec       q    Type
REMARK                         _______ _______ _______ _____ _____    ______ ____
ROOT
ATOM      1  C   LIG    1      -26.098  77.718  34.807  0.00  0.00    +0.099 A 
ATOM      2  C   LIG    1      -25.507  77.569  33.553  0.00  0.00    +0.179 A 
ATOM      3  N   LIG    1      -24.207  77.653  33.068  0.00  0.00    -0.211 NA
ATOM      4  C   LIG    1      -23.988  77.309  31.813  0.00  0.00    +0.126 A 
ATOM      5  C   LIG    1      -25.104  76.911  30.877  0.00  0.00    +0.063 A 
ATOM      6  C   LIG    1      -26.339  76.881  31.380  0.00  0.00    +0.118 A 
ATOM      7  N   LIG    1      -26.563  77.197  32.708  0.00  0.00    -0.220 N 
ATOM      8  N   LIG    1      -27.759  77.172  33.338  0.00  0.00    -0.171 NA
ATOM      9  C   LIG    1      -27.469  77.473  34.602  0.00  0.00    +0.160 A 
ENDROOT
BRANCH   4  10
ATOM     10  N   LIG    1      -22.713  77.304  31.255  0.00  0.00    -0.308 N 
ATOM     11  C   LIG    1      -21.638  76.415  31.727  0.00  0.00    +0.108 C 
ATOM     12  C   LIG    1      -20.848  76.037  30.454  0.00  0.00    +0.029 C 
ATOM     13  C   LIG    1      -21.750  76.445  29.298  0.00  0.00    +0.021 C 
ATOM     14  C   LIG    1      -22.486  77.652  29.851  0.00  0.00    +0.107 C 
BRANCH  11  15
ATOM     15  C   LIG    1      -20.752  77.147  32.724  0.00  0.00    +0.011 A 
ATOM     16  C   LIG    1      -20.884  76.899  34.096  0.00  0.00    +0.129 A 
ATOM     17  F   LIG    1      -21.797  76.019  34.530  0.00  0.00    -0.205 F 
ATOM     18  C   LIG    1      -20.075  77.541  35.039  0.00  0.00    +0.041 A 
ATOM     19  C   LIG    1      -19.100  78.445  34.619  0.00  0.00    +0.041 A 
ATOM     20  C   LIG    1      -18.949  78.693  33.262  0.00  0.00    +0.124 A 
ATOM     21  F   LIG    1      -18.012  79.555  32.847  0.00  0.00    -0.205 F 
ATOM     22  C   LIG    1      -19.754  78.056  32.322  0.00  0.00    +0.046 A 
ENDBRANCH  11  15
ENDBRANCH   4  10
BRANCH   1  23
ATOM     23  N   LIG    1      -25.493  78.034  35.981  0.00  0.00    -0.265 N 
ATOM     24  H   LIG    1      -25.961  77.808  36.855  0.00  0.00    +0.157 HD
BRANCH  23  25
ATOM     25  C   LIG    1      -24.550  79.022  36.126  0.00  0.00    +0.285 C 
ATOM     26  N   LIG    1      -23.286  78.958  36.439  0.00  0.00    -0.199 NA
BRANCH  26  27
ATOM     27  C   LIG    1      -22.459  80.100  36.529  0.00  0.00    +0.069 A 
ATOM     28  C   LIG    1      -22.186  80.750  37.734  0.00  0.00    +0.028 A 
ATOM     29  C   LIG    1      -21.385  81.897  37.776  0.00  0.00    +0.002 A 
ATOM     30  C   LIG    1      -20.790  82.377  36.611  0.00  0.00    +0.000 A 
ATOM     31  C   LIG    1      -21.000  81.705  35.408  0.00  0.00    +0.002 A 
ATOM     32  C   LIG    1      -21.828  80.575  35.368  0.00  0.00    +0.028 A 
ENDBRANCH  26  27
BRANCH  25  33
ATOM     33  O   LIG    1      -25.146  80.196  35.845  0.00  0.00    -0.481 OA
ATOM     34  H   LIG    1      -24.491  80.904  35.786  0.00  0.00    +0.295 HD
ENDBRANCH  25  33
ENDBRANCH  23  25
ENDBRANCH   1  23
TORSDOF 6
ENDMDL
