MODEL 1
REMARK VINA RESULT:      -6.9      0.000      0.000
REMARK  Name = pdb/CHEMBL3959978.pdb
REMARK                            x       y       z     vdW  Elec       q    Type
REMARK                         _______ _______ _______ _____ _____    ______ ____
ROOT
ATOM      1  C   LIG    1      -31.224  87.113  30.696  0.00  0.00    +0.149 A 
ATOM      2  N   LIG    1      -32.131  87.974  30.217  0.00  0.00    -0.160 NA
ATOM      3  N   LIG    1      -33.079  87.203  29.601  0.00  0.00    -0.218 N 
ATOM      4  C   LIG    1      -32.733  85.834  29.651  0.00  0.00    +0.129 A 
ATOM      5  C   LIG    1      -31.500  85.806  30.259  0.00  0.00    +0.078 A 
ENDROOT
BRANCH   3   6
ATOM      6  C   LIG    1      -34.174  87.872  28.976  0.00  0.00    +0.067 A 
ATOM      7  C   LIG    1      -35.478  87.371  28.991  0.00  0.00    +0.028 A 
ATOM      8  C   LIG    1      -36.498  88.045  28.309  0.00  0.00    +0.002 A 
ATOM      9  C   LIG    1      -36.232  89.233  27.629  0.00  0.00    +0.000 A 
ATOM     10  C   LIG    1      -34.947  89.762  27.638  0.00  0.00    +0.002 A 
ATOM     11  C   LIG    1      -33.925  89.092  28.313  0.00  0.00    +0.028 A 
ENDBRANCH   3   6
BRANCH   4  12
ATOM     12  N   LIG    1      -33.436  84.720  29.141  0.00  0.00    -0.266 N 
ATOM     13  H   LIG    1      -33.281  84.426  28.197  0.00  0.00    +0.157 HD
ATOM     14  C   LIG    1      -34.359  83.929  29.937  0.00  0.00    +0.251 C 
ATOM     15  O   LIG    1      -34.602  84.223  31.082  0.00  0.00    -0.270 OA
BRANCH  14  16
ATOM     16  C   LIG    1      -35.047  82.770  29.313  0.00  0.00    +0.056 A 
ATOM     17  C   LIG    1      -36.415  82.725  29.045  0.00  0.00    +0.053 A 
ATOM     18 CL   LIG    1      -37.497  84.025  29.386  0.00  0.00    -0.083 Cl
ATOM     19  C   LIG    1      -36.960  81.591  28.439  0.00  0.00    +0.021 A 
ATOM     20  C   LIG    1      -36.145  80.506  28.100  0.00  0.00    +0.011 A 
ATOM     21  C   LIG    1      -34.760  80.528  28.313  0.00  0.00    +0.004 A 
ATOM     22  C   LIG    1      -34.228  81.683  28.924  0.00  0.00    +0.024 A 
BRANCH  21  23
ATOM     23  C   LIG    1      -33.898  79.398  27.892  0.00  0.00    +0.106 A 
ATOM     24  C   LIG    1      -33.801  78.212  28.629  0.00  0.00    +0.149 A 
ATOM     25  F   LIG    1      -34.448  78.054  29.793  0.00  0.00    -0.203 F 
ATOM     26  C   LIG    1      -33.017  77.164  28.164  0.00  0.00    +0.042 A 
ATOM     27  C   LIG    1      -32.287  77.337  26.998  0.00  0.00    +0.023 A 
ATOM     28  C   LIG    1      -32.397  78.550  26.335  0.00  0.00    +0.111 A 
ATOM     29  N   LIG    1      -33.201  79.571  26.737  0.00  0.00    -0.252 NA
ENDBRANCH  21  23
ENDBRANCH  14  16
ENDBRANCH   4  12
BRANCH   1  30
ATOM     30  C   LIG    1      -30.118  87.598  31.523  0.00  0.00    +0.236 C 
ATOM     31  N   LIG    1      -30.239  87.746  32.794  0.00  0.00    -0.244 NA
BRANCH  30  32
ATOM     32  O   LIG    1      -28.991  87.878  30.825  0.00  0.00    -0.491 OA
ATOM     33  H   LIG    1      -28.355  87.146  30.951  0.00  0.00    +0.294 HD
ENDBRANCH  30  32
BRANCH  31  34
ATOM     34  C   LIG    1      -29.056  88.280  33.487  0.00  0.00    +0.183 C 
BRANCH  34  35
ATOM     35  C   LIG    1      -28.389  87.238  34.334  0.00  0.00    +0.011 A 
ATOM     36  C   LIG    1      -28.860  85.972  34.639  0.00  0.00    +0.110 A 
ATOM     37  N   LIG    1      -27.922  85.381  35.436  0.00  0.00    -0.284 N 
ATOM     38  H   LIG    1      -27.936  84.451  35.843  0.00  0.00    +0.188 HD
ATOM     39  N   LIG    1      -26.861  86.165  35.674  0.00  0.00    -0.182 NA
ATOM     40  C   LIG    1      -27.137  87.282  34.993  0.00  0.00    +0.139 A 
ENDBRANCH  34  35
ENDBRANCH  31  34
ENDBRANCH   1  30
TORSDOF 8
ENDMDL
MODEL 2
REMARK VINA RESULT:      -6.8     18.025     19.724
REMARK  Name = pdb/CHEMBL3959978.pdb
REMARK                            x       y       z     vdW  Elec       q    Type
REMARK                         _______ _______ _______ _____ _____    ______ ____
ROOT
ATOM      1  C   LIG    1      -22.649  83.007  15.359  0.00  0.00    +0.149 A 
ATOM      2  N   LIG    1      -23.726  82.443  14.796  0.00  0.00    -0.160 NA
ATOM      3  N   LIG    1      -23.555  81.095  14.946  0.00  0.00    -0.218 N 
ATOM      4  C   LIG    1      -22.321  80.804  15.570  0.00  0.00    +0.129 A 
ATOM      5  C   LIG    1      -21.713  82.027  15.731  0.00  0.00    +0.078 A 
ENDROOT
BRANCH   3   6
ATOM      6  C   LIG    1      -24.562  80.235  14.413  0.00  0.00    +0.067 A 
ATOM      7  C   LIG    1      -24.990  80.299  13.085  0.00  0.00    +0.028 A 
ATOM      8  C   LIG    1      -26.023  79.467  12.638  0.00  0.00    +0.002 A 
ATOM      9  C   LIG    1      -26.620  78.551  13.502  0.00  0.00    +0.000 A 
ATOM     10  C   LIG    1      -26.179  78.450  14.816  0.00  0.00    +0.002 A 
ATOM     11  C   LIG    1      -25.152  79.281  15.269  0.00  0.00    +0.028 A 
ENDBRANCH   3   6
BRANCH   4  12
ATOM     12  N   LIG    1      -21.769  79.547  15.908  0.00  0.00    -0.266 N 
ATOM     13  H   LIG    1      -21.754  79.254  16.865  0.00  0.00    +0.157 HD
ATOM     14  C   LIG    1      -21.254  78.613  14.922  0.00  0.00    +0.251 C 
ATOM     15  O   LIG    1      -21.235  78.895  13.749  0.00  0.00    -0.270 OA
BRANCH  14  16
ATOM     16  C   LIG    1      -20.701  77.312  15.375  0.00  0.00    +0.056 A 
ATOM     17  C   LIG    1      -19.403  77.140  15.858  0.00  0.00    +0.053 A 
ATOM     18 CL   LIG    1      -18.266  78.428  16.014  0.00  0.00    -0.083 Cl
ATOM     19  C   LIG    1      -18.986  75.874  16.275  0.00  0.00    +0.021 A 
ATOM     20  C   LIG    1      -19.859  74.783  16.212  0.00  0.00    +0.011 A 
ATOM     21  C   LIG    1      -21.183  74.921  15.773  0.00  0.00    +0.004 A 
ATOM     22  C   LIG    1      -21.586  76.208  15.358  0.00  0.00    +0.024 A 
BRANCH  21  23
ATOM     23  C   LIG    1      -22.116  73.769  15.771  0.00  0.00    +0.106 A 
ATOM     24  C   LIG    1      -23.049  73.556  16.792  0.00  0.00    +0.149 A 
ATOM     25  F   LIG    1      -23.115  74.361  17.862  0.00  0.00    -0.203 F 
ATOM     26  C   LIG    1      -23.935  72.488  16.717  0.00  0.00    +0.042 A 
ATOM     27  C   LIG    1      -23.834  71.606  15.651  0.00  0.00    +0.023 A 
ATOM     28  C   LIG    1      -22.862  71.851  14.692  0.00  0.00    +0.111 A 
ATOM     29  N   LIG    1      -22.022  72.920  14.711  0.00  0.00    -0.252 NA
ENDBRANCH  21  23
ENDBRANCH  14  16
ENDBRANCH   4  12
BRANCH   1  30
ATOM     30  C   LIG    1      -22.560  84.463  15.479  0.00  0.00    +0.236 C 
ATOM     31  N   LIG    1      -22.394  85.217  14.451  0.00  0.00    -0.244 NA
BRANCH  30  32
ATOM     32  O   LIG    1      -22.656  84.916  16.751  0.00  0.00    -0.491 OA
ATOM     33  H   LIG    1      -23.597  85.097  16.949  0.00  0.00    +0.294 HD
ENDBRANCH  30  32
BRANCH  31  34
ATOM     34  C   LIG    1      -22.283  86.656  14.730  0.00  0.00    +0.183 C 
BRANCH  34  35
ATOM     35  C   LIG    1      -21.106  87.271  14.034  0.00  0.00    +0.011 A 
ATOM     36  C   LIG    1      -21.075  88.453  13.315  0.00  0.00    +0.110 A 
ATOM     37  N   LIG    1      -19.796  88.610  12.865  0.00  0.00    -0.284 N 
ATOM     38  H   LIG    1      -19.411  89.368  12.308  0.00  0.00    +0.188 HD
ATOM     39  N   LIG    1      -18.977  87.618  13.241  0.00  0.00    -0.182 NA
ATOM     40  C   LIG    1      -19.767  86.816  13.962  0.00  0.00    +0.139 A 
ENDBRANCH  34  35
ENDBRANCH  31  34
ENDBRANCH   1  30
TORSDOF 8
ENDMDL
MODEL 3
REMARK VINA RESULT:      -6.6      6.195     10.539
REMARK  Name = pdb/CHEMBL3959978.pdb
REMARK                            x       y       z     vdW  Elec       q    Type
REMARK                         _______ _______ _______ _____ _____    ______ ____
ROOT
ATOM      1  C   LIG    1      -37.662  80.170  27.473  0.00  0.00    +0.149 A 
ATOM      2  N   LIG    1      -36.534  79.629  27.953  0.00  0.00    -0.160 NA
ATOM      3  N   LIG    1      -36.625  78.291  27.682  0.00  0.00    -0.218 N 
ATOM      4  C   LIG    1      -37.857  77.978  27.066  0.00  0.00    +0.129 A 
ATOM      5  C   LIG    1      -38.546  79.168  27.036  0.00  0.00    +0.078 A 
ENDROOT
BRANCH   3   6
ATOM      6  C   LIG    1      -35.548  77.455  28.106  0.00  0.00    +0.067 A 
ATOM      7  C   LIG    1      -35.077  77.432  29.421  0.00  0.00    +0.028 A 
ATOM      8  C   LIG    1      -33.980  76.633  29.761  0.00  0.00    +0.002 A 
ATOM      9  C   LIG    1      -33.360  75.833  28.802  0.00  0.00    +0.000 A 
ATOM     10  C   LIG    1      -33.843  75.817  27.498  0.00  0.00    +0.002 A 
ATOM     11  C   LIG    1      -34.934  76.616  27.152  0.00  0.00    +0.028 A 
ENDBRANCH   3   6
BRANCH   4  12
ATOM     12  N   LIG    1      -38.338  76.724  26.626  0.00  0.00    -0.266 N 
ATOM     13  H   LIG    1      -38.858  76.145  27.255  0.00  0.00    +0.157 HD
ATOM     14  C   LIG    1      -38.160  76.235  25.270  0.00  0.00    +0.251 C 
ATOM     15  O   LIG    1      -37.541  76.874  24.455  0.00  0.00    -0.270 OA
BRANCH  14  16
ATOM     16  C   LIG    1      -38.709  74.905  24.901  0.00  0.00    +0.056 A 
ATOM     17  C   LIG    1      -39.878  74.720  24.163  0.00  0.00    +0.053 A 
ATOM     18 CL   LIG    1      -40.839  76.018  23.557  0.00  0.00    -0.083 Cl
ATOM     19  C   LIG    1      -40.299  73.424  23.856  0.00  0.00    +0.021 A 
ATOM     20  C   LIG    1      -39.558  72.317  24.282  0.00  0.00    +0.011 A 
ATOM     21  C   LIG    1      -38.356  72.460  24.989  0.00  0.00    +0.004 A 
ATOM     22  C   LIG    1      -37.947  73.777  25.288  0.00  0.00    +0.024 A 
BRANCH  21  23
ATOM     23  C   LIG    1      -37.549  71.281  25.380  0.00  0.00    +0.106 A 
ATOM     24  C   LIG    1      -37.444  70.848  26.707  0.00  0.00    +0.149 A 
ATOM     25  F   LIG    1      -38.034  71.513  27.711  0.00  0.00    -0.203 F 
ATOM     26  C   LIG    1      -36.714  69.707  27.014  0.00  0.00    +0.042 A 
ATOM     27  C   LIG    1      -36.041  69.047  25.997  0.00  0.00    +0.023 A 
ATOM     28  C   LIG    1      -36.153  69.549  24.708  0.00  0.00    +0.111 A 
ATOM     29  N   LIG    1      -36.907  70.629  24.372  0.00  0.00    -0.252 NA
ENDBRANCH  21  23
ENDBRANCH  14  16
ENDBRANCH   4  12
BRANCH   1  30
ATOM     30  C   LIG    1      -37.846  81.621  27.492  0.00  0.00    +0.236 C 
ATOM     31  N   LIG    1      -37.847  82.316  26.410  0.00  0.00    -0.244 NA
BRANCH  30  32
ATOM     32  O   LIG    1      -37.996  82.141  28.734  0.00  0.00    -0.491 OA
ATOM     33  H   LIG    1      -37.346  81.718  29.330  0.00  0.00    +0.294 HD
ENDBRANCH  30  32
BRANCH  31  34
ATOM     34  C   LIG    1      -38.002  83.768  26.588  0.00  0.00    +0.183 C 
BRANCH  34  35
ATOM     35  C   LIG    1      -36.682  84.478  26.548  0.00  0.00    +0.011 A 
ATOM     36  C   LIG    1      -35.794  84.546  25.489  0.00  0.00    +0.110 A 
ATOM     37  N   LIG    1      -34.733  85.297  25.908  0.00  0.00    -0.284 N 
ATOM     38  H   LIG    1      -33.899  85.555  25.390  0.00  0.00    +0.188 HD
ATOM     39  N   LIG    1      -34.860  85.734  27.169  0.00  0.00    -0.182 NA
ATOM     40  C   LIG    1      -36.048  85.253  27.550  0.00  0.00    +0.139 A 
ENDBRANCH  34  35
ENDBRANCH  31  34
ENDBRANCH   1  30
TORSDOF 8
ENDMDL
MODEL 4
REMARK VINA RESULT:      -6.6      9.036     14.783
REMARK  Name = pdb/CHEMBL3959978.pdb
REMARK                            x       y       z     vdW  Elec       q    Type
REMARK                         _______ _______ _______ _____ _____    ______ ____
ROOT
ATOM      1  C   LIG    1      -34.433  73.064  27.987  0.00  0.00    +0.149 A 
ATOM      2  N   LIG    1      -33.935  71.820  28.004  0.00  0.00    -0.160 NA
ATOM      3  N   LIG    1      -34.885  71.037  27.410  0.00  0.00    -0.218 N 
ATOM      4  C   LIG    1      -36.024  71.796  27.058  0.00  0.00    +0.129 A 
ATOM      5  C   LIG    1      -35.760  73.061  27.526  0.00  0.00    +0.078 A 
ENDROOT
BRANCH   3   6
ATOM      6  C   LIG    1      -34.622  69.637  27.308  0.00  0.00    +0.067 A 
ATOM      7  C   LIG    1      -34.427  68.988  26.086  0.00  0.00    +0.028 A 
ATOM      8  C   LIG    1      -34.230  67.603  26.050  0.00  0.00    +0.002 A 
ATOM      9  C   LIG    1      -34.203  66.859  27.228  0.00  0.00    +0.000 A 
ATOM     10  C   LIG    1      -34.358  67.497  28.453  0.00  0.00    +0.002 A 
ATOM     11  C   LIG    1      -34.559  68.879  28.496  0.00  0.00    +0.028 A 
ENDBRANCH   3   6
BRANCH   4  12
ATOM     12  N   LIG    1      -37.215  71.371  26.426  0.00  0.00    -0.266 N 
ATOM     13  H   LIG    1      -38.031  71.193  26.976  0.00  0.00    +0.157 HD
ATOM     14  C   LIG    1      -37.342  71.219  24.986  0.00  0.00    +0.251 C 
ATOM     15  O   LIG    1      -36.401  71.412  24.256  0.00  0.00    -0.270 OA
BRANCH  14  16
ATOM     16  C   LIG    1      -38.638  70.774  24.415  0.00  0.00    +0.056 A 
ATOM     17  C   LIG    1      -39.002  69.438  24.251  0.00  0.00    +0.053 A 
ATOM     18 CL   LIG    1      -37.997  68.113  24.710  0.00  0.00    -0.083 Cl
ATOM     19  C   LIG    1      -40.255  69.126  23.718  0.00  0.00    +0.021 A 
ATOM     20  C   LIG    1      -41.142  70.143  23.351  0.00  0.00    +0.011 A 
ATOM     21  C   LIG    1      -40.833  71.497  23.538  0.00  0.00    +0.004 A 
ATOM     22  C   LIG    1      -39.564  71.791  24.081  0.00  0.00    +0.024 A 
BRANCH  21  23
ATOM     23  C   LIG    1      -41.808  72.563  23.204  0.00  0.00    +0.106 A 
ATOM     24  C   LIG    1      -41.512  73.923  23.345  0.00  0.00    +0.149 A 
ATOM     25  F   LIG    1      -40.338  74.338  23.843  0.00  0.00    -0.203 F 
ATOM     26  C   LIG    1      -42.443  74.883  22.970  0.00  0.00    +0.042 A 
ATOM     27  C   LIG    1      -43.688  74.470  22.518  0.00  0.00    +0.023 A 
ATOM     28  C   LIG    1      -43.932  73.107  22.438  0.00  0.00    +0.111 A 
ATOM     29  N   LIG    1      -43.019  72.147  22.744  0.00  0.00    -0.252 NA
ENDBRANCH  21  23
ENDBRANCH  14  16
ENDBRANCH   4  12
BRANCH   1  30
ATOM     30  C   LIG    1      -33.616  74.188  28.446  0.00  0.00    +0.236 C 
ATOM     31  N   LIG    1      -33.844  75.393  28.059  0.00  0.00    -0.244 NA
BRANCH  30  32
ATOM     32  O   LIG    1      -32.614  73.833  29.287  0.00  0.00    -0.491 OA
ATOM     33  H   LIG    1      -32.094  74.631  29.507  0.00  0.00    +0.294 HD
ENDBRANCH  30  32
BRANCH  31  34
ATOM     34  C   LIG    1      -32.916  76.412  28.572  0.00  0.00    +0.183 C 
BRANCH  34  35
ATOM     35  C   LIG    1      -32.845  77.607  27.669  0.00  0.00    +0.011 A 
ATOM     36  C   LIG    1      -32.164  77.716  26.469  0.00  0.00    +0.110 A 
ATOM     37  N   LIG    1      -32.385  78.980  26.002  0.00  0.00    -0.284 N 
ATOM     38  H   LIG    1      -32.042  79.405  25.146  0.00  0.00    +0.188 HD
ATOM     39  N   LIG    1      -33.168  79.712  26.807  0.00  0.00    -0.182 NA
ATOM     40  C   LIG    1      -33.461  78.874  27.807  0.00  0.00    +0.139 A 
ENDBRANCH  34  35
ENDBRANCH  31  34
ENDBRANCH   1  30
TORSDOF 8
ENDMDL
MODEL 5
REMARK VINA RESULT:      -6.6      9.137     14.897
REMARK  Name = pdb/CHEMBL3959978.pdb
REMARK                            x       y       z     vdW  Elec       q    Type
REMARK                         _______ _______ _______ _____ _____    ______ ____
ROOT
ATOM      1  C   LIG    1      -33.224  73.113  28.680  0.00  0.00    +0.149 A 
ATOM      2  N   LIG    1      -32.664  72.004  29.182  0.00  0.00    -0.160 NA
ATOM      3  N   LIG    1      -33.360  70.962  28.634  0.00  0.00    -0.218 N 
ATOM      4  C   LIG    1      -34.411  71.426  27.812  0.00  0.00    +0.129 A 
ATOM      5  C   LIG    1      -34.373  72.796  27.936  0.00  0.00    +0.078 A 
ENDROOT
BRANCH   3   6
ATOM      6  C   LIG    1      -32.981  69.638  29.015  0.00  0.00    +0.067 A 
ATOM      7  C   LIG    1      -33.419  68.499  28.336  0.00  0.00    +0.028 A 
ATOM      8  C   LIG    1      -33.059  67.226  28.794  0.00  0.00    +0.002 A 
ATOM      9  C   LIG    1      -32.243  67.080  29.915  0.00  0.00    +0.000 A 
ATOM     10  C   LIG    1      -31.769  68.207  30.577  0.00  0.00    +0.002 A 
ATOM     11  C   LIG    1      -32.129  69.479  30.127  0.00  0.00    +0.028 A 
ENDBRANCH   3   6
BRANCH   4  12
ATOM     12  N   LIG    1      -35.353  70.682  27.067  0.00  0.00    -0.266 N 
ATOM     13  H   LIG    1      -36.241  70.461  27.471  0.00  0.00    +0.157 HD
ATOM     14  C   LIG    1      -35.122  70.247  25.700  0.00  0.00    +0.251 C 
ATOM     15  O   LIG    1      -34.074  70.471  25.145  0.00  0.00    -0.270 OA
BRANCH  14  16
ATOM     16  C   LIG    1      -36.177  69.475  24.996  0.00  0.00    +0.056 A 
ATOM     17  C   LIG    1      -36.131  68.096  24.793  0.00  0.00    +0.053 A 
ATOM     18 CL   LIG    1      -34.844  67.091  25.353  0.00  0.00    -0.083 Cl
ATOM     19  C   LIG    1      -37.186  67.462  24.132  0.00  0.00    +0.021 A 
ATOM     20  C   LIG    1      -38.282  68.200  23.675  0.00  0.00    +0.011 A 
ATOM     21  C   LIG    1      -38.387  69.581  23.896  0.00  0.00    +0.004 A 
ATOM     22  C   LIG    1      -37.313  70.201  24.568  0.00  0.00    +0.024 A 
BRANCH  21  23
ATOM     23  C   LIG    1      -39.584  70.340  23.463  0.00  0.00    +0.106 A 
ATOM     24  C   LIG    1      -40.317  70.000  22.320  0.00  0.00    +0.149 A 
ATOM     25  F   LIG    1      -39.942  68.990  21.521  0.00  0.00    -0.203 F 
ATOM     26  C   LIG    1      -41.460  70.714  21.985  0.00  0.00    +0.042 A 
ATOM     27  C   LIG    1      -41.822  71.805  22.762  0.00  0.00    +0.023 A 
ATOM     28  C   LIG    1      -41.031  72.113  23.860  0.00  0.00    +0.111 A 
ATOM     29  N   LIG    1      -39.942  71.396  24.243  0.00  0.00    -0.252 NA
ENDBRANCH  21  23
ENDBRANCH  14  16
ENDBRANCH   4  12
BRANCH   1  30
ATOM     30  C   LIG    1      -32.644  74.424  28.971  0.00  0.00    +0.236 C 
ATOM     31  N   LIG    1      -33.256  75.515  28.676  0.00  0.00    -0.244 NA
BRANCH  30  32
ATOM     32  O   LIG    1      -31.422  74.368  29.554  0.00  0.00    -0.491 OA
ATOM     33  H   LIG    1      -30.818  73.872  28.965  0.00  0.00    +0.294 HD
ENDBRANCH  30  32
BRANCH  31  34
ATOM     34  C   LIG    1      -32.532  76.756  28.991  0.00  0.00    +0.183 C 
BRANCH  34  35
ATOM     35  C   LIG    1      -32.635  77.759  27.881  0.00  0.00    +0.011 A 
ATOM     36  C   LIG    1      -32.071  77.679  26.619  0.00  0.00    +0.110 A 
ATOM     37  N   LIG    1      -32.431  78.815  25.952  0.00  0.00    -0.284 N 
ATOM     38  H   LIG    1      -32.199  79.089  25.002  0.00  0.00    +0.188 HD
ATOM     39  N   LIG    1      -33.198  79.637  26.682  0.00  0.00    -0.182 NA
ATOM     40  C   LIG    1      -33.335  78.989  27.843  0.00  0.00    +0.139 A 
ENDBRANCH  34  35
ENDBRANCH  31  34
ENDBRANCH   1  30
TORSDOF 8
ENDMDL
MODEL 6
REMARK VINA RESULT:      -6.5      8.946     16.201
REMARK  Name = pdb/CHEMBL3959978.pdb
REMARK                            x       y       z     vdW  Elec       q    Type
REMARK                         _______ _______ _______ _____ _____    ______ ____
ROOT
ATOM      1  C   LIG    1      -35.794  69.166  25.252  0.00  0.00    +0.149 A 
ATOM      2  N   LIG    1      -36.838  70.003  25.207  0.00  0.00    -0.160 NA
ATOM      3  N   LIG    1      -36.381  71.188  25.714  0.00  0.00    -0.218 N 
ATOM      4  C   LIG    1      -35.036  71.078  26.133  0.00  0.00    +0.129 A 
ATOM      5  C   LIG    1      -34.712  69.757  25.927  0.00  0.00    +0.078 A 
ENDROOT
BRANCH   3   6
ATOM      6  C   LIG    1      -37.306  72.273  25.803  0.00  0.00    +0.067 A 
ATOM      7  C   LIG    1      -37.535  72.980  26.985  0.00  0.00    +0.028 A 
ATOM      8  C   LIG    1      -38.498  73.995  27.021  0.00  0.00    +0.002 A 
ATOM      9  C   LIG    1      -39.219  74.330  25.877  0.00  0.00    +0.000 A 
ATOM     10  C   LIG    1      -38.973  73.660  24.683  0.00  0.00    +0.002 A 
ATOM     11  C   LIG    1      -38.018  72.643  24.643  0.00  0.00    +0.028 A 
ENDBRANCH   3   6
BRANCH   4  12
ATOM     12  N   LIG    1      -34.199  72.063  26.704  0.00  0.00    -0.266 N 
ATOM     13  H   LIG    1      -33.605  72.611  26.114  0.00  0.00    +0.157 HD
ATOM     14  C   LIG    1      -34.182  72.367  28.125  0.00  0.00    +0.251 C 
ATOM     15  O   LIG    1      -34.866  71.747  28.901  0.00  0.00    -0.270 OA
BRANCH  14  16
ATOM     16  C   LIG    1      -33.271  73.426  28.629  0.00  0.00    +0.056 A 
ATOM     17  C   LIG    1      -32.121  73.176  29.376  0.00  0.00    +0.053 A 
ATOM     18 CL   LIG    1      -31.585  71.592  29.803  0.00  0.00    -0.083 Cl
ATOM     19  C   LIG    1      -31.322  74.246  29.789  0.00  0.00    +0.021 A 
ATOM     20  C   LIG    1      -31.669  75.559  29.456  0.00  0.00    +0.011 A 
ATOM     21  C   LIG    1      -32.793  75.850  28.671  0.00  0.00    +0.004 A 
ATOM     22  C   LIG    1      -33.585  74.756  28.263  0.00  0.00    +0.024 A 
BRANCH  21  23
ATOM     23  C   LIG    1      -33.114  77.242  28.273  0.00  0.00    +0.106 A 
ATOM     24  C   LIG    1      -32.518  77.864  27.171  0.00  0.00    +0.149 A 
ATOM     25  F   LIG    1      -31.579  77.247  26.439  0.00  0.00    -0.203 F 
ATOM     26  C   LIG    1      -32.891  79.153  26.811  0.00  0.00    +0.042 A 
ATOM     27  C   LIG    1      -33.809  79.831  27.598  0.00  0.00    +0.023 A 
ATOM     28  C   LIG    1      -34.334  79.172  28.701  0.00  0.00    +0.111 A 
ATOM     29  N   LIG    1      -34.030  77.891  29.041  0.00  0.00    -0.252 NA
ENDBRANCH  21  23
ENDBRANCH  14  16
ENDBRANCH   4  12
BRANCH   1  30
ATOM     30  C   LIG    1      -35.901  67.827  24.672  0.00  0.00    +0.236 C 
ATOM     31  N   LIG    1      -35.496  67.573  23.478  0.00  0.00    -0.244 NA
BRANCH  30  32
ATOM     32  O   LIG    1      -36.468  66.914  25.497  0.00  0.00    -0.491 OA
ATOM     33  H   LIG    1      -36.727  66.133  24.968  0.00  0.00    +0.294 HD
ENDBRANCH  30  32
BRANCH  31  34
ATOM     34  C   LIG    1      -35.706  66.192  23.017  0.00  0.00    +0.183 C 
BRANCH  34  35
ATOM     35  C   LIG    1      -34.804  65.845  21.870  0.00  0.00    +0.011 A 
ATOM     36  C   LIG    1      -33.893  66.671  21.236  0.00  0.00    +0.110 A 
ATOM     37  N   LIG    1      -33.301  65.928  20.254  0.00  0.00    -0.284 N 
ATOM     38  H   LIG    1      -32.581  66.211  19.596  0.00  0.00    +0.188 HD
ATOM     39  N   LIG    1      -33.754  64.668  20.199  0.00  0.00    -0.182 NA
ATOM     40  C   LIG    1      -34.651  64.613  21.188  0.00  0.00    +0.139 A 
ENDBRANCH  34  35
ENDBRANCH  31  34
ENDBRANCH   1  30
TORSDOF 8
ENDMDL
MODEL 7
REMARK VINA RESULT:      -6.4     11.686     13.312
REMARK  Name = pdb/CHEMBL3959978.pdb
REMARK                            x       y       z     vdW  Elec       q    Type
REMARK                         _______ _______ _______ _____ _____    ______ ____
ROOT
ATOM      1  C   LIG    1      -24.072  78.583  34.307  0.00  0.00    +0.149 A 
ATOM      2  N   LIG    1      -23.170  78.664  33.319  0.00  0.00    -0.160 NA
ATOM      3  N   LIG    1      -23.237  77.466  32.663  0.00  0.00    -0.218 N 
ATOM      4  C   LIG    1      -24.162  76.596  33.282  0.00  0.00    +0.129 A 
ATOM      5  C   LIG    1      -24.607  77.286  34.386  0.00  0.00    +0.078 A 
ENDROOT
BRANCH   3   6
ATOM      6  C   LIG    1      -22.355  77.266  31.558  0.00  0.00    +0.067 A 
ATOM      7  C   LIG    1      -22.778  76.737  30.336  0.00  0.00    +0.028 A 
ATOM      8  C   LIG    1      -21.853  76.511  29.310  0.00  0.00    +0.002 A 
ATOM      9  C   LIG    1      -20.508  76.831  29.484  0.00  0.00    +0.000 A 
ATOM     10  C   LIG    1      -20.080  77.393  30.682  0.00  0.00    +0.002 A 
ATOM     11  C   LIG    1      -20.997  77.617  31.710  0.00  0.00    +0.028 A 
ENDBRANCH   3   6
BRANCH   4  12
ATOM     12  N   LIG    1      -24.527  75.281  32.918  0.00  0.00    -0.266 N 
ATOM     13  H   LIG    1      -24.135  74.504  33.411  0.00  0.00    +0.157 HD
ATOM     14  C   LIG    1      -25.496  74.983  31.877  0.00  0.00    +0.251 C 
ATOM     15  O   LIG    1      -26.010  75.866  31.235  0.00  0.00    -0.270 OA
BRANCH  14  16
ATOM     16  C   LIG    1      -25.819  73.566  31.571  0.00  0.00    +0.056 A 
ATOM     17  C   LIG    1      -27.057  72.975  31.822  0.00  0.00    +0.053 A 
ATOM     18 CL   LIG    1      -28.396  73.821  32.507  0.00  0.00    -0.083 Cl
ATOM     19  C   LIG    1      -27.263  71.636  31.481  0.00  0.00    +0.021 A 
ATOM     20  C   LIG    1      -26.238  70.889  30.891  0.00  0.00    +0.011 A 
ATOM     21  C   LIG    1      -24.993  71.456  30.583  0.00  0.00    +0.004 A 
ATOM     22  C   LIG    1      -24.807  72.810  30.934  0.00  0.00    +0.024 A 
BRANCH  21  23
ATOM     23  C   LIG    1      -23.938  70.671  29.901  0.00  0.00    +0.106 A 
ATOM     24  C   LIG    1      -22.864  70.097  30.591  0.00  0.00    +0.149 A 
ATOM     25  F   LIG    1      -22.704  70.271  31.910  0.00  0.00    -0.203 F 
ATOM     26  C   LIG    1      -21.928  69.328  29.910  0.00  0.00    +0.042 A 
ATOM     27  C   LIG    1      -22.040  69.196  28.534  0.00  0.00    +0.023 A 
ATOM     28  C   LIG    1      -23.106  69.822  27.905  0.00  0.00    +0.111 A 
ATOM     29  N   LIG    1      -24.068  70.531  28.553  0.00  0.00    -0.252 NA
ENDBRANCH  21  23
ENDBRANCH  14  16
ENDBRANCH   4  12
BRANCH   1  30
ATOM     30  C   LIG    1      -24.348  79.750  35.146  0.00  0.00    +0.236 C 
ATOM     31  N   LIG    1      -23.440  80.620  35.414  0.00  0.00    -0.244 NA
BRANCH  30  32
ATOM     32  O   LIG    1      -25.621  79.807  35.606  0.00  0.00    -0.491 OA
ATOM     33  H   LIG    1      -26.226  79.537  34.887  0.00  0.00    +0.294 HD
ENDBRANCH  30  32
BRANCH  31  34
ATOM     34  C   LIG    1      -23.854  81.717  36.303  0.00  0.00    +0.183 C 
BRANCH  34  35
ATOM     35  C   LIG    1      -22.678  82.369  36.967  0.00  0.00    +0.011 A 
ATOM     36  C   LIG    1      -22.662  83.043  38.176  0.00  0.00    +0.110 A 
ATOM     37  N   LIG    1      -21.379  83.465  38.377  0.00  0.00    -0.284 N 
ATOM     38  H   LIG    1      -21.002  83.986  39.163  0.00  0.00    +0.188 HD
ATOM     39  N   LIG    1      -20.545  83.111  37.389  0.00  0.00    -0.182 NA
ATOM     40  C   LIG    1      -21.329  82.433  36.544  0.00  0.00    +0.139 A 
ENDBRANCH  34  35
ENDBRANCH  31  34
ENDBRANCH   1  30
TORSDOF 8
ENDMDL
MODEL 8
REMARK VINA RESULT:      -6.4     18.571     21.500
REMARK  Name = pdb/CHEMBL3959978.pdb
REMARK                            x       y       z     vdW  Elec       q    Type
REMARK                         _______ _______ _______ _____ _____    ______ ____
ROOT
ATOM      1  C   LIG    1      -26.319  77.746  13.757  0.00  0.00    +0.149 A 
ATOM      2  N   LIG    1      -25.179  77.730  14.462  0.00  0.00    -0.160 NA
ATOM      3  N   LIG    1      -24.693  79.006  14.402  0.00  0.00    -0.218 N 
ATOM      4  C   LIG    1      -25.516  79.829  13.601  0.00  0.00    +0.129 A 
ATOM      5  C   LIG    1      -26.488  78.985  13.116  0.00  0.00    +0.078 A 
ENDROOT
BRANCH   3   6
ATOM      6  C   LIG    1      -23.456  79.276  15.063  0.00  0.00    +0.067 A 
ATOM      7  C   LIG    1      -23.318  80.267  16.038  0.00  0.00    +0.028 A 
ATOM      8  C   LIG    1      -22.065  80.522  16.608  0.00  0.00    +0.002 A 
ATOM      9  C   LIG    1      -20.949  79.778  16.230  0.00  0.00    +0.000 A 
ATOM     10  C   LIG    1      -21.080  78.764  15.288  0.00  0.00    +0.002 A 
ATOM     11  C   LIG    1      -22.326  78.508  14.713  0.00  0.00    +0.028 A 
ENDBRANCH   3   6
BRANCH   4  12
ATOM     12  N   LIG    1      -25.371  81.199  13.290  0.00  0.00    -0.266 N 
ATOM     13  H   LIG    1      -25.881  81.883  13.813  0.00  0.00    +0.157 HD
ATOM     14  C   LIG    1      -24.467  81.690  12.263  0.00  0.00    +0.251 C 
ATOM     15  O   LIG    1      -23.821  80.927  11.587  0.00  0.00    -0.270 OA
BRANCH  14  16
ATOM     16  C   LIG    1      -24.378  83.152  12.014  0.00  0.00    +0.056 A 
ATOM     17  C   LIG    1      -25.258  83.860  11.195  0.00  0.00    +0.053 A 
ATOM     18 CL   LIG    1      -26.589  83.133  10.372  0.00  0.00    -0.083 Cl
ATOM     19  C   LIG    1      -25.095  85.238  11.040  0.00  0.00    +0.021 A 
ATOM     20  C   LIG    1      -24.060  85.909  11.700  0.00  0.00    +0.011 A 
ATOM     21  C   LIG    1      -23.181  85.242  12.565  0.00  0.00    +0.004 A 
ATOM     22  C   LIG    1      -23.363  83.850  12.709  0.00  0.00    +0.024 A 
BRANCH  21  23
ATOM     23  C   LIG    1      -22.128  85.976  13.307  0.00  0.00    +0.106 A 
ATOM     24  C   LIG    1      -20.794  86.008  12.883  0.00  0.00    +0.149 A 
ATOM     25  F   LIG    1      -20.385  85.329  11.802  0.00  0.00    -0.203 F 
ATOM     26  C   LIG    1      -19.856  86.752  13.588  0.00  0.00    +0.042 A 
ATOM     27  C   LIG    1      -20.249  87.403  14.748  0.00  0.00    +0.023 A 
ATOM     28  C   LIG    1      -21.577  87.299  15.135  0.00  0.00    +0.111 A 
ATOM     29  N   LIG    1      -22.528  86.627  14.433  0.00  0.00    -0.252 NA
ENDBRANCH  21  23
ENDBRANCH  14  16
ENDBRANCH   4  12
BRANCH   1  30
ATOM     30  C   LIG    1      -27.170  76.556  13.710  0.00  0.00    +0.236 C 
ATOM     31  N   LIG    1      -27.203  75.789  12.679  0.00  0.00    -0.244 NA
BRANCH  30  32
ATOM     32  O   LIG    1      -27.907  76.363  14.830  0.00  0.00    -0.491 OA
ATOM     33  H   LIG    1      -28.482  75.583  14.694  0.00  0.00    +0.294 HD
ENDBRANCH  30  32
BRANCH  31  34
ATOM     34  C   LIG    1      -28.135  74.655  12.760  0.00  0.00    +0.183 C 
BRANCH  34  35
ATOM     35  C   LIG    1      -29.398  74.914  11.995  0.00  0.00    +0.011 A 
ATOM     36  C   LIG    1      -30.556  74.157  11.999  0.00  0.00    +0.110 A 
ATOM     37  N   LIG    1      -31.436  74.773  11.157  0.00  0.00    -0.284 N 
ATOM     38  H   LIG    1      -32.385  74.497  10.923  0.00  0.00    +0.188 HD
ATOM     39  N   LIG    1      -30.943  75.888  10.600  0.00  0.00    -0.182 NA
ATOM     40  C   LIG    1      -29.715  75.982  11.121  0.00  0.00    +0.139 A 
ENDBRANCH  34  35
ENDBRANCH  31  34
ENDBRANCH   1  30
TORSDOF 8
ENDMDL
MODEL 9
REMARK VINA RESULT:      -6.4      8.207     10.699
REMARK  Name = pdb/CHEMBL3959978.pdb
REMARK                            x       y       z     vdW  Elec       q    Type
REMARK                         _______ _______ _______ _____ _____    ______ ____
ROOT
ATOM      1  C   LIG    1      -29.414  76.019  31.379  0.00  0.00    +0.149 A 
ATOM      2  N   LIG    1      -29.589  74.721  31.100  0.00  0.00    -0.160 NA
ATOM      3  N   LIG    1      -30.834  74.631  30.540  0.00  0.00    -0.218 N 
ATOM      4  C   LIG    1      -31.473  75.891  30.515  0.00  0.00    +0.129 A 
ATOM      5  C   LIG    1      -30.596  76.742  31.146  0.00  0.00    +0.078 A 
ENDROOT
BRANCH   3   6
ATOM      6  C   LIG    1      -31.296  73.336  30.156  0.00  0.00    +0.067 A 
ATOM      7  C   LIG    1      -30.531  72.178  30.317  0.00  0.00    +0.028 A 
ATOM      8  C   LIG    1      -31.018  70.946  29.866  0.00  0.00    +0.002 A 
ATOM      9  C   LIG    1      -32.277  70.853  29.276  0.00  0.00    +0.000 A 
ATOM     10  C   LIG    1      -33.065  71.991  29.145  0.00  0.00    +0.002 A 
ATOM     11  C   LIG    1      -32.583  73.224  29.588  0.00  0.00    +0.028 A 
ENDBRANCH   3   6
BRANCH   4  12
ATOM     12  N   LIG    1      -32.753  76.228  30.020  0.00  0.00    -0.266 N 
ATOM     13  H   LIG    1      -33.560  76.085  30.595  0.00  0.00    +0.157 HD
ATOM     14  C   LIG    1      -32.969  76.829  28.715  0.00  0.00    +0.251 C 
ATOM     15  O   LIG    1      -32.048  77.028  27.962  0.00  0.00    -0.270 OA
BRANCH  14  16
ATOM     16  C   LIG    1      -34.354  77.155  28.287  0.00  0.00    +0.056 A 
ATOM     17  C   LIG    1      -34.923  78.424  28.385  0.00  0.00    +0.053 A 
ATOM     18 CL   LIG    1      -34.085  79.800  29.002  0.00  0.00    -0.083 Cl
ATOM     19  C   LIG    1      -36.231  78.627  27.938  0.00  0.00    +0.021 A 
ATOM     20  C   LIG    1      -36.968  77.571  27.394  0.00  0.00    +0.011 A 
ATOM     21  C   LIG    1      -36.418  76.290  27.238  0.00  0.00    +0.004 A 
ATOM     22  C   LIG    1      -35.095  76.105  27.694  0.00  0.00    +0.024 A 
BRANCH  21  23
ATOM     23  C   LIG    1      -37.188  75.194  26.603  0.00  0.00    +0.106 A 
ATOM     24  C   LIG    1      -37.722  75.301  25.313  0.00  0.00    +0.149 A 
ATOM     25  F   LIG    1      -37.607  76.429  24.598  0.00  0.00    -0.203 F 
ATOM     26  C   LIG    1      -38.393  74.226  24.745  0.00  0.00    +0.042 A 
ATOM     27  C   LIG    1      -38.581  73.077  25.498  0.00  0.00    +0.023 A 
ATOM     28  C   LIG    1      -38.060  73.049  26.784  0.00  0.00    +0.111 A 
ATOM     29  N   LIG    1      -37.350  74.064  27.343  0.00  0.00    -0.252 NA
ENDBRANCH  21  23
ENDBRANCH  14  16
ENDBRANCH   4  12
BRANCH   1  30
ATOM     30  C   LIG    1      -28.126  76.493  31.888  0.00  0.00    +0.236 C 
ATOM     31  N   LIG    1      -27.013  76.119  31.364  0.00  0.00    -0.244 NA
BRANCH  30  32
ATOM     32  O   LIG    1      -28.228  77.331  32.947  0.00  0.00    -0.491 OA
ATOM     33  H   LIG    1      -27.681  76.979  33.678  0.00  0.00    +0.294 HD
ENDBRANCH  30  32
BRANCH  31  34
ATOM     34  C   LIG    1      -25.799  76.645  32.007  0.00  0.00    +0.183 C 
BRANCH  34  35
ATOM     35  C   LIG    1      -24.753  77.019  31.000  0.00  0.00    +0.011 A 
ATOM     36  C   LIG    1      -24.648  78.207  30.297  0.00  0.00    +0.110 A 
ATOM     37  N   LIG    1      -23.545  78.099  29.499  0.00  0.00    -0.284 N 
ATOM     38  H   LIG    1      -23.164  78.783  28.853  0.00  0.00    +0.188 HD
ATOM     39  N   LIG    1      -22.910  76.925  29.630  0.00  0.00    -0.182 NA
ATOM     40  C   LIG    1      -23.632  76.279  30.551  0.00  0.00    +0.139 A 
ENDBRANCH  34  35
ENDBRANCH  31  34
ENDBRANCH   1  30
TORSDOF 8
ENDMDL
