MODEL 1
REMARK VINA RESULT:      -6.1      0.000      0.000
REMARK  Name = pdb/CHEMBL3673462.pdb
REMARK                            x       y       z     vdW  Elec       q    Type
REMARK                         _______ _______ _______ _____ _____    ______ ____
ROOT
ATOM      1  N   LIG    1      -28.545  75.497  32.291  0.00  0.00    -0.311 N 
ATOM      2  C   LIG    1      -27.228  75.390  31.937  0.00  0.00    +0.161 A 
ATOM      3  N   LIG    1      -26.481  74.281  31.875  0.00  0.00    -0.235 NA
ATOM      4  C   LIG    1      -25.197  74.551  31.503  0.00  0.00    +0.121 A 
ATOM      5  C   LIG    1      -24.653  75.812  31.214  0.00  0.00    +0.005 A 
ATOM      6  C   LIG    1      -25.503  76.922  31.301  0.00  0.00    +0.041 A 
ATOM      7  C   LIG    1      -26.834  76.702  31.670  0.00  0.00    +0.108 A 
ATOM      8  N   LIG    1      -27.880  77.572  31.829  0.00  0.00    -0.234 NA
ATOM      9  C   LIG    1      -28.897  76.816  32.203  0.00  0.00    +0.201 A 
ENDROOT
BRANCH   5  10
ATOM     10  C   LIG    1      -23.261  75.972  30.822  0.00  0.00    +0.021 A 
ATOM     11  C   LIG    1      -22.179  75.372  31.429  0.00  0.00    +0.117 A 
ATOM     12  N   LIG    1      -21.068  75.741  30.717  0.00  0.00    -0.268 N 
ATOM     13  N   LIG    1      -21.355  76.584  29.713  0.00  0.00    -0.179 NA
ATOM     14  C   LIG    1      -22.680  76.721  29.771  0.00  0.00    +0.143 A 
BRANCH  12  15
ATOM     15  C   LIG    1      -19.702  75.282  30.962  0.00  0.00    +0.110 C 
ATOM     16  C   LIG    1      -19.441  74.891  32.422  0.00  0.00    +0.042 C 
ATOM     17  C   LIG    1      -19.198  76.107  33.313  0.00  0.00    +0.083 C 
ATOM     18  N   LIG    1      -18.123  76.945  32.781  0.00  0.00    -0.316 NA
ATOM     19  H   LIG    1      -18.001  77.744  33.405  0.00  0.00    +0.122 HD
ATOM     20  C   LIG    1      -18.455  77.444  31.446  0.00  0.00    +0.083 C 
ATOM     21  C   LIG    1      -18.665  76.296  30.463  0.00  0.00    +0.042 C 
ENDBRANCH  12  15
ENDBRANCH   5  10
BRANCH   1  22
ATOM     22  C   LIG    1      -29.406  74.402  32.692  0.00  0.00    +0.160 C 
BRANCH  22  26
ATOM     23  C   LIG    1      -32.775  74.139  29.980  0.00  0.00    +0.162 A 
ATOM     24  C   LIG    1      -32.868  74.888  31.175  0.00  0.00    +0.162 A 
ATOM     25  C   LIG    1      -31.771  74.929  32.048  0.00  0.00    +0.054 A 
ATOM     26  C   LIG    1      -30.579  74.266  31.756  0.00  0.00    -0.024 A 
ATOM     27  C   LIG    1      -30.490  73.538  30.574  0.00  0.00    +0.009 A 
ATOM     28  C   LIG    1      -31.572  73.480  29.697  0.00  0.00    +0.050 A 
BRANCH  24  29
ATOM     29  O   LIG    1      -34.035  75.561  31.469  0.00  0.00    -0.491 OA
ATOM     30  C   LIG    1      -33.887  76.982  31.591  0.00  0.00    +0.277 C 
ENDBRANCH  24  29
BRANCH  23  31
ATOM     31  O   LIG    1      -33.867  74.098  29.148  0.00  0.00    -0.484 OA
BRANCH  31  32
ATOM     32  C   LIG    1      -33.744  74.643  27.822  0.00  0.00    +0.266 C 
BRANCH  32  36
ATOM     33  C   LIG    1      -33.727  78.885  27.802  0.00  0.00    +0.214 A 
ATOM     34  N   LIG    1      -34.908  78.244  27.918  0.00  0.00    -0.221 NA
ATOM     35  C   LIG    1      -34.880  76.895  27.923  0.00  0.00    +0.121 A 
ATOM     36  C   LIG    1      -33.719  76.145  27.824  0.00  0.00    +0.008 A 
ATOM     37  C   LIG    1      -32.511  76.845  27.683  0.00  0.00    +0.013 A 
ATOM     38  C   LIG    1      -32.510  78.237  27.683  0.00  0.00    +0.067 A 
BRANCH  33  40
ATOM     39  C   LIG    1      -35.019  80.795  27.597  0.00  0.00    +0.279 C 
ATOM     40  O   LIG    1      -33.714  80.265  27.830  0.00  0.00    -0.480 OA
ENDBRANCH  33  40
ENDBRANCH  32  36
ENDBRANCH  31  32
ENDBRANCH  23  31
ENDBRANCH  22  26
ENDBRANCH   1  22
TORSDOF 9
ENDMDL
MODEL 2
REMARK VINA RESULT:      -6.0     11.781     14.392
REMARK  Name = pdb/CHEMBL3673462.pdb
REMARK                            x       y       z     vdW  Elec       q    Type
REMARK                         _______ _______ _______ _____ _____    ______ ____
ROOT
ATOM      1  N   LIG    1      -37.074  66.588  19.876  0.00  0.00    -0.311 N 
ATOM      2  C   LIG    1      -35.707  66.588  19.873  0.00  0.00    +0.161 A 
ATOM      3  N   LIG    1      -34.882  66.171  20.841  0.00  0.00    -0.235 NA
ATOM      4  C   LIG    1      -33.571  66.338  20.503  0.00  0.00    +0.121 A 
ATOM      5  C   LIG    1      -33.075  66.881  19.308  0.00  0.00    +0.005 A 
ATOM      6  C   LIG    1      -34.005  67.292  18.345  0.00  0.00    +0.041 A 
ATOM      7  C   LIG    1      -35.364  67.135  18.635  0.00  0.00    +0.108 A 
ATOM      8  N   LIG    1      -36.482  67.432  17.902  0.00  0.00    -0.234 NA
ATOM      9  C   LIG    1      -37.496  67.091  18.675  0.00  0.00    +0.201 A 
ENDROOT
BRANCH   5  10
ATOM     10  C   LIG    1      -31.646  67.005  19.062  0.00  0.00    +0.021 A 
ATOM     11  C   LIG    1      -31.023  68.069  18.446  0.00  0.00    +0.117 A 
ATOM     12  N   LIG    1      -29.678  67.811  18.470  0.00  0.00    -0.268 N 
ATOM     13  N   LIG    1      -29.390  66.620  19.020  0.00  0.00    -0.179 NA
ATOM     14  C   LIG    1      -30.577  66.135  19.383  0.00  0.00    +0.143 A 
BRANCH  12  15
ATOM     15  C   LIG    1      -28.626  68.703  17.987  0.00  0.00    +0.110 C 
ATOM     16  C   LIG    1      -27.674  69.180  19.092  0.00  0.00    +0.042 C 
ATOM     17  C   LIG    1      -28.269  70.319  19.916  0.00  0.00    +0.083 C 
ATOM     18  N   LIG    1      -28.695  71.427  19.058  0.00  0.00    -0.316 NA
ATOM     19  H   LIG    1      -29.088  72.159  19.652  0.00  0.00    +0.122 HD
ATOM     20  C   LIG    1      -29.722  70.993  18.111  0.00  0.00    +0.083 C 
ATOM     21  C   LIG    1      -29.202  69.886  17.199  0.00  0.00    +0.042 C 
ENDBRANCH  12  15
ENDBRANCH   5  10
BRANCH   1  22
ATOM     22  C   LIG    1      -37.919  66.138  20.964  0.00  0.00    +0.160 C 
BRANCH  22  26
ATOM     23  C   LIG    1      -38.463  69.350  23.820  0.00  0.00    +0.162 A 
ATOM     24  C   LIG    1      -37.587  68.277  24.100  0.00  0.00    +0.162 A 
ATOM     25  C   LIG    1      -37.455  67.235  23.170  0.00  0.00    +0.054 A 
ATOM     26  C   LIG    1      -38.152  67.243  21.961  0.00  0.00    -0.024 A 
ATOM     27  C   LIG    1      -39.006  68.307  21.687  0.00  0.00    +0.009 A 
ATOM     28  C   LIG    1      -39.154  69.347  22.602  0.00  0.00    +0.050 A 
BRANCH  24  29
ATOM     29  O   LIG    1      -36.881  68.264  25.285  0.00  0.00    -0.491 OA
ATOM     30  C   LIG    1      -35.462  68.389  25.131  0.00  0.00    +0.277 C 
ENDBRANCH  24  29
BRANCH  23  31
ATOM     31  O   LIG    1      -38.591  70.350  24.753  0.00  0.00    -0.484 OA
BRANCH  31  32
ATOM     32  C   LIG    1      -37.809  71.547  24.591  0.00  0.00    +0.266 C 
BRANCH  32  36
ATOM     33  C   LIG    1      -40.254  74.996  24.235  0.00  0.00    +0.214 A 
ATOM     34  N   LIG    1      -40.746  73.808  23.825  0.00  0.00    -0.221 NA
ATOM     35  C   LIG    1      -39.945  72.731  23.952  0.00  0.00    +0.121 A 
ATOM     36  C   LIG    1      -38.666  72.776  24.482  0.00  0.00    +0.008 A 
ATOM     37  C   LIG    1      -38.178  74.031  24.879  0.00  0.00    +0.013 A 
ATOM     38  C   LIG    1      -38.987  75.159  24.766  0.00  0.00    +0.067 A 
BRANCH  33  40
ATOM     39  C   LIG    1      -40.379  77.191  23.511  0.00  0.00    +0.279 C 
ATOM     40  O   LIG    1      -41.060  76.113  24.152  0.00  0.00    -0.480 OA
ENDBRANCH  33  40
ENDBRANCH  32  36
ENDBRANCH  31  32
ENDBRANCH  23  31
ENDBRANCH  22  26
ENDBRANCH   1  22
TORSDOF 9
ENDMDL
MODEL 3
REMARK VINA RESULT:      -6.0      9.312     14.623
REMARK  Name = pdb/CHEMBL3673462.pdb
REMARK                            x       y       z     vdW  Elec       q    Type
REMARK                         _______ _______ _______ _____ _____    ______ ____
ROOT
ATOM      1  N   LIG    1      -40.339  70.167  23.027  0.00  0.00    -0.311 N 
ATOM      2  C   LIG    1      -39.156  69.497  22.886  0.00  0.00    +0.161 A 
ATOM      3  N   LIG    1      -38.191  69.331  23.799  0.00  0.00    -0.235 NA
ATOM      4  C   LIG    1      -37.136  68.621  23.304  0.00  0.00    +0.121 A 
ATOM      5  C   LIG    1      -37.007  68.104  22.006  0.00  0.00    +0.005 A 
ATOM      6  C   LIG    1      -38.063  68.320  21.112  0.00  0.00    +0.041 A 
ATOM      7  C   LIG    1      -39.175  69.035  21.570  0.00  0.00    +0.108 A 
ATOM      8  N   LIG    1      -40.339  69.389  20.940  0.00  0.00    -0.234 NA
ATOM      9  C   LIG    1      -41.020  70.070  21.844  0.00  0.00    +0.201 A 
ENDROOT
BRANCH   5  10
ATOM     10  C   LIG    1      -35.827  67.357  21.596  0.00  0.00    +0.021 A 
ATOM     11  C   LIG    1      -35.608  66.817  20.347  0.00  0.00    +0.117 A 
ATOM     12  N   LIG    1      -34.360  66.253  20.371  0.00  0.00    -0.268 N 
ATOM     13  N   LIG    1      -33.772  66.349  21.574  0.00  0.00    -0.179 NA
ATOM     14  C   LIG    1      -34.655  67.020  22.314  0.00  0.00    +0.143 A 
BRANCH  12  15
ATOM     15  C   LIG    1      -33.683  65.624  19.238  0.00  0.00    +0.110 C 
ATOM     16  C   LIG    1      -32.156  65.604  19.374  0.00  0.00    +0.042 C 
ATOM     17  C   LIG    1      -31.524  66.946  19.012  0.00  0.00    +0.083 C 
ATOM     18  N   LIG    1      -31.940  67.383  17.678  0.00  0.00    -0.316 NA
ATOM     19  H   LIG    1      -31.498  68.283  17.484  0.00  0.00    +0.122 HD
ATOM     20  C   LIG    1      -33.392  67.552  17.608  0.00  0.00    +0.083 C 
ATOM     21  C   LIG    1      -34.116  66.242  17.903  0.00  0.00    +0.042 C 
ENDBRANCH  12  15
ENDBRANCH   5  10
BRANCH   1  22
ATOM     22  C   LIG    1      -40.784  70.861  24.220  0.00  0.00    +0.160 C 
BRANCH  22  26
ATOM     23  C   LIG    1      -39.081  74.829  24.574  0.00  0.00    +0.162 A 
ATOM     24  C   LIG    1      -40.330  74.634  23.943  0.00  0.00    +0.162 A 
ATOM     25  C   LIG    1      -40.842  73.335  23.815  0.00  0.00    +0.054 A 
ATOM     26  C   LIG    1      -40.157  72.227  24.317  0.00  0.00    -0.024 A 
ATOM     27  C   LIG    1      -38.932  72.426  24.945  0.00  0.00    +0.009 A 
ATOM     28  C   LIG    1      -38.405  73.709  25.075  0.00  0.00    +0.050 A 
BRANCH  24  29
ATOM     29  O   LIG    1      -41.026  75.721  23.455  0.00  0.00    -0.491 OA
ATOM     30  C   LIG    1      -42.397  75.454  23.137  0.00  0.00    +0.277 C 
ENDBRANCH  24  29
BRANCH  23  31
ATOM     31  O   LIG    1      -38.591  76.108  24.671  0.00  0.00    -0.484 OA
BRANCH  31  32
ATOM     32  C   LIG    1      -38.817  76.842  25.888  0.00  0.00    +0.266 C 
BRANCH  32  36
ATOM     33  C   LIG    1      -35.207  77.870  27.865  0.00  0.00    +0.214 A 
ATOM     34  N   LIG    1      -36.209  78.772  27.838  0.00  0.00    -0.221 NA
ATOM     35  C   LIG    1      -37.345  78.415  27.203  0.00  0.00    +0.121 A 
ATOM     36  C   LIG    1      -37.536  77.186  26.593  0.00  0.00    +0.008 A 
ATOM     37  C   LIG    1      -36.465  76.280  26.621  0.00  0.00    +0.013 A 
ATOM     38  C   LIG    1      -35.284  76.619  27.277  0.00  0.00    +0.067 A 
BRANCH  33  40
ATOM     39  C   LIG    1      -33.083  78.766  27.655  0.00  0.00    +0.279 C 
ATOM     40  O   LIG    1      -34.044  78.188  28.537  0.00  0.00    -0.480 OA
ENDBRANCH  33  40
ENDBRANCH  32  36
ENDBRANCH  31  32
ENDBRANCH  23  31
ENDBRANCH  22  26
ENDBRANCH   1  22
TORSDOF 9
ENDMDL
MODEL 4
REMARK VINA RESULT:      -5.9      7.594      9.467
REMARK  Name = pdb/CHEMBL3673462.pdb
REMARK                            x       y       z     vdW  Elec       q    Type
REMARK                         _______ _______ _______ _____ _____    ______ ____
ROOT
ATOM      1  N   LIG    1      -24.943  82.621  38.148  0.00  0.00    -0.311 N 
ATOM      2  C   LIG    1      -24.660  81.672  37.203  0.00  0.00    +0.161 A 
ATOM      3  N   LIG    1      -25.494  80.774  36.666  0.00  0.00    -0.235 NA
ATOM      4  C   LIG    1      -24.864  79.967  35.765  0.00  0.00    +0.121 A 
ATOM      5  C   LIG    1      -23.509  80.012  35.402  0.00  0.00    +0.005 A 
ATOM      6  C   LIG    1      -22.704  80.984  36.009  0.00  0.00    +0.041 A 
ATOM      7  C   LIG    1      -23.302  81.845  36.935  0.00  0.00    +0.108 A 
ATOM      8  N   LIG    1      -22.782  82.877  37.670  0.00  0.00    -0.234 NA
ATOM      9  C   LIG    1      -23.795  83.325  38.391  0.00  0.00    +0.201 A 
ENDROOT
BRANCH   5  10
ATOM     10  C   LIG    1      -22.951  79.094  34.419  0.00  0.00    +0.021 A 
ATOM     11  C   LIG    1      -23.662  78.170  33.684  0.00  0.00    +0.117 A 
ATOM     12  N   LIG    1      -22.770  77.560  32.843  0.00  0.00    -0.268 N 
ATOM     13  N   LIG    1      -21.512  77.995  33.020  0.00  0.00    -0.179 NA
ATOM     14  C   LIG    1      -21.620  78.926  33.968  0.00  0.00    +0.143 A 
BRANCH  12  15
ATOM     15  C   LIG    1      -23.095  76.557  31.831  0.00  0.00    +0.110 C 
ATOM     16  C   LIG    1      -21.961  76.309  30.829  0.00  0.00    +0.042 C 
ATOM     17  C   LIG    1      -21.896  77.386  29.748  0.00  0.00    +0.083 C 
ATOM     18  N   LIG    1      -23.186  77.535  29.073  0.00  0.00    -0.316 NA
ATOM     19  H   LIG    1      -23.095  78.267  28.366  0.00  0.00    +0.122 HD
ATOM     20  C   LIG    1      -24.232  77.929  30.017  0.00  0.00    +0.083 C 
ATOM     21  C   LIG    1      -24.411  76.882  31.113  0.00  0.00    +0.042 C 
ENDBRANCH  12  15
ENDBRANCH   5  10
BRANCH   1  22
ATOM     22  C   LIG    1      -26.231  82.832  38.779  0.00  0.00    +0.160 C 
BRANCH  22  26
ATOM     23  C   LIG    1      -28.682  85.682  36.626  0.00  0.00    +0.162 A 
ATOM     24  C   LIG    1      -28.615  84.333  36.213  0.00  0.00    +0.162 A 
ATOM     25  C   LIG    1      -27.788  83.440  36.911  0.00  0.00    +0.054 A 
ATOM     26  C   LIG    1      -27.045  83.846  38.020  0.00  0.00    -0.024 A 
ATOM     27  C   LIG    1      -27.123  85.174  38.428  0.00  0.00    +0.009 A 
ATOM     28  C   LIG    1      -27.934  86.077  37.743  0.00  0.00    +0.050 A 
BRANCH  24  29
ATOM     29  O   LIG    1      -29.355  83.913  35.127  0.00  0.00    -0.491 OA
ATOM     30  C   LIG    1      -30.525  83.157  35.463  0.00  0.00    +0.277 C 
ENDBRANCH  24  29
BRANCH  23  31
ATOM     31  O   LIG    1      -29.483  86.543  35.918  0.00  0.00    -0.484 OA
BRANCH  31  32
ATOM     32  C   LIG    1      -28.881  87.367  34.903  0.00  0.00    +0.266 C 
BRANCH  32  36
ATOM     33  C   LIG    1      -30.897  86.995  31.188  0.00  0.00    +0.214 A 
ATOM     34  N   LIG    1      -31.320  86.252  32.232  0.00  0.00    -0.221 NA
ATOM     35  C   LIG    1      -30.660  86.394  33.399  0.00  0.00    +0.121 A 
ATOM     36  C   LIG    1      -29.591  87.256  33.584  0.00  0.00    +0.008 A 
ATOM     37  C   LIG    1      -29.163  87.998  32.472  0.00  0.00    +0.013 A 
ATOM     38  C   LIG    1      -29.832  87.877  31.257  0.00  0.00    +0.067 A 
BRANCH  33  40
ATOM     39  C   LIG    1      -32.168  85.615  29.833  0.00  0.00    +0.279 C 
ATOM     40  O   LIG    1      -31.572  86.902  29.989  0.00  0.00    -0.480 OA
ENDBRANCH  33  40
ENDBRANCH  32  36
ENDBRANCH  31  32
ENDBRANCH  23  31
ENDBRANCH  22  26
ENDBRANCH   1  22
TORSDOF 9
ENDMDL
MODEL 5
REMARK VINA RESULT:      -5.9      1.284      2.024
REMARK  Name = pdb/CHEMBL3673462.pdb
REMARK                            x       y       z     vdW  Elec       q    Type
REMARK                         _______ _______ _______ _____ _____    ______ ____
ROOT
ATOM      1  N   LIG    1      -28.323  75.428  32.373  0.00  0.00    -0.311 N 
ATOM      2  C   LIG    1      -27.118  75.941  31.979  0.00  0.00    +0.161 A 
ATOM      3  N   LIG    1      -26.794  77.226  31.791  0.00  0.00    -0.235 NA
ATOM      4  C   LIG    1      -25.503  77.372  31.377  0.00  0.00    +0.121 A 
ATOM      5  C   LIG    1      -24.574  76.346  31.148  0.00  0.00    +0.005 A 
ATOM      6  C   LIG    1      -24.992  75.028  31.370  0.00  0.00    +0.041 A 
ATOM      7  C   LIG    1      -26.305  74.821  31.805  0.00  0.00    +0.108 A 
ATOM      8  N   LIG    1      -26.983  73.669  32.106  0.00  0.00    -0.234 NA
ATOM      9  C   LIG    1      -28.195  74.067  32.445  0.00  0.00    +0.201 A 
ENDROOT
BRANCH   5  10
ATOM     10  C   LIG    1      -23.216  76.630  30.707  0.00  0.00    +0.021 A 
ATOM     11  C   LIG    1      -22.284  77.374  31.397  0.00  0.00    +0.117 A 
ATOM     12  N   LIG    1      -21.128  77.344  30.663  0.00  0.00    -0.268 N 
ATOM     13  N   LIG    1      -21.265  76.667  29.511  0.00  0.00    -0.179 NA
ATOM     14  C   LIG    1      -22.524  76.230  29.540  0.00  0.00    +0.143 A 
BRANCH  12  15
ATOM     15  C   LIG    1      -19.852  77.945  31.048  0.00  0.00    +0.110 C 
ATOM     16  C   LIG    1      -18.647  77.028  30.803  0.00  0.00    +0.042 C 
ATOM     17  C   LIG    1      -18.487  75.976  31.898  0.00  0.00    +0.083 C 
ATOM     18  N   LIG    1      -18.432  76.595  33.223  0.00  0.00    -0.316 NA
ATOM     19  H   LIG    1      -18.331  75.855  33.919  0.00  0.00    +0.122 HD
ATOM     20  C   LIG    1      -19.659  77.339  33.509  0.00  0.00    +0.083 C 
ATOM     21  C   LIG    1      -19.879  78.456  32.494  0.00  0.00    +0.042 C 
ENDBRANCH  12  15
ENDBRANCH   5  10
BRANCH   1  22
ATOM     22  C   LIG    1      -29.520  76.195  32.655  0.00  0.00    +0.160 C 
BRANCH  22  26
ATOM     23  C   LIG    1      -32.665  75.524  29.751  0.00  0.00    +0.162 A 
ATOM     24  C   LIG    1      -32.912  75.359  31.132  0.00  0.00    +0.162 A 
ATOM     25  C   LIG    1      -31.866  75.552  32.047  0.00  0.00    +0.054 A 
ATOM     26  C   LIG    1      -30.590  75.928  31.628  0.00  0.00    -0.024 A 
ATOM     27  C   LIG    1      -30.354  76.099  30.267  0.00  0.00    +0.009 A 
ATOM     28  C   LIG    1      -31.379  75.904  29.343  0.00  0.00    +0.050 A 
BRANCH  24  29
ATOM     29  O   LIG    1      -34.173  75.002  31.562  0.00  0.00    -0.491 OA
ATOM     30  C   LIG    1      -34.355  75.061  32.982  0.00  0.00    +0.277 C 
ENDBRANCH  24  29
BRANCH  23  31
ATOM     31  O   LIG    1      -33.698  75.312  28.872  0.00  0.00    -0.484 OA
BRANCH  31  32
ATOM     32  C   LIG    1      -33.630  75.918  27.569  0.00  0.00    +0.266 C 
BRANCH  32  36
ATOM     33  C   LIG    1      -34.608  80.046  27.658  0.00  0.00    +0.214 A 
ATOM     34  N   LIG    1      -33.424  79.673  27.131  0.00  0.00    -0.221 NA
ATOM     35  C   LIG    1      -33.143  78.354  27.116  0.00  0.00    +0.121 A 
ATOM     36  C   LIG    1      -33.997  77.375  27.599  0.00  0.00    +0.008 A 
ATOM     37  C   LIG    1      -35.211  77.800  28.159  0.00  0.00    +0.013 A 
ATOM     38  C   LIG    1      -35.531  79.155  28.180  0.00  0.00    +0.067 A 
BRANCH  33  40
ATOM     39  C   LIG    1      -36.315  81.570  28.010  0.00  0.00    +0.279 C 
ATOM     40  O   LIG    1      -34.945  81.384  27.657  0.00  0.00    -0.480 OA
ENDBRANCH  33  40
ENDBRANCH  32  36
ENDBRANCH  31  32
ENDBRANCH  23  31
ENDBRANCH  22  26
ENDBRANCH   1  22
TORSDOF 9
ENDMDL
MODEL 6
REMARK VINA RESULT:      -5.9     19.262     22.166
REMARK  Name = pdb/CHEMBL3673462.pdb
REMARK                            x       y       z     vdW  Elec       q    Type
REMARK                         _______ _______ _______ _____ _____    ______ ____
ROOT
ATOM      1  N   LIG    1      -22.277  87.709  13.017  0.00  0.00    -0.311 N 
ATOM      2  C   LIG    1      -22.389  86.397  13.389  0.00  0.00    +0.161 A 
ATOM      3  N   LIG    1      -22.481  85.324  12.596  0.00  0.00    -0.235 NA
ATOM      4  C   LIG    1      -22.601  84.169  13.312  0.00  0.00    +0.121 A 
ATOM      5  C   LIG    1      -22.638  84.047  14.710  0.00  0.00    +0.005 A 
ATOM      6  C   LIG    1      -22.535  85.220  15.467  0.00  0.00    +0.041 A 
ATOM      7  C   LIG    1      -22.400  86.433  14.784  0.00  0.00    +0.108 A 
ATOM      8  N   LIG    1      -22.273  87.717  15.245  0.00  0.00    -0.234 NA
ATOM      9  C   LIG    1      -22.200  88.462  14.157  0.00  0.00    +0.201 A 
ENDROOT
BRANCH   5  10
ATOM     10  C   LIG    1      -22.767  82.751  15.360  0.00  0.00    +0.021 A 
ATOM     11  C   LIG    1      -23.695  81.782  15.049  0.00  0.00    +0.117 A 
ATOM     12  N   LIG    1      -23.431  80.705  15.854  0.00  0.00    -0.268 N 
ATOM     13  N   LIG    1      -22.418  80.933  16.705  0.00  0.00    -0.179 NA
ATOM     14  C   LIG    1      -22.012  82.166  16.404  0.00  0.00    +0.143 A 
BRANCH  12  15
ATOM     15  C   LIG    1      -24.126  79.420  15.821  0.00  0.00    +0.110 C 
ATOM     16  C   LIG    1      -23.255  78.268  15.303  0.00  0.00    +0.042 C 
ATOM     17  C   LIG    1      -23.153  78.258  13.780  0.00  0.00    +0.083 C 
ATOM     18  N   LIG    1      -24.480  78.249  13.161  0.00  0.00    -0.316 NA
ATOM     19  H   LIG    1      -24.360  78.248  12.147  0.00  0.00    +0.122 HD
ATOM     20  C   LIG    1      -25.245  79.438  13.538  0.00  0.00    +0.083 C 
ATOM     21  C   LIG    1      -25.448  79.509  15.048  0.00  0.00    +0.042 C 
ENDBRANCH  12  15
ENDBRANCH   5  10
BRANCH   1  22
ATOM     22  C   LIG    1      -22.250  88.205  11.655  0.00  0.00    +0.160 C 
BRANCH  22  26
ATOM     23  C   LIG    1      -24.841  91.627  11.066  0.00  0.00    +0.162 A 
ATOM     24  C   LIG    1      -23.470  91.694  10.730  0.00  0.00    +0.162 A 
ATOM     25  C   LIG    1      -22.649  90.581  10.961  0.00  0.00    +0.054 A 
ATOM     26  C   LIG    1      -23.158  89.396  11.495  0.00  0.00    -0.024 A 
ATOM     27  C   LIG    1      -24.511  89.332  11.815  0.00  0.00    +0.009 A 
ATOM     28  C   LIG    1      -25.340  90.431  11.598  0.00  0.00    +0.050 A 
BRANCH  24  29
ATOM     29  O   LIG    1      -22.956  92.854  10.188  0.00  0.00    -0.491 OA
ATOM     30  C   LIG    1      -21.643  92.717   9.631  0.00  0.00    +0.277 C 
ENDBRANCH  24  29
BRANCH  23  31
ATOM     31  O   LIG    1      -25.622  92.735  10.848  0.00  0.00    -0.484 OA
BRANCH  31  32
ATOM     32  C   LIG    1      -25.520  93.841  11.763  0.00  0.00    +0.266 C 
BRANCH  32  36
ATOM     33  C   LIG    1      -28.637  93.793  14.641  0.00  0.00    +0.214 A 
ATOM     34  N   LIG    1      -28.769  93.038  13.531  0.00  0.00    -0.221 NA
ATOM     35  C   LIG    1      -27.761  93.074  12.636  0.00  0.00    +0.121 A 
ATOM     36  C   LIG    1      -26.609  93.827  12.797  0.00  0.00    +0.008 A 
ATOM     37  C   LIG    1      -26.514  94.616  13.954  0.00  0.00    +0.013 A 
ATOM     38  C   LIG    1      -27.536  94.592  14.898  0.00  0.00    +0.067 A 
BRANCH  33  40
ATOM     39  C   LIG    1      -30.921  93.661  14.989  0.00  0.00    +0.279 C 
ATOM     40  O   LIG    1      -29.633  93.753  15.595  0.00  0.00    -0.480 OA
ENDBRANCH  33  40
ENDBRANCH  32  36
ENDBRANCH  31  32
ENDBRANCH  23  31
ENDBRANCH  22  26
ENDBRANCH   1  22
TORSDOF 9
ENDMDL
MODEL 7
REMARK VINA RESULT:      -5.9     18.663     21.426
REMARK  Name = pdb/CHEMBL3673462.pdb
REMARK                            x       y       z     vdW  Elec       q    Type
REMARK                         _______ _______ _______ _____ _____    ______ ____
ROOT
ATOM      1  N   LIG    1      -22.142  88.065  13.297  0.00  0.00    -0.311 N 
ATOM      2  C   LIG    1      -22.287  86.718  13.484  0.00  0.00    +0.161 A 
ATOM      3  N   LIG    1      -22.335  85.760  12.552  0.00  0.00    -0.235 NA
ATOM      4  C   LIG    1      -22.508  84.522  13.099  0.00  0.00    +0.121 A 
ATOM      5  C   LIG    1      -22.635  84.218  14.463  0.00  0.00    +0.005 A 
ATOM      6  C   LIG    1      -22.572  85.279  15.375  0.00  0.00    +0.041 A 
ATOM      7  C   LIG    1      -22.386  86.569  14.868  0.00  0.00    +0.108 A 
ATOM      8  N   LIG    1      -22.279  87.779  15.502  0.00  0.00    -0.234 NA
ATOM      9  C   LIG    1      -22.133  88.660  14.529  0.00  0.00    +0.201 A 
ENDROOT
BRANCH   5  10
ATOM     10  C   LIG    1      -22.814  82.850  14.927  0.00  0.00    +0.021 A 
ATOM     11  C   LIG    1      -23.284  81.798  14.172  0.00  0.00    +0.117 A 
ATOM     12  N   LIG    1      -23.239  80.685  14.969  0.00  0.00    -0.268 N 
ATOM     13  N   LIG    1      -22.815  80.957  16.214  0.00  0.00    -0.179 NA
ATOM     14  C   LIG    1      -22.552  82.264  16.188  0.00  0.00    +0.143 A 
BRANCH  12  15
ATOM     15  C   LIG    1      -23.581  79.323  14.560  0.00  0.00    +0.110 C 
ATOM     16  C   LIG    1      -24.264  79.251  13.188  0.00  0.00    +0.042 C 
ATOM     17  C   LIG    1      -25.747  79.607  13.260  0.00  0.00    +0.083 C 
ATOM     18  N   LIG    1      -26.442  78.783  14.251  0.00  0.00    -0.316 NA
ATOM     19  H   LIG    1      -27.424  79.060  14.265  0.00  0.00    +0.122 HD
ATOM     20  C   LIG    1      -25.881  78.982  15.587  0.00  0.00    +0.083 C 
ATOM     21  C   LIG    1      -24.405  78.599  15.632  0.00  0.00    +0.042 C 
ENDBRANCH  12  15
ENDBRANCH   5  10
BRANCH   1  22
ATOM     22  C   LIG    1      -22.025  88.736  12.017  0.00  0.00    +0.160 C 
BRANCH  22  26
ATOM     23  C   LIG    1      -25.832  89.035   9.971  0.00  0.00    +0.162 A 
ATOM     24  C   LIG    1      -25.583  89.783  11.143  0.00  0.00    +0.162 A 
ATOM     25  C   LIG    1      -24.353  89.642  11.802  0.00  0.00    +0.054 A 
ATOM     26  C   LIG    1      -23.356  88.796  11.315  0.00  0.00    -0.024 A 
ATOM     27  C   LIG    1      -23.604  88.069  10.154  0.00  0.00    +0.009 A 
ATOM     28  C   LIG    1      -24.822  88.191   9.490  0.00  0.00    +0.050 A 
BRANCH  24  29
ATOM     29  O   LIG    1      -26.554  90.635  11.628  0.00  0.00    -0.491 OA
ATOM     30  C   LIG    1      -26.047  91.849  12.197  0.00  0.00    +0.277 C 
ENDBRANCH  24  29
BRANCH  23  31
ATOM     31  O   LIG    1      -27.050  89.175   9.353  0.00  0.00    -0.484 OA
BRANCH  31  32
ATOM     32  C   LIG    1      -27.577  88.061   8.609  0.00  0.00    +0.266 C 
BRANCH  32  36
ATOM     33  C   LIG    1      -30.339  85.816  10.917  0.00  0.00    +0.214 A 
ATOM     34  N   LIG    1      -30.298  87.154  11.079  0.00  0.00    -0.221 NA
ATOM     35  C   LIG    1      -29.410  87.840  10.330  0.00  0.00    +0.121 A 
ATOM     36  C   LIG    1      -28.557  87.252   9.410  0.00  0.00    +0.008 A 
ATOM     37  C   LIG    1      -28.612  85.856   9.282  0.00  0.00    +0.013 A 
ATOM     38  C   LIG    1      -29.525  85.124  10.038  0.00  0.00    +0.067 A 
BRANCH  33  40
ATOM     39  C   LIG    1      -32.324  84.630  10.806  0.00  0.00    +0.279 C 
ATOM     40  O   LIG    1      -31.260  85.087  11.640  0.00  0.00    -0.480 OA
ENDBRANCH  33  40
ENDBRANCH  32  36
ENDBRANCH  31  32
ENDBRANCH  23  31
ENDBRANCH  22  26
ENDBRANCH   1  22
TORSDOF 9
ENDMDL
MODEL 8
REMARK VINA RESULT:      -5.9      5.248     10.781
REMARK  Name = pdb/CHEMBL3673462.pdb
REMARK                            x       y       z     vdW  Elec       q    Type
REMARK                         _______ _______ _______ _____ _____    ______ ____
ROOT
ATOM      1  N   LIG    1      -21.034  80.105  35.690  0.00  0.00    -0.311 N 
ATOM      2  C   LIG    1      -22.323  79.725  35.943  0.00  0.00    +0.161 A 
ATOM      3  N   LIG    1      -22.784  78.492  36.182  0.00  0.00    -0.235 NA
ATOM      4  C   LIG    1      -24.135  78.480  36.374  0.00  0.00    +0.121 A 
ATOM      5  C   LIG    1      -24.999  79.585  36.332  0.00  0.00    +0.005 A 
ATOM      6  C   LIG    1      -24.436  80.841  36.078  0.00  0.00    +0.041 A 
ATOM      7  C   LIG    1      -23.052  80.913  35.883  0.00  0.00    +0.108 A 
ATOM      8  N   LIG    1      -22.233  81.981  35.628  0.00  0.00    -0.234 NA
ATOM      9  C   LIG    1      -21.024  81.463  35.518  0.00  0.00    +0.201 A 
ENDROOT
BRANCH   5  10
ATOM     10  C   LIG    1      -26.430  79.444  36.557  0.00  0.00    +0.021 A 
ATOM     11  C   LIG    1      -27.236  78.460  36.028  0.00  0.00    +0.117 A 
ATOM     12  N   LIG    1      -28.493  78.659  36.536  0.00  0.00    -0.268 N 
ATOM     13  N   LIG    1      -28.565  79.744  37.324  0.00  0.00    -0.179 NA
ATOM     14  C   LIG    1      -27.319  80.216  37.343  0.00  0.00    +0.143 A 
BRANCH  12  15
ATOM     15  C   LIG    1      -29.658  77.808  36.299  0.00  0.00    +0.110 C 
ATOM     16  C   LIG    1      -29.557  76.978  35.013  0.00  0.00    +0.042 C 
ATOM     17  C   LIG    1      -29.894  77.795  33.768  0.00  0.00    +0.083 C 
ATOM     18  N   LIG    1      -31.205  78.434  33.894  0.00  0.00    -0.316 NA
ATOM     19  H   LIG    1      -31.383  78.970  33.043  0.00  0.00    +0.122 HD
ATOM     20  C   LIG    1      -31.238  79.348  35.036  0.00  0.00    +0.083 C 
ATOM     21  C   LIG    1      -30.964  78.610  36.343  0.00  0.00    +0.042 C 
ENDBRANCH  12  15
ENDBRANCH   5  10
BRANCH   1  22
ATOM     22  C   LIG    1      -19.888  79.220  35.614  0.00  0.00    +0.160 C 
BRANCH  22  26
ATOM     23  C   LIG    1      -19.964  77.035  31.874  0.00  0.00    +0.162 A 
ATOM     24  C   LIG    1      -20.233  76.380  33.097  0.00  0.00    +0.162 A 
ATOM     25  C   LIG    1      -20.171  77.107  34.295  0.00  0.00    +0.054 A 
ATOM     26  C   LIG    1      -19.870  78.469  34.308  0.00  0.00    -0.024 A 
ATOM     27  C   LIG    1      -19.615  79.111  33.100  0.00  0.00    +0.009 A 
ATOM     28  C   LIG    1      -19.666  78.403  31.901  0.00  0.00    +0.050 A 
BRANCH  24  29
ATOM     29  O   LIG    1      -20.546  75.037  33.098  0.00  0.00    -0.491 OA
ATOM     30  C   LIG    1      -20.959  74.524  34.371  0.00  0.00    +0.277 C 
ENDBRANCH  24  29
BRANCH  23  31
ATOM     31  O   LIG    1      -20.012  76.300  30.715  0.00  0.00    -0.484 OA
BRANCH  31  32
ATOM     32  C   LIG    1      -20.864  76.753  29.647  0.00  0.00    +0.266 C 
BRANCH  32  36
ATOM     33  C   LIG    1      -24.976  76.595  30.680  0.00  0.00    +0.214 A 
ATOM     34  N   LIG    1      -24.473  77.751  30.198  0.00  0.00    -0.221 NA
ATOM     35  C   LIG    1      -23.163  77.769  29.878  0.00  0.00    +0.121 A 
ATOM     36  C   LIG    1      -22.320  76.677  30.008  0.00  0.00    +0.008 A 
ATOM     37  C   LIG    1      -22.871  75.497  30.531  0.00  0.00    +0.013 A 
ATOM     38  C   LIG    1      -24.223  75.448  30.862  0.00  0.00    +0.067 A 
BRANCH  33  40
ATOM     39  C   LIG    1      -26.530  76.572  32.395  0.00  0.00    +0.279 C 
ATOM     40  O   LIG    1      -26.320  76.530  30.984  0.00  0.00    -0.480 OA
ENDBRANCH  33  40
ENDBRANCH  32  36
ENDBRANCH  31  32
ENDBRANCH  23  31
ENDBRANCH  22  26
ENDBRANCH   1  22
TORSDOF 9
ENDMDL
MODEL 9
REMARK VINA RESULT:      -5.8      7.429     12.017
REMARK  Name = pdb/CHEMBL3673462.pdb
REMARK                            x       y       z     vdW  Elec       q    Type
REMARK                         _______ _______ _______ _____ _____    ______ ____
ROOT
ATOM      1  N   LIG    1      -26.730  82.349  37.332  0.00  0.00    -0.311 N 
ATOM      2  C   LIG    1      -27.773  82.988  36.719  0.00  0.00    +0.161 A 
ATOM      3  N   LIG    1      -29.020  82.539  36.539  0.00  0.00    -0.235 NA
ATOM      4  C   LIG    1      -29.795  83.438  35.866  0.00  0.00    +0.121 A 
ATOM      5  C   LIG    1      -29.396  84.695  35.384  0.00  0.00    +0.005 A 
ATOM      6  C   LIG    1      -28.073  85.090  35.615  0.00  0.00    +0.041 A 
ATOM      7  C   LIG    1      -27.237  84.210  36.310  0.00  0.00    +0.108 A 
ATOM      8  N   LIG    1      -25.924  84.321  36.683  0.00  0.00    -0.234 NA
ATOM      9  C   LIG    1      -25.648  83.185  37.297  0.00  0.00    +0.201 A 
ENDROOT
BRANCH   5  10
ATOM     10  C   LIG    1      -30.321  85.570  34.679  0.00  0.00    +0.021 A 
ATOM     11  C   LIG    1      -30.582  85.545  33.326  0.00  0.00    +0.117 A 
ATOM     12  N   LIG    1      -31.548  86.487  33.090  0.00  0.00    -0.268 N 
ATOM     13  N   LIG    1      -31.897  87.158  34.199  0.00  0.00    -0.179 NA
ATOM     14  C   LIG    1      -31.161  86.602  35.161  0.00  0.00    +0.143 A 
BRANCH  12  15
ATOM     15  C   LIG    1      -32.182  86.760  31.801  0.00  0.00    +0.110 C 
ATOM     16  C   LIG    1      -31.333  86.328  30.599  0.00  0.00    +0.042 C 
ATOM     17  C   LIG    1      -30.232  87.335  30.276  0.00  0.00    +0.083 C 
ATOM     18  N   LIG    1      -30.782  88.679  30.091  0.00  0.00    -0.316 NA
ATOM     19  H   LIG    1      -30.011  89.315  29.883  0.00  0.00    +0.122 HD
ATOM     20  C   LIG    1      -31.455  89.144  31.304  0.00  0.00    +0.083 C 
ATOM     21  C   LIG    1      -32.614  88.226  31.681  0.00  0.00    +0.042 C 
ENDBRANCH  12  15
ENDBRANCH   5  10
BRANCH   1  22
ATOM     22  C   LIG    1      -26.772  81.019  37.908  0.00  0.00    +0.160 C 
BRANCH  22  26
ATOM     23  C   LIG    1      -25.986  77.946  34.957  0.00  0.00    +0.162 A 
ATOM     24  C   LIG    1      -25.035  78.960  35.214  0.00  0.00    +0.162 A 
ATOM     25  C   LIG    1      -25.331  79.960  36.152  0.00  0.00    +0.054 A 
ATOM     26  C   LIG    1      -26.534  79.966  36.858  0.00  0.00    -0.024 A 
ATOM     27  C   LIG    1      -27.463  78.960  36.609  0.00  0.00    +0.009 A 
ATOM     28  C   LIG    1      -27.189  77.963  35.675  0.00  0.00    +0.050 A 
BRANCH  24  29
ATOM     29  O   LIG    1      -23.835  78.958  34.534  0.00  0.00    -0.491 OA
ATOM     30  C   LIG    1      -22.679  78.823  35.370  0.00  0.00    +0.277 C 
ENDBRANCH  24  29
BRANCH  23  31
ATOM     31  O   LIG    1      -25.684  76.989  34.021  0.00  0.00    -0.484 OA
BRANCH  31  32
ATOM     32  C   LIG    1      -26.122  77.188  32.665  0.00  0.00    +0.266 C 
BRANCH  32  36
ATOM     33  C   LIG    1      -23.000  76.730  29.829  0.00  0.00    +0.214 A 
ATOM     34  N   LIG    1      -23.718  77.872  29.822  0.00  0.00    -0.221 NA
ATOM     35  C   LIG    1      -24.703  77.988  30.736  0.00  0.00    +0.121 A 
ATOM     36  C   LIG    1      -25.006  77.014  31.675  0.00  0.00    +0.008 A 
ATOM     37  C   LIG    1      -24.252  75.831  31.640  0.00  0.00    +0.013 A 
ATOM     38  C   LIG    1      -23.224  75.688  30.711  0.00  0.00    +0.067 A 
BRANCH  33  40
ATOM     39  C   LIG    1      -20.699  76.770  29.574  0.00  0.00    +0.279 C 
ATOM     40  O   LIG    1      -21.961  76.593  28.931  0.00  0.00    -0.480 OA
ENDBRANCH  33  40
ENDBRANCH  32  36
ENDBRANCH  31  32
ENDBRANCH  23  31
ENDBRANCH  22  26
ENDBRANCH   1  22
TORSDOF 9
ENDMDL
