MODEL 1
REMARK VINA RESULT:      -6.1      0.000      0.000
REMARK  Name = pdb/CHEMBL3889648.pdb
REMARK                            x       y       z     vdW  Elec       q    Type
REMARK                         _______ _______ _______ _____ _____    ______ ____
ROOT
ATOM      1  C   LIG    1      -33.196  78.594  27.382  0.00  0.00    +0.178 A 
ATOM      2  N   LIG    1      -33.886  77.381  27.455  0.00  0.00    -0.193 N 
ATOM      3  N   LIG    1      -35.158  77.134  26.993  0.00  0.00    -0.148 NA
ATOM      4  C   LIG    1      -35.614  75.925  27.210  0.00  0.00    +0.143 A 
ATOM      5  C   LIG    1      -34.777  74.880  27.899  0.00  0.00    +0.049 A 
ATOM      6  C   LIG    1      -33.540  75.183  28.302  0.00  0.00    +0.051 A 
ATOM      7  C   LIG    1      -33.048  76.480  28.085  0.00  0.00    +0.157 A 
ATOM      8  N   LIG    1      -31.887  77.007  28.400  0.00  0.00    -0.232 NA
ATOM      9  C   LIG    1      -31.983  78.309  27.996  0.00  0.00    +0.161 A 
ENDROOT
BRANCH   4  10
ATOM     10  N   LIG    1      -36.898  75.593  26.781  0.00  0.00    -0.307 N 
ATOM     11  C   LIG    1      -37.499  76.126  25.544  0.00  0.00    +0.108 C 
ATOM     12  C   LIG    1      -38.326  74.963  24.961  0.00  0.00    +0.029 C 
ATOM     13  C   LIG    1      -37.889  73.740  25.751  0.00  0.00    +0.021 C 
ATOM     14  C   LIG    1      -37.524  74.311  27.108  0.00  0.00    +0.107 C 
BRANCH  11  15
ATOM     15  C   LIG    1      -38.360  77.345  25.808  0.00  0.00    +0.011 A 
ATOM     16  C   LIG    1      -38.892  78.059  24.728  0.00  0.00    +0.129 A 
ATOM     17  F   LIG    1      -38.609  77.675  23.476  0.00  0.00    -0.205 F 
ATOM     18  C   LIG    1      -39.710  79.172  24.916  0.00  0.00    +0.041 A 
ATOM     19  C   LIG    1      -40.025  79.587  26.210  0.00  0.00    +0.041 A 
ATOM     20  C   LIG    1      -39.511  78.882  27.292  0.00  0.00    +0.124 A 
ATOM     21  F   LIG    1      -39.817  79.272  28.536  0.00  0.00    -0.205 F 
ATOM     22  C   LIG    1      -38.686  77.776  27.105  0.00  0.00    +0.046 A 
ENDBRANCH  11  15
ENDBRANCH   4  10
BRANCH   1  25
ATOM     23  C   LIG    1      -34.580  80.535  29.125  0.00  0.00    +0.109 C 
ATOM     24  C   LIG    1      -34.387  80.563  27.635  0.00  0.00    +0.186 C 
ATOM     25  N   LIG    1      -33.776  79.719  26.875  0.00  0.00    -0.196 NA
BRANCH  24  26
ATOM     26  O   LIG    1      -34.981  81.619  27.038  0.00  0.00    -0.496 OA
ATOM     27  H   LIG    1      -35.827  81.867  27.441  0.00  0.00    +0.293 HD
ENDBRANCH  24  26
ENDBRANCH   1  25
TORSDOF 4
ENDMDL
MODEL 2
REMARK VINA RESULT:      -6.0      2.594      4.548
REMARK  Name = pdb/CHEMBL3889648.pdb
REMARK                            x       y       z     vdW  Elec       q    Type
REMARK                         _______ _______ _______ _____ _____    ______ ____
ROOT
ATOM      1  C   LIG    1      -34.613  77.189  27.867  0.00  0.00    +0.178 A 
ATOM      2  N   LIG    1      -35.945  76.891  27.568  0.00  0.00    -0.193 N 
ATOM      3  N   LIG    1      -36.482  76.715  26.313  0.00  0.00    -0.148 NA
ATOM      4  C   LIG    1      -37.771  76.480  26.278  0.00  0.00    +0.143 A 
ATOM      5  C   LIG    1      -38.590  76.390  27.538  0.00  0.00    +0.049 A 
ATOM      6  C   LIG    1      -37.998  76.550  28.724  0.00  0.00    +0.051 A 
ATOM      7  C   LIG    1      -36.619  76.814  28.772  0.00  0.00    +0.157 A 
ATOM      8  N   LIG    1      -35.832  77.017  29.804  0.00  0.00    -0.232 NA
ATOM      9  C   LIG    1      -34.609  77.275  29.253  0.00  0.00    +0.161 A 
ENDROOT
BRANCH   4  10
ATOM     10  N   LIG    1      -38.397  76.298  25.045  0.00  0.00    -0.307 N 
ATOM     11  C   LIG    1      -39.711  75.646  24.897  0.00  0.00    +0.108 C 
ATOM     12  C   LIG    1      -40.421  76.415  23.766  0.00  0.00    +0.029 C 
ATOM     13  C   LIG    1      -39.577  77.662  23.554  0.00  0.00    +0.021 C 
ATOM     14  C   LIG    1      -38.178  77.204  23.917  0.00  0.00    +0.107 C 
BRANCH  11  15
ATOM     15  C   LIG    1      -39.581  74.171  24.571  0.00  0.00    +0.011 A 
ATOM     16  C   LIG    1      -40.650  73.504  23.960  0.00  0.00    +0.129 A 
ATOM     17  F   LIG    1      -41.784  74.168  23.700  0.00  0.00    -0.205 F 
ATOM     18  C   LIG    1      -40.572  72.155  23.617  0.00  0.00    +0.041 A 
ATOM     19  C   LIG    1      -39.399  71.444  23.870  0.00  0.00    +0.041 A 
ATOM     20  C   LIG    1      -38.327  72.096  24.468  0.00  0.00    +0.124 A 
ATOM     21  F   LIG    1      -37.196  71.419  24.707  0.00  0.00    -0.205 F 
ATOM     22  C   LIG    1      -38.407  73.440  24.820  0.00  0.00    +0.046 A 
ENDBRANCH  11  15
ENDBRANCH   4  10
BRANCH   1  25
ATOM     23  C   LIG    1      -33.447  79.863  27.409  0.00  0.00    +0.109 C 
ATOM     24  C   LIG    1      -33.186  78.574  26.682  0.00  0.00    +0.186 C 
ATOM     25  N   LIG    1      -33.690  77.405  26.888  0.00  0.00    -0.196 NA
BRANCH  24  26
ATOM     26  O   LIG    1      -32.320  78.706  25.653  0.00  0.00    -0.496 OA
ATOM     27  H   LIG    1      -32.145  77.876  25.186  0.00  0.00    +0.293 HD
ENDBRANCH  24  26
ENDBRANCH   1  25
TORSDOF 4
ENDMDL
MODEL 3
REMARK VINA RESULT:      -6.0     11.778     13.360
REMARK  Name = pdb/CHEMBL3889648.pdb
REMARK                            x       y       z     vdW  Elec       q    Type
REMARK                         _______ _______ _______ _____ _____    ______ ____
ROOT
ATOM      1  C   LIG    1      -30.174  70.019  18.412  0.00  0.00    +0.178 A 
ATOM      2  N   LIG    1      -30.299  68.640  18.604  0.00  0.00    -0.193 N 
ATOM      3  N   LIG    1      -31.469  67.916  18.600  0.00  0.00    -0.148 NA
ATOM      4  C   LIG    1      -31.341  66.635  18.843  0.00  0.00    +0.143 A 
ATOM      5  C   LIG    1      -29.993  66.009  19.087  0.00  0.00    +0.049 A 
ATOM      6  C   LIG    1      -28.896  66.771  19.055  0.00  0.00    +0.051 A 
ATOM      7  C   LIG    1      -29.024  68.147  18.807  0.00  0.00    +0.157 A 
ATOM      8  N   LIG    1      -28.105  69.083  18.741  0.00  0.00    -0.232 NA
ATOM      9  C   LIG    1      -28.808  70.235  18.527  0.00  0.00    +0.161 A 
ENDROOT
BRANCH   4  10
ATOM     10  N   LIG    1      -32.479  65.828  18.865  0.00  0.00    -0.307 N 
ATOM     11  C   LIG    1      -33.827  66.326  18.534  0.00  0.00    +0.108 C 
ATOM     12  C   LIG    1      -34.514  65.168  17.784  0.00  0.00    +0.029 C 
ATOM     13  C   LIG    1      -33.393  64.191  17.465  0.00  0.00    +0.021 C 
ATOM     14  C   LIG    1      -32.420  64.388  18.612  0.00  0.00    +0.107 C 
BRANCH  11  15
ATOM     15  C   LIG    1      -34.605  66.728  19.771  0.00  0.00    +0.011 A 
ATOM     16  C   LIG    1      -35.903  67.235  19.633  0.00  0.00    +0.129 A 
ATOM     17  F   LIG    1      -36.429  67.386  18.410  0.00  0.00    -0.205 F 
ATOM     18  C   LIG    1      -36.671  67.596  20.739  0.00  0.00    +0.041 A 
ATOM     19  C   LIG    1      -36.148  67.439  22.023  0.00  0.00    +0.041 A 
ATOM     20  C   LIG    1      -34.864  66.930  22.175  0.00  0.00    +0.124 A 
ATOM     21  F   LIG    1      -34.362  66.771  23.407  0.00  0.00    -0.205 F 
ATOM     22  C   LIG    1      -34.093  66.578  21.071  0.00  0.00    +0.046 A 
ENDBRANCH  11  15
ENDBRANCH   4  10
BRANCH   1  25
ATOM     23  C   LIG    1      -31.117  70.830  15.734  0.00  0.00    +0.109 C 
ATOM     24  C   LIG    1      -31.673  71.183  17.085  0.00  0.00    +0.186 C 
ATOM     25  N   LIG    1      -31.265  70.822  18.255  0.00  0.00    -0.196 NA
BRANCH  24  26
ATOM     26  O   LIG    1      -32.727  72.025  17.027  0.00  0.00    -0.496 OA
ATOM     27  H   LIG    1      -33.363  71.803  16.331  0.00  0.00    +0.293 HD
ENDBRANCH  24  26
ENDBRANCH   1  25
TORSDOF 4
ENDMDL
MODEL 4
REMARK VINA RESULT:      -5.8     12.505     14.963
REMARK  Name = pdb/CHEMBL3889648.pdb
REMARK                            x       y       z     vdW  Elec       q    Type
REMARK                         _______ _______ _______ _____ _____    ______ ____
ROOT
ATOM      1  C   LIG    1      -23.651  79.811  35.035  0.00  0.00    +0.178 A 
ATOM      2  N   LIG    1      -22.604  79.277  34.278  0.00  0.00    -0.193 N 
ATOM      3  N   LIG    1      -22.718  78.380  33.242  0.00  0.00    -0.148 NA
ATOM      4  C   LIG    1      -21.588  77.989  32.706  0.00  0.00    +0.143 A 
ATOM      5  C   LIG    1      -20.263  78.516  33.189  0.00  0.00    +0.049 A 
ATOM      6  C   LIG    1      -20.229  79.403  34.187  0.00  0.00    +0.051 A 
ATOM      7  C   LIG    1      -21.434  79.819  34.776  0.00  0.00    +0.157 A 
ATOM      8  N   LIG    1      -21.647  80.658  35.763  0.00  0.00    -0.232 NA
ATOM      9  C   LIG    1      -23.001  80.635  35.943  0.00  0.00    +0.161 A 
ENDROOT
BRANCH   4  10
ATOM     10  N   LIG    1      -21.613  77.073  31.655  0.00  0.00    -0.307 N 
ATOM     11  C   LIG    1      -22.691  77.027  30.650  0.00  0.00    +0.108 C 
ATOM     12  C   LIG    1      -21.993  76.680  29.321  0.00  0.00    +0.029 C 
ATOM     13  C   LIG    1      -20.509  76.856  29.602  0.00  0.00    +0.021 C 
ATOM     14  C   LIG    1      -20.390  76.516  31.076  0.00  0.00    +0.107 C 
BRANCH  11  15
ATOM     15  C   LIG    1      -23.755  76.007  31.004  0.00  0.00    +0.011 A 
ATOM     16  C   LIG    1      -25.022  76.446  31.409  0.00  0.00    +0.129 A 
ATOM     17  F   LIG    1      -25.267  77.760  31.509  0.00  0.00    -0.205 F 
ATOM     18  C   LIG    1      -26.043  75.551  31.722  0.00  0.00    +0.041 A 
ATOM     19  C   LIG    1      -25.814  74.179  31.618  0.00  0.00    +0.041 A 
ATOM     20  C   LIG    1      -24.565  73.729  31.209  0.00  0.00    +0.124 A 
ATOM     21  F   LIG    1      -24.343  72.412  31.100  0.00  0.00    -0.205 F 
ATOM     22  C   LIG    1      -23.541  74.622  30.905  0.00  0.00    +0.046 A 
ENDBRANCH  11  15
ENDBRANCH   4  10
BRANCH   1  25
ATOM     23  C   LIG    1      -24.801  77.513  36.490  0.00  0.00    +0.109 C 
ATOM     24  C   LIG    1      -25.444  78.414  35.473  0.00  0.00    +0.186 C 
ATOM     25  N   LIG    1      -24.944  79.422  34.843  0.00  0.00    -0.196 NA
BRANCH  24  26
ATOM     26  O   LIG    1      -26.716  78.066  35.178  0.00  0.00    -0.496 OA
ATOM     27  H   LIG    1      -27.214  77.734  35.939  0.00  0.00    +0.293 HD
ENDBRANCH  24  26
ENDBRANCH   1  25
TORSDOF 4
ENDMDL
MODEL 5
REMARK VINA RESULT:      -5.8      2.079      3.359
REMARK  Name = pdb/CHEMBL3889648.pdb
REMARK                            x       y       z     vdW  Elec       q    Type
REMARK                         _______ _______ _______ _____ _____    ______ ____
ROOT
ATOM      1  C   LIG    1      -34.610  80.053  28.024  0.00  0.00    +0.178 A 
ATOM      2  N   LIG    1      -35.817  79.368  28.190  0.00  0.00    -0.193 N 
ATOM      3  N   LIG    1      -36.349  78.430  27.335  0.00  0.00    -0.148 NA
ATOM      4  C   LIG    1      -37.518  77.950  27.680  0.00  0.00    +0.143 A 
ATOM      5  C   LIG    1      -38.209  78.390  28.944  0.00  0.00    +0.049 A 
ATOM      6  C   LIG    1      -37.623  79.290  29.738  0.00  0.00    +0.051 A 
ATOM      7  C   LIG    1      -36.376  79.819  29.371  0.00  0.00    +0.157 A 
ATOM      8  N   LIG    1      -35.624  80.711  29.975  0.00  0.00    -0.232 NA
ATOM      9  C   LIG    1      -34.556  80.878  29.140  0.00  0.00    +0.161 A 
ENDROOT
BRANCH   4  10
ATOM     10  N   LIG    1      -38.133  77.000  26.865  0.00  0.00    -0.307 N 
ATOM     11  C   LIG    1      -38.178  77.106  25.395  0.00  0.00    +0.108 C 
ATOM     12  C   LIG    1      -38.024  75.662  24.878  0.00  0.00    +0.029 C 
ATOM     13  C   LIG    1      -37.588  74.858  26.093  0.00  0.00    +0.021 C 
ATOM     14  C   LIG    1      -38.239  75.592  27.251  0.00  0.00    +0.107 C 
BRANCH  11  15
ATOM     15  C   LIG    1      -39.468  77.737  24.910  0.00  0.00    +0.011 A 
ATOM     16  C   LIG    1      -39.682  79.107  25.110  0.00  0.00    +0.129 A 
ATOM     17  F   LIG    1      -38.759  79.835  25.753  0.00  0.00    -0.205 F 
ATOM     18  C   LIG    1      -40.839  79.741  24.661  0.00  0.00    +0.041 A 
ATOM     19  C   LIG    1      -41.810  79.007  23.982  0.00  0.00    +0.041 A 
ATOM     20  C   LIG    1      -41.607  77.648  23.769  0.00  0.00    +0.124 A 
ATOM     21  F   LIG    1      -42.534  76.941  23.110  0.00  0.00    -0.205 F 
ATOM     22  C   LIG    1      -40.457  77.012  24.224  0.00  0.00    +0.046 A 
ENDBRANCH  11  15
ENDBRANCH   4  10
BRANCH   1  25
ATOM     23  C   LIG    1      -32.472  78.019  27.916  0.00  0.00    +0.109 C 
ATOM     24  C   LIG    1      -32.901  79.006  26.867  0.00  0.00    +0.186 C 
ATOM     25  N   LIG    1      -33.840  79.889  26.911  0.00  0.00    -0.196 NA
BRANCH  24  26
ATOM     26  O   LIG    1      -32.151  78.952  25.744  0.00  0.00    -0.496 OA
ATOM     27  H   LIG    1      -32.220  78.109  25.271  0.00  0.00    +0.293 HD
ENDBRANCH  24  26
ENDBRANCH   1  25
TORSDOF 4
ENDMDL
MODEL 6
REMARK VINA RESULT:      -5.8     14.939     16.882
REMARK  Name = pdb/CHEMBL3889648.pdb
REMARK                            x       y       z     vdW  Elec       q    Type
REMARK                         _______ _______ _______ _____ _____    ______ ____
ROOT
ATOM      1  C   LIG    1      -31.879  93.690  22.900  0.00  0.00    +0.178 A 
ATOM      2  N   LIG    1      -32.217  93.358  21.585  0.00  0.00    -0.193 N 
ATOM      3  N   LIG    1      -33.280  92.582  21.183  0.00  0.00    -0.148 NA
ATOM      4  C   LIG    1      -33.372  92.374  19.893  0.00  0.00    +0.143 A 
ATOM      5  C   LIG    1      -32.385  92.972  18.926  0.00  0.00    +0.049 A 
ATOM      6  C   LIG    1      -31.389  93.734  19.385  0.00  0.00    +0.051 A 
ATOM      7  C   LIG    1      -31.274  93.953  20.767  0.00  0.00    +0.157 A 
ATOM      8  N   LIG    1      -30.385  94.644  21.443  0.00  0.00    -0.232 NA
ATOM      9  C   LIG    1      -30.736  94.463  22.751  0.00  0.00    +0.161 A 
ENDROOT
BRANCH   4  10
ATOM     10  N   LIG    1      -34.416  91.591  19.402  0.00  0.00    -0.307 N 
ATOM     11  C   LIG    1      -34.232  90.206  18.929  0.00  0.00    +0.108 C 
ATOM     12  C   LIG    1      -35.502  89.454  19.371  0.00  0.00    +0.029 C 
ATOM     13  C   LIG    1      -36.193  90.395  20.345  0.00  0.00    +0.021 C 
ATOM     14  C   LIG    1      -35.801  91.771  19.841  0.00  0.00    +0.107 C 
BRANCH  11  15
ATOM     15  C   LIG    1      -34.039  90.139  17.427  0.00  0.00    +0.011 A 
ATOM     16  C   LIG    1      -33.438  89.009  16.860  0.00  0.00    +0.129 A 
ATOM     17  F   LIG    1      -33.014  88.015  17.653  0.00  0.00    -0.205 F 
ATOM     18  C   LIG    1      -33.260  88.886  15.483  0.00  0.00    +0.041 A 
ATOM     19  C   LIG    1      -33.700  89.903  14.636  0.00  0.00    +0.041 A 
ATOM     20  C   LIG    1      -34.306  91.027  15.184  0.00  0.00    +0.124 A 
ATOM     21  F   LIG    1      -34.737  92.003  14.374  0.00  0.00    -0.205 F 
ATOM     22  C   LIG    1      -34.476  91.155  16.560  0.00  0.00    +0.046 A 
ENDBRANCH  11  15
ENDBRANCH   4  10
BRANCH   1  25
ATOM     23  C   LIG    1      -34.099  95.205  24.124  0.00  0.00    +0.109 C 
ATOM     24  C   LIG    1      -33.540  93.862  24.504  0.00  0.00    +0.186 C 
ATOM     25  N   LIG    1      -32.575  93.197  23.964  0.00  0.00    -0.196 NA
BRANCH  24  26
ATOM     26  O   LIG    1      -34.136  93.322  25.589  0.00  0.00    -0.496 OA
ATOM     27  H   LIG    1      -33.906  92.393  25.735  0.00  0.00    +0.293 HD
ENDBRANCH  24  26
ENDBRANCH   1  25
TORSDOF 4
ENDMDL
MODEL 7
REMARK VINA RESULT:      -5.8      2.183      3.768
REMARK  Name = pdb/CHEMBL3889648.pdb
REMARK                            x       y       z     vdW  Elec       q    Type
REMARK                         _______ _______ _______ _____ _____    ______ ____
ROOT
ATOM      1  C   LIG    1      -33.445  78.953  27.313  0.00  0.00    +0.178 A 
ATOM      2  N   LIG    1      -34.196  77.783  27.457  0.00  0.00    -0.193 N 
ATOM      3  N   LIG    1      -35.557  77.660  27.295  0.00  0.00    -0.148 NA
ATOM      4  C   LIG    1      -36.046  76.466  27.522  0.00  0.00    +0.143 A 
ATOM      5  C   LIG    1      -35.161  75.311  27.910  0.00  0.00    +0.049 A 
ATOM      6  C   LIG    1      -33.844  75.500  28.028  0.00  0.00    +0.051 A 
ATOM      7  C   LIG    1      -33.311  76.778  27.799  0.00  0.00    +0.157 A 
ATOM      8  N   LIG    1      -32.069  77.201  27.865  0.00  0.00    -0.232 NA
ATOM      9  C   LIG    1      -32.150  78.538  27.596  0.00  0.00    +0.161 A 
ENDROOT
BRANCH   4  10
ATOM     10  N   LIG    1      -37.419  76.255  27.389  0.00  0.00    -0.307 N 
ATOM     11  C   LIG    1      -38.081  74.992  27.764  0.00  0.00    +0.108 C 
ATOM     12  C   LIG    1      -39.440  75.408  28.360  0.00  0.00    +0.029 C 
ATOM     13  C   LIG    1      -39.330  76.910  28.569  0.00  0.00    +0.021 C 
ATOM     14  C   LIG    1      -38.387  77.349  27.465  0.00  0.00    +0.107 C 
BRANCH  11  15
ATOM     15  C   LIG    1      -38.253  74.065  26.577  0.00  0.00    +0.011 A 
ATOM     16  C   LIG    1      -37.545  72.858  26.539  0.00  0.00    +0.129 A 
ATOM     17  F   LIG    1      -36.703  72.551  27.536  0.00  0.00    -0.205 F 
ATOM     18  C   LIG    1      -37.685  71.958  25.483  0.00  0.00    +0.041 A 
ATOM     19  C   LIG    1      -38.562  72.252  24.439  0.00  0.00    +0.041 A 
ATOM     20  C   LIG    1      -39.277  73.443  24.468  0.00  0.00    +0.124 A 
ATOM     21  F   LIG    1      -40.126  73.724  23.470  0.00  0.00    -0.205 F 
ATOM     22  C   LIG    1      -39.131  74.346  25.517  0.00  0.00    +0.046 A 
ENDBRANCH  11  15
ENDBRANCH   4  10
BRANCH   1  25
ATOM     23  C   LIG    1      -34.500  80.668  29.474  0.00  0.00    +0.109 C 
ATOM     24  C   LIG    1      -34.501  80.900  27.989  0.00  0.00    +0.186 C 
ATOM     25  N   LIG    1      -34.033  80.154  27.046  0.00  0.00    -0.196 NA
BRANCH  24  26
ATOM     26  O   LIG    1      -35.118  82.046  27.627  0.00  0.00    -0.496 OA
ATOM     27  H   LIG    1      -35.892  82.258  28.169  0.00  0.00    +0.293 HD
ENDBRANCH  24  26
ENDBRANCH   1  25
TORSDOF 4
ENDMDL
MODEL 8
REMARK VINA RESULT:      -5.6     14.284     17.948
REMARK  Name = pdb/CHEMBL3889648.pdb
REMARK                            x       y       z     vdW  Elec       q    Type
REMARK                         _______ _______ _______ _____ _____    ______ ____
ROOT
ATOM      1  C   LIG    1      -23.171  76.102  31.843  0.00  0.00    +0.178 A 
ATOM      2  N   LIG    1      -22.066  76.194  32.694  0.00  0.00    -0.193 N 
ATOM      3  N   LIG    1      -21.217  77.270  32.819  0.00  0.00    -0.148 NA
ATOM      4  C   LIG    1      -20.222  77.110  33.657  0.00  0.00    +0.143 A 
ATOM      5  C   LIG    1      -20.047  75.835  34.439  0.00  0.00    +0.049 A 
ATOM      6  C   LIG    1      -20.924  74.839  34.283  0.00  0.00    +0.051 A 
ATOM      7  C   LIG    1      -21.987  74.996  33.379  0.00  0.00    +0.157 A 
ATOM      8  N   LIG    1      -22.950  74.165  33.053  0.00  0.00    -0.232 NA
ATOM      9  C   LIG    1      -23.660  74.827  32.092  0.00  0.00    +0.161 A 
ENDROOT
BRANCH   4  10
ATOM     10  N   LIG    1      -19.309  78.148  33.837  0.00  0.00    -0.307 N 
ATOM     11  C   LIG    1      -18.775  78.533  35.157  0.00  0.00    +0.108 C 
ATOM     12  C   LIG    1      -17.305  78.920  34.904  0.00  0.00    +0.029 C 
ATOM     13  C   LIG    1      -17.011  78.430  33.495  0.00  0.00    +0.021 C 
ATOM     14  C   LIG    1      -18.354  78.538  32.799  0.00  0.00    +0.107 C 
BRANCH  11  15
ATOM     15  C   LIG    1      -19.555  79.677  35.774  0.00  0.00    +0.011 A 
ATOM     16  C   LIG    1      -19.193  80.153  37.040  0.00  0.00    +0.129 A 
ATOM     17  F   LIG    1      -18.184  79.571  37.703  0.00  0.00    -0.205 F 
ATOM     18  C   LIG    1      -19.860  81.219  37.642  0.00  0.00    +0.041 A 
ATOM     19  C   LIG    1      -20.908  81.845  36.968  0.00  0.00    +0.041 A 
ATOM     20  C   LIG    1      -21.273  81.390  35.707  0.00  0.00    +0.124 A 
ATOM     21  F   LIG    1      -22.274  81.994  35.053  0.00  0.00    -0.205 F 
ATOM     22  C   LIG    1      -20.613  80.319  35.109  0.00  0.00    +0.046 A 
ENDBRANCH  11  15
ENDBRANCH   4  10
BRANCH   1  25
ATOM     23  C   LIG    1      -21.781  76.381  29.252  0.00  0.00    +0.109 C 
ATOM     24  C   LIG    1      -22.875  77.227  29.841  0.00  0.00    +0.186 C 
ATOM     25  N   LIG    1      -23.487  77.100  30.970  0.00  0.00    -0.196 NA
BRANCH  24  26
ATOM     26  O   LIG    1      -23.215  78.278  29.064  0.00  0.00    -0.496 OA
ATOM     27  H   LIG    1      -22.464  78.839  28.819  0.00  0.00    +0.293 HD
ENDBRANCH  24  26
ENDBRANCH   1  25
TORSDOF 4
ENDMDL
MODEL 9
REMARK VINA RESULT:      -5.6     13.373     16.006
REMARK  Name = pdb/CHEMBL3889648.pdb
REMARK                            x       y       z     vdW  Elec       q    Type
REMARK                         _______ _______ _______ _____ _____    ______ ____
ROOT
ATOM      1  C   LIG    1      -21.620  77.376  30.142  0.00  0.00    +0.178 A 
ATOM      2  N   LIG    1      -21.009  77.703  31.356  0.00  0.00    -0.193 N 
ATOM      3  N   LIG    1      -21.605  78.320  32.432  0.00  0.00    -0.148 NA
ATOM      4  C   LIG    1      -20.819  78.562  33.452  0.00  0.00    +0.143 A 
ATOM      5  C   LIG    1      -19.366  78.165  33.438  0.00  0.00    +0.049 A 
ATOM      6  C   LIG    1      -18.860  77.549  32.367  0.00  0.00    +0.051 A 
ATOM      7  C   LIG    1      -19.692  77.296  31.264  0.00  0.00    +0.157 A 
ATOM      8  N   LIG    1      -19.420  76.725  30.113  0.00  0.00    -0.232 NA
ATOM      9  C   LIG    1      -20.590  76.797  29.413  0.00  0.00    +0.161 A 
ENDROOT
BRANCH   4  10
ATOM     10  N   LIG    1      -21.341  79.192  34.581  0.00  0.00    -0.307 N 
ATOM     11  C   LIG    1      -21.954  78.458  35.703  0.00  0.00    +0.108 C 
ATOM     12  C   LIG    1      -21.536  79.230  36.970  0.00  0.00    +0.029 C 
ATOM     13  C   LIG    1      -20.447  80.184  36.503  0.00  0.00    +0.021 C 
ATOM     14  C   LIG    1      -20.831  80.476  35.065  0.00  0.00    +0.107 C 
BRANCH  11  15
ATOM     15  C   LIG    1      -23.462  78.375  35.573  0.00  0.00    +0.011 A 
ATOM     16  C   LIG    1      -24.038  77.271  34.933  0.00  0.00    +0.129 A 
ATOM     17  F   LIG    1      -23.249  76.318  34.418  0.00  0.00    -0.205 F 
ATOM     18  C   LIG    1      -25.419  77.134  34.809  0.00  0.00    +0.041 A 
ATOM     19  C   LIG    1      -26.261  78.108  35.345  0.00  0.00    +0.041 A 
ATOM     20  C   LIG    1      -25.703  79.205  35.990  0.00  0.00    +0.124 A 
ATOM     21  F   LIG    1      -26.508  80.140  36.513  0.00  0.00    -0.205 F 
ATOM     22  C   LIG    1      -24.324  79.348  36.107  0.00  0.00    +0.046 A 
ENDBRANCH  11  15
ENDBRANCH   4  10
BRANCH   1  25
ATOM     23  C   LIG    1      -23.842  75.525  30.739  0.00  0.00    +0.109 C 
ATOM     24  C   LIG    1      -23.885  76.899  30.132  0.00  0.00    +0.186 C 
ATOM     25  N   LIG    1      -22.915  77.711  29.879  0.00  0.00    -0.196 NA
BRANCH  24  26
ATOM     26  O   LIG    1      -25.131  77.293  29.786  0.00  0.00    -0.496 OA
ATOM     27  H   LIG    1      -25.224  77.501  28.845  0.00  0.00    +0.293 HD
ENDBRANCH  24  26
ENDBRANCH   1  25
TORSDOF 4
ENDMDL
