MODEL 1
REMARK VINA RESULT:      -6.2      0.000      0.000
REMARK  Name = pdb/CHEMBL3907403.pdb
REMARK                            x       y       z     vdW  Elec       q    Type
REMARK                         _______ _______ _______ _____ _____    ______ ____
ROOT
ATOM      1  N   LIG    1      -24.507  78.532  33.336  0.00  0.00    -0.282 N 
ATOM      2  H   LIG    1      -24.643  79.490  33.030  0.00  0.00    +0.152 HD
ATOM      3  C   LIG    1      -23.627  78.279  34.447  0.00  0.00    +0.247 C 
ATOM      4  O   LIG    1      -23.511  77.144  34.888  0.00  0.00    -0.270 OA
ENDROOT
BRANCH   3   5
ATOM      5  C   LIG    1      -22.897  79.460  35.007  0.00  0.00    +0.056 A 
ATOM      6  C   LIG    1      -21.547  79.687  34.725  0.00  0.00    +0.054 A 
ATOM      7 CL   LIG    1      -20.581  78.651  33.739  0.00  0.00    -0.083 Cl
ATOM      8  C   LIG    1      -20.898  80.795  35.278  0.00  0.00    +0.041 A 
ATOM      9  C   LIG    1      -21.572  81.693  36.119  0.00  0.00    +0.052 A 
ATOM     10 CL   LIG    1      -20.625  83.046  36.643  0.00  0.00    -0.083 Cl
ATOM     11  C   LIG    1      -22.931  81.502  36.443  0.00  0.00    +0.019 A 
ATOM     12  C   LIG    1      -23.574  80.381  35.838  0.00  0.00    +0.026 A 
BRANCH  11  13
ATOM     13  C   LIG    1      -23.730  82.388  37.339  0.00  0.00    +0.072 A 
ATOM     14  N   LIG    1      -24.958  82.727  36.858  0.00  0.00    -0.255 NA
ATOM     15  C   LIG    1      -25.736  83.544  37.613  0.00  0.00    +0.111 A 
ATOM     16  C   LIG    1      -25.366  84.047  38.846  0.00  0.00    +0.020 A 
ATOM     17  C   LIG    1      -24.132  83.671  39.350  0.00  0.00    +0.004 A 
ATOM     18  C   LIG    1      -23.320  82.818  38.603  0.00  0.00    +0.028 A 
ENDBRANCH  11  13
ENDBRANCH   3   5
BRANCH   1  22
ATOM     19  C   LIG    1      -27.026  76.349  31.907  0.00  0.00    +0.131 C 
ATOM     20  N   LIG    1      -26.026  76.221  31.019  0.00  0.00    -0.141 NA
ATOM     21  N   LIG    1      -24.959  76.796  31.608  0.00  0.00    -0.201 N 
ATOM     22  C   LIG    1      -25.320  77.567  32.712  0.00  0.00    +0.185 C 
ATOM     23  C   LIG    1      -26.623  77.203  32.981  0.00  0.00    +0.056 C 
BRANCH  21  24
ATOM     24  C   LIG    1      -23.656  76.578  31.096  0.00  0.00    +0.052 A 
ATOM     25  C   LIG    1      -23.227  77.257  29.946  0.00  0.00    +0.025 A 
ATOM     26  C   LIG    1      -21.931  77.063  29.470  0.00  0.00    +0.002 A 
ATOM     27  C   LIG    1      -21.069  76.187  30.130  0.00  0.00    +0.000 A 
ATOM     28  C   LIG    1      -21.490  75.520  31.280  0.00  0.00    +0.002 A 
ATOM     29  C   LIG    1      -22.776  75.729  31.778  0.00  0.00    +0.025 A 
ENDBRANCH  21  24
BRANCH  19  31
ATOM     30  N   LIG    1      -29.261  76.251  31.015  0.00  0.00    -0.250 NA
ATOM     31  C   LIG    1      -28.332  75.699  31.707  0.00  0.00    +0.233 C 
BRANCH  30  33
ATOM     32  C   LIG    1      -31.130  76.070  29.470  0.00  0.00    +0.029 C 
ATOM     33  C   LIG    1      -30.546  75.599  30.794  0.00  0.00    +0.142 C 
ENDBRANCH  30  33
BRANCH  31  34
ATOM     34  O   LIG    1      -28.449  74.490  32.303  0.00  0.00    -0.491 OA
ATOM     35  H   LIG    1      -27.616  74.001  32.260  0.00  0.00    +0.294 HD
ENDBRANCH  31  34
ENDBRANCH  19  31
ENDBRANCH   1  22
TORSDOF 7
ENDMDL
MODEL 2
REMARK VINA RESULT:      -6.1      9.022     15.323
REMARK  Name = pdb/CHEMBL3907403.pdb
REMARK                            x       y       z     vdW  Elec       q    Type
REMARK                         _______ _______ _______ _____ _____    ______ ____
ROOT
ATOM      1  N   LIG    1      -34.618  74.540  27.583  0.00  0.00    -0.282 N 
ATOM      2  H   LIG    1      -34.429  74.249  26.630  0.00  0.00    +0.152 HD
ATOM      3  C   LIG    1      -35.987  74.692  28.003  0.00  0.00    +0.247 C 
ATOM      4  O   LIG    1      -36.242  74.959  29.168  0.00  0.00    -0.270 OA
ENDROOT
BRANCH   3   5
ATOM      5  C   LIG    1      -37.035  74.500  26.951  0.00  0.00    +0.056 A 
ATOM      6  C   LIG    1      -37.340  73.234  26.444  0.00  0.00    +0.054 A 
ATOM      7 CL   LIG    1      -36.553  71.781  26.943  0.00  0.00    -0.083 Cl
ATOM      8  C   LIG    1      -38.317  73.098  25.452  0.00  0.00    +0.041 A 
ATOM      9  C   LIG    1      -39.004  74.211  24.947  0.00  0.00    +0.052 A 
ATOM     10 CL   LIG    1      -40.231  73.837  23.783  0.00  0.00    -0.083 Cl
ATOM     11  C   LIG    1      -38.726  75.510  25.417  0.00  0.00    +0.019 A 
ATOM     12  C   LIG    1      -37.748  75.613  26.451  0.00  0.00    +0.026 A 
BRANCH  11  13
ATOM     13  C   LIG    1      -39.388  76.757  24.933  0.00  0.00    +0.072 A 
ATOM     14  N   LIG    1      -40.558  77.062  25.559  0.00  0.00    -0.255 NA
ATOM     15  C   LIG    1      -41.225  78.174  25.160  0.00  0.00    +0.111 A 
ATOM     16  C   LIG    1      -40.787  79.026  24.164  0.00  0.00    +0.020 A 
ATOM     17  C   LIG    1      -39.579  78.735  23.554  0.00  0.00    +0.004 A 
ATOM     18  C   LIG    1      -38.864  77.608  23.957  0.00  0.00    +0.028 A 
ENDBRANCH  11  13
ENDBRANCH   3   5
BRANCH   1  22
ATOM     19  C   LIG    1      -31.688  74.212  29.696  0.00  0.00    +0.131 C 
ATOM     20  N   LIG    1      -31.510  75.440  29.180  0.00  0.00    -0.141 NA
ATOM     21  N   LIG    1      -32.681  75.743  28.586  0.00  0.00    -0.201 N 
ATOM     22  C   LIG    1      -33.498  74.624  28.432  0.00  0.00    +0.185 C 
ATOM     23  C   LIG    1      -32.924  73.660  29.234  0.00  0.00    +0.056 C 
BRANCH  21  24
ATOM     24  C   LIG    1      -32.963  77.077  28.202  0.00  0.00    +0.052 A 
ATOM     25  C   LIG    1      -33.872  77.848  28.941  0.00  0.00    +0.025 A 
ATOM     26  C   LIG    1      -34.116  79.171  28.576  0.00  0.00    +0.002 A 
ATOM     27  C   LIG    1      -33.466  79.722  27.471  0.00  0.00    +0.000 A 
ATOM     28  C   LIG    1      -32.553  78.961  26.742  0.00  0.00    +0.002 A 
ATOM     29  C   LIG    1      -32.282  77.644  27.117  0.00  0.00    +0.025 A 
ENDBRANCH  21  24
BRANCH  19  31
ATOM     30  N   LIG    1      -30.385  74.080  31.717  0.00  0.00    -0.250 NA
ATOM     31  C   LIG    1      -30.685  73.584  30.573  0.00  0.00    +0.233 C 
BRANCH  30  33
ATOM     32  C   LIG    1      -28.142  74.285  32.634  0.00  0.00    +0.029 C 
ATOM     33  C   LIG    1      -29.412  73.446  32.598  0.00  0.00    +0.142 C 
ENDBRANCH  30  33
BRANCH  31  34
ATOM     34  O   LIG    1      -30.133  72.457  30.068  0.00  0.00    -0.491 OA
ATOM     35  H   LIG    1      -30.766  71.727  30.077  0.00  0.00    +0.294 HD
ENDBRANCH  31  34
ENDBRANCH  19  31
ENDBRANCH   1  22
TORSDOF 7
ENDMDL
MODEL 3
REMARK VINA RESULT:      -6.1      2.594      2.982
REMARK  Name = pdb/CHEMBL3907403.pdb
REMARK                            x       y       z     vdW  Elec       q    Type
REMARK                         _______ _______ _______ _____ _____    ______ ____
ROOT
ATOM      1  N   LIG    1      -23.302  76.647  33.419  0.00  0.00    -0.282 N 
ATOM      2  H   LIG    1      -22.767  76.438  34.255  0.00  0.00    +0.152 HD
ATOM      3  C   LIG    1      -23.515  78.025  33.061  0.00  0.00    +0.247 C 
ATOM      4  O   LIG    1      -24.083  78.303  32.014  0.00  0.00    -0.270 OA
ENDROOT
BRANCH   3   5
ATOM      5  C   LIG    1      -23.006  79.054  34.022  0.00  0.00    +0.056 A 
ATOM      6  C   LIG    1      -21.640  79.317  34.157  0.00  0.00    +0.054 A 
ATOM      7 CL   LIG    1      -20.408  78.498  33.267  0.00  0.00    -0.083 Cl
ATOM      8  C   LIG    1      -21.203  80.277  35.075  0.00  0.00    +0.041 A 
ATOM      9  C   LIG    1      -22.110  80.988  35.875  0.00  0.00    +0.052 A 
ATOM     10 CL   LIG    1      -21.388  82.189  36.894  0.00  0.00    -0.083 Cl
ATOM     11  C   LIG    1      -23.496  80.752  35.786  0.00  0.00    +0.019 A 
ATOM     12  C   LIG    1      -23.913  79.790  34.817  0.00  0.00    +0.026 A 
BRANCH  11  13
ATOM     13  C   LIG    1      -24.537  81.442  36.602  0.00  0.00    +0.072 A 
ATOM     14  N   LIG    1      -25.274  80.621  37.400  0.00  0.00    -0.255 NA
ATOM     15  C   LIG    1      -26.251  81.177  38.160  0.00  0.00    +0.111 A 
ATOM     16  C   LIG    1      -26.540  82.528  38.185  0.00  0.00    +0.020 A 
ATOM     17  C   LIG    1      -25.765  83.366  37.402  0.00  0.00    +0.004 A 
ATOM     18  C   LIG    1      -24.743  82.823  36.624  0.00  0.00    +0.028 A 
ENDBRANCH  11  13
ENDBRANCH   3   5
BRANCH   1  22
ATOM     19  C   LIG    1      -24.718  73.863  31.575  0.00  0.00    +0.131 C 
ATOM     20  N   LIG    1      -23.781  74.304  30.718  0.00  0.00    -0.141 NA
ATOM     21  N   LIG    1      -23.036  75.172  31.430  0.00  0.00    -0.201 N 
ATOM     22  C   LIG    1      -23.654  75.541  32.623  0.00  0.00    +0.185 C 
ATOM     23  C   LIG    1      -24.678  74.630  32.781  0.00  0.00    +0.056 C 
BRANCH  21  24
ATOM     24  C   LIG    1      -21.776  75.600  30.942  0.00  0.00    +0.052 A 
ATOM     25  C   LIG    1      -21.702  76.591  29.952  0.00  0.00    +0.025 A 
ATOM     26  C   LIG    1      -20.456  77.030  29.504  0.00  0.00    +0.002 A 
ATOM     27  C   LIG    1      -19.290  76.476  30.031  0.00  0.00    +0.000 A 
ATOM     28  C   LIG    1      -19.362  75.498  31.023  0.00  0.00    +0.002 A 
ATOM     29  C   LIG    1      -20.604  75.073  31.497  0.00  0.00    +0.025 A 
ENDBRANCH  21  24
BRANCH  19  31
ATOM     30  N   LIG    1      -25.207  71.629  30.822  0.00  0.00    -0.250 NA
ATOM     31  C   LIG    1      -25.638  72.768  31.226  0.00  0.00    +0.233 C 
BRANCH  30  33
ATOM     32  C   LIG    1      -25.663  69.866  29.210  0.00  0.00    +0.029 C 
ATOM     33  C   LIG    1      -26.115  70.534  30.501  0.00  0.00    +0.142 C 
ENDBRANCH  30  33
BRANCH  31  34
ATOM     34  O   LIG    1      -26.947  73.072  31.379  0.00  0.00    -0.491 OA
ATOM     35  H   LIG    1      -27.132  73.971  31.074  0.00  0.00    +0.294 HD
ENDBRANCH  31  34
ENDBRANCH  19  31
ENDBRANCH   1  22
TORSDOF 7
ENDMDL
MODEL 4
REMARK VINA RESULT:      -6.0      4.245      9.701
REMARK  Name = pdb/CHEMBL3907403.pdb
REMARK                            x       y       z     vdW  Elec       q    Type
REMARK                         _______ _______ _______ _____ _____    ______ ____
ROOT
ATOM      1  N   LIG    1      -24.739  75.667  32.876  0.00  0.00    -0.282 N 
ATOM      2  H   LIG    1      -24.450  74.914  33.491  0.00  0.00    +0.152 HD
ATOM      3  C   LIG    1      -25.618  75.365  31.777  0.00  0.00    +0.247 C 
ATOM      4  O   LIG    1      -26.046  76.267  31.072  0.00  0.00    -0.270 OA
ENDROOT
BRANCH   3   5
ATOM      5  C   LIG    1      -25.961  73.922  31.570  0.00  0.00    +0.056 A 
ATOM      6  C   LIG    1      -27.202  73.404  31.949  0.00  0.00    +0.054 A 
ATOM      7 CL   LIG    1      -28.448  74.336  32.697  0.00  0.00    -0.083 Cl
ATOM      8  C   LIG    1      -27.480  72.047  31.751  0.00  0.00    +0.041 A 
ATOM      9  C   LIG    1      -26.534  71.185  31.178  0.00  0.00    +0.052 A 
ATOM     10 CL   LIG    1      -27.087  69.560  30.940  0.00  0.00    -0.083 Cl
ATOM     11  C   LIG    1      -25.264  71.656  30.789  0.00  0.00    +0.019 A 
ATOM     12  C   LIG    1      -25.022  73.050  30.974  0.00  0.00    +0.026 A 
BRANCH  11  13
ATOM     13  C   LIG    1      -24.186  70.817  30.188  0.00  0.00    +0.072 A 
ATOM     14  N   LIG    1      -23.225  70.409  31.062  0.00  0.00    -0.255 NA
ATOM     15  C   LIG    1      -22.204  69.655  30.583  0.00  0.00    +0.111 A 
ATOM     16  C   LIG    1      -22.081  69.264  29.263  0.00  0.00    +0.020 A 
ATOM     17  C   LIG    1      -23.079  69.647  28.383  0.00  0.00    +0.004 A 
ATOM     18  C   LIG    1      -24.149  70.408  28.853  0.00  0.00    +0.028 A 
ENDBRANCH  11  13
ENDBRANCH   3   5
BRANCH   1  22
ATOM     19  C   LIG    1      -24.019  78.906  34.341  0.00  0.00    +0.131 C 
ATOM     20  N   LIG    1      -22.894  78.671  33.644  0.00  0.00    -0.141 NA
ATOM     21  N   LIG    1      -23.181  77.610  32.864  0.00  0.00    -0.201 N 
ATOM     22  C   LIG    1      -24.347  76.961  33.266  0.00  0.00    +0.185 C 
ATOM     23  C   LIG    1      -24.952  77.841  34.140  0.00  0.00    +0.056 C 
BRANCH  21  24
ATOM     24  C   LIG    1      -22.337  77.274  31.777  0.00  0.00    +0.052 A 
ATOM     25  C   LIG    1      -21.026  76.832  32.011  0.00  0.00    +0.025 A 
ATOM     26  C   LIG    1      -20.215  76.469  30.937  0.00  0.00    +0.002 A 
ATOM     27  C   LIG    1      -20.703  76.557  29.633  0.00  0.00    +0.000 A 
ATOM     28  C   LIG    1      -22.010  76.985  29.399  0.00  0.00    +0.002 A 
ATOM     29  C   LIG    1      -22.837  77.324  30.470  0.00  0.00    +0.025 A 
ENDBRANCH  21  24
BRANCH  19  31
ATOM     30  N   LIG    1      -23.234  80.965  35.314  0.00  0.00    -0.250 NA
ATOM     31  C   LIG    1      -24.170  80.095  35.196  0.00  0.00    +0.233 C 
BRANCH  30  33
ATOM     32  C   LIG    1      -22.056  82.502  36.785  0.00  0.00    +0.029 C 
ATOM     33  C   LIG    1      -23.390  82.156  36.139  0.00  0.00    +0.142 C 
ENDBRANCH  30  33
BRANCH  31  34
ATOM     34  O   LIG    1      -25.366  80.181  35.823  0.00  0.00    -0.491 OA
ATOM     35  H   LIG    1      -25.883  79.375  35.693  0.00  0.00    +0.294 HD
ENDBRANCH  31  34
ENDBRANCH  19  31
ENDBRANCH   1  22
TORSDOF 7
ENDMDL
MODEL 5
REMARK VINA RESULT:      -6.0     18.472     20.627
REMARK  Name = pdb/CHEMBL3907403.pdb
REMARK                            x       y       z     vdW  Elec       q    Type
REMARK                         _______ _______ _______ _____ _____    ______ ____
ROOT
ATOM      1  N   LIG    1      -30.428  66.692  19.672  0.00  0.00    -0.282 N 
ATOM      2  H   LIG    1      -30.717  67.564  20.102  0.00  0.00    +0.152 HD
ATOM      3  C   LIG    1      -31.440  65.777  19.214  0.00  0.00    +0.247 C 
ATOM      4  O   LIG    1      -31.119  64.759  18.617  0.00  0.00    -0.270 OA
ENDROOT
BRANCH   3   5
ATOM      5  C   LIG    1      -32.861  66.149  19.504  0.00  0.00    +0.056 A 
ATOM      6  C   LIG    1      -33.774  66.408  18.478  0.00  0.00    +0.054 A 
ATOM      7 CL   LIG    1      -33.378  66.349  16.798  0.00  0.00    -0.083 Cl
ATOM      8  C   LIG    1      -35.090  66.766  18.790  0.00  0.00    +0.041 A 
ATOM      9  C   LIG    1      -35.520  66.875  20.120  0.00  0.00    +0.052 A 
ATOM     10 CL   LIG    1      -37.201  67.250  20.309  0.00  0.00    -0.083 Cl
ATOM     11  C   LIG    1      -34.636  66.634  21.191  0.00  0.00    +0.019 A 
ATOM     12  C   LIG    1      -33.310  66.240  20.840  0.00  0.00    +0.026 A 
BRANCH  11  13
ATOM     13  C   LIG    1      -34.992  66.740  22.636  0.00  0.00    +0.072 A 
ATOM     14  N   LIG    1      -34.812  67.974  23.180  0.00  0.00    -0.255 NA
ATOM     15  C   LIG    1      -35.101  68.141  24.496  0.00  0.00    +0.111 A 
ATOM     16  C   LIG    1      -35.578  67.138  25.319  0.00  0.00    +0.020 A 
ATOM     17  C   LIG    1      -35.796  65.893  24.755  0.00  0.00    +0.004 A 
ATOM     18  C   LIG    1      -35.524  65.698  23.401  0.00  0.00    +0.028 A 
ENDBRANCH  11  13
ENDBRANCH   3   5
BRANCH   1  22
ATOM     19  C   LIG    1      -26.960  65.778  19.131  0.00  0.00    +0.131 C 
ATOM     20  N   LIG    1      -27.065  66.889  18.382  0.00  0.00    -0.141 NA
ATOM     21  N   LIG    1      -28.246  67.436  18.730  0.00  0.00    -0.201 N 
ATOM     22  C   LIG    1      -29.046  66.548  19.446  0.00  0.00    +0.185 C 
ATOM     23  C   LIG    1      -28.195  65.523  19.805  0.00  0.00    +0.056 C 
BRANCH  21  24
ATOM     24  C   LIG    1      -28.549  68.772  18.369  0.00  0.00    +0.052 A 
ATOM     25  C   LIG    1      -29.244  69.042  17.181  0.00  0.00    +0.025 A 
ATOM     26  C   LIG    1      -29.569  70.358  16.853  0.00  0.00    +0.002 A 
ATOM     27  C   LIG    1      -29.191  71.402  17.697  0.00  0.00    +0.000 A 
ATOM     28  C   LIG    1      -28.509  71.134  18.884  0.00  0.00    +0.002 A 
ATOM     29  C   LIG    1      -28.205  69.818  19.234  0.00  0.00    +0.025 A 
ENDBRANCH  21  24
BRANCH  19  31
ATOM     30  N   LIG    1      -25.093  64.759  20.262  0.00  0.00    -0.250 NA
ATOM     31  C   LIG    1      -25.725  64.977  19.166  0.00  0.00    +0.233 C 
BRANCH  30  33
ATOM     32  C   LIG    1      -22.664  64.853  20.338  0.00  0.00    +0.029 C 
ATOM     33  C   LIG    1      -23.885  63.944  20.303  0.00  0.00    +0.142 C 
ENDBRANCH  30  33
BRANCH  31  34
ATOM     34  O   LIG    1      -25.338  64.500  17.961  0.00  0.00    -0.491 OA
ATOM     35  H   LIG    1      -26.000  63.897  17.599  0.00  0.00    +0.294 HD
ENDBRANCH  31  34
ENDBRANCH  19  31
ENDBRANCH   1  22
TORSDOF 7
ENDMDL
MODEL 6
REMARK VINA RESULT:      -6.0     16.341     18.927
REMARK  Name = pdb/CHEMBL3907403.pdb
REMARK                            x       y       z     vdW  Elec       q    Type
REMARK                         _______ _______ _______ _____ _____    ______ ____
ROOT
ATOM      1  N   LIG    1      -37.498  70.283  23.458  0.00  0.00    -0.282 N 
ATOM      2  H   LIG    1      -37.228  71.093  22.909  0.00  0.00    +0.152 HD
ATOM      3  C   LIG    1      -38.798  70.266  24.075  0.00  0.00    +0.247 C 
ATOM      4  O   LIG    1      -39.178  69.269  24.671  0.00  0.00    -0.270 OA
ENDROOT
BRANCH   3   5
ATOM      5  C   LIG    1      -39.623  71.508  23.934  0.00  0.00    +0.056 A 
ATOM      6  C   LIG    1      -40.833  71.507  23.235  0.00  0.00    +0.054 A 
ATOM      7 CL   LIG    1      -41.496  70.116  22.457  0.00  0.00    -0.083 Cl
ATOM      8  C   LIG    1      -41.569  72.691  23.115  0.00  0.00    +0.041 A 
ATOM      9  C   LIG    1      -41.116  73.892  23.681  0.00  0.00    +0.052 A 
ATOM     10 CL   LIG    1      -42.198  75.232  23.496  0.00  0.00    -0.083 Cl
ATOM     11  C   LIG    1      -39.897  73.948  24.386  0.00  0.00    +0.019 A 
ATOM     12  C   LIG    1      -39.186  72.718  24.519  0.00  0.00    +0.026 A 
BRANCH  11  13
ATOM     13  C   LIG    1      -39.323  75.176  25.009  0.00  0.00    +0.072 A 
ATOM     14  N   LIG    1      -39.067  75.074  26.342  0.00  0.00    -0.255 NA
ATOM     15  C   LIG    1      -38.558  76.159  26.979  0.00  0.00    +0.111 A 
ATOM     16  C   LIG    1      -38.273  77.361  26.359  0.00  0.00    +0.020 A 
ATOM     17  C   LIG    1      -38.499  77.451  24.996  0.00  0.00    +0.004 A 
ATOM     18  C   LIG    1      -39.004  76.345  24.313  0.00  0.00    +0.028 A 
ENDBRANCH  11  13
ENDBRANCH   3   5
BRANCH   1  22
ATOM     19  C   LIG    1      -35.228  67.522  22.838  0.00  0.00    +0.131 C 
ATOM     20  N   LIG    1      -34.718  68.040  23.969  0.00  0.00    -0.141 NA
ATOM     21  N   LIG    1      -35.650  68.908  24.408  0.00  0.00    -0.201 N 
ATOM     22  C   LIG    1      -36.602  69.198  23.430  0.00  0.00    +0.185 C 
ATOM     23  C   LIG    1      -36.408  68.237  22.460  0.00  0.00    +0.056 C 
BRANCH  21  24
ATOM     24  C   LIG    1      -35.591  69.412  25.731  0.00  0.00    +0.052 A 
ATOM     25  C   LIG    1      -34.804  70.534  26.025  0.00  0.00    +0.025 A 
ATOM     26  C   LIG    1      -34.780  71.043  27.323  0.00  0.00    +0.002 A 
ATOM     27  C   LIG    1      -35.529  70.429  28.327  0.00  0.00    +0.000 A 
ATOM     28  C   LIG    1      -36.322  69.320  28.034  0.00  0.00    +0.002 A 
ATOM     29  C   LIG    1      -36.372  68.821  26.732  0.00  0.00    +0.025 A 
ENDBRANCH  21  24
BRANCH  19  31
ATOM     30  N   LIG    1      -34.101  66.540  20.950  0.00  0.00    -0.250 NA
ATOM     31  C   LIG    1      -34.580  66.404  22.133  0.00  0.00    +0.233 C 
BRANCH  30  33
ATOM     32  C   LIG    1      -32.057  65.894  19.802  0.00  0.00    +0.029 C 
ATOM     33  C   LIG    1      -33.436  65.441  20.260  0.00  0.00    +0.142 C 
ENDBRANCH  30  33
BRANCH  31  34
ATOM     34  O   LIG    1      -34.535  65.252  22.841  0.00  0.00    -0.491 OA
ATOM     35  H   LIG    1      -33.623  64.952  22.955  0.00  0.00    +0.294 HD
ENDBRANCH  31  34
ENDBRANCH  19  31
ENDBRANCH   1  22
TORSDOF 7
ENDMDL
MODEL 7
REMARK VINA RESULT:      -5.9      2.202      3.991
REMARK  Name = pdb/CHEMBL3907403.pdb
REMARK                            x       y       z     vdW  Elec       q    Type
REMARK                         _______ _______ _______ _____ _____    ______ ____
ROOT
ATOM      1  N   LIG    1      -24.719  78.154  33.625  0.00  0.00    -0.282 N 
ATOM      2  H   LIG    1      -23.783  78.119  33.234  0.00  0.00    +0.152 HD
ATOM      3  C   LIG    1      -24.964  79.006  34.759  0.00  0.00    +0.247 C 
ATOM      4  O   LIG    1      -26.100  79.130  35.195  0.00  0.00    -0.270 OA
ENDROOT
BRANCH   3   5
ATOM      5  C   LIG    1      -23.776  79.707  35.340  0.00  0.00    +0.056 A 
ATOM      6  C   LIG    1      -23.918  80.767  36.239  0.00  0.00    +0.054 A 
ATOM      7 CL   LIG    1      -25.442  81.389  36.761  0.00  0.00    -0.083 Cl
ATOM      8  C   LIG    1      -22.783  81.405  36.750  0.00  0.00    +0.041 A 
ATOM      9  C   LIG    1      -21.492  81.006  36.376  0.00  0.00    +0.052 A 
ATOM     10 CL   LIG    1      -20.211  81.860  37.172  0.00  0.00    -0.083 Cl
ATOM     11  C   LIG    1      -21.294  79.950  35.464  0.00  0.00    +0.019 A 
ATOM     12  C   LIG    1      -22.470  79.299  34.985  0.00  0.00    +0.026 A 
BRANCH  11  13
ATOM     13  C   LIG    1      -19.965  79.463  34.992  0.00  0.00    +0.072 A 
ATOM     14  N   LIG    1      -19.836  79.375  33.639  0.00  0.00    -0.255 NA
ATOM     15  C   LIG    1      -18.658  78.924  33.138  0.00  0.00    +0.111 A 
ATOM     16  C   LIG    1      -17.574  78.558  33.913  0.00  0.00    +0.020 A 
ATOM     17  C   LIG    1      -17.693  78.684  35.286  0.00  0.00    +0.004 A 
ATOM     18  C   LIG    1      -18.887  79.161  35.828  0.00  0.00    +0.028 A 
ENDBRANCH  11  13
ENDBRANCH   3   5
BRANCH   1  22
ATOM     19  C   LIG    1      -27.633  76.655  32.070  0.00  0.00    +0.131 C 
ATOM     20  N   LIG    1      -26.751  76.640  31.057  0.00  0.00    -0.141 NA
ATOM     21  N   LIG    1      -25.565  76.941  31.620  0.00  0.00    -0.201 N 
ATOM     22  C   LIG    1      -25.710  77.459  32.907  0.00  0.00    +0.185 C 
ATOM     23  C   LIG    1      -27.017  77.180  33.249  0.00  0.00    +0.056 C 
BRANCH  21  24
ATOM     24  C   LIG    1      -24.359  76.718  30.910  0.00  0.00    +0.052 A 
ATOM     25  C   LIG    1      -23.800  77.739  30.129  0.00  0.00    +0.025 A 
ATOM     26  C   LIG    1      -22.595  77.520  29.463  0.00  0.00    +0.002 A 
ATOM     27  C   LIG    1      -21.955  76.284  29.565  0.00  0.00    +0.000 A 
ATOM     28  C   LIG    1      -22.504  75.272  30.351  0.00  0.00    +0.002 A 
ATOM     29  C   LIG    1      -23.696  75.492  31.043  0.00  0.00    +0.025 A 
ENDBRANCH  21  24
BRANCH  19  31
ATOM     30  N   LIG    1      -29.528  75.267  32.603  0.00  0.00    -0.250 NA
ATOM     31  C   LIG    1      -29.027  76.214  31.896  0.00  0.00    +0.233 C 
BRANCH  30  33
ATOM     32  C   LIG    1      -30.954  73.444  31.857  0.00  0.00    +0.029 C 
ATOM     33  C   LIG    1      -30.915  74.845  32.450  0.00  0.00    +0.142 C 
ENDBRANCH  30  33
BRANCH  31  34
ATOM     34  O   LIG    1      -29.711  76.892  30.946  0.00  0.00    -0.491 OA
ATOM     35  H   LIG    1      -30.196  77.634  31.332  0.00  0.00    +0.294 HD
ENDBRANCH  31  34
ENDBRANCH  19  31
ENDBRANCH   1  22
TORSDOF 7
ENDMDL
MODEL 8
REMARK VINA RESULT:      -5.9     13.512     17.734
REMARK  Name = pdb/CHEMBL3907403.pdb
REMARK                            x       y       z     vdW  Elec       q    Type
REMARK                         _______ _______ _______ _____ _____    ______ ____
ROOT
ATOM      1  N   LIG    1      -38.237  76.687  26.477  0.00  0.00    -0.282 N 
ATOM      2  H   LIG    1      -39.004  76.280  27.002  0.00  0.00    +0.152 HD
ATOM      3  C   LIG    1      -37.939  76.163  25.170  0.00  0.00    +0.247 C 
ATOM      4  O   LIG    1      -37.075  76.691  24.483  0.00  0.00    -0.270 OA
ENDROOT
BRANCH   3   5
ATOM      5  C   LIG    1      -38.736  74.977  24.725  0.00  0.00    +0.056 A 
ATOM      6  C   LIG    1      -39.992  75.119  24.131  0.00  0.00    +0.054 A 
ATOM      7 CL   LIG    1      -40.763  76.640  23.861  0.00  0.00    -0.083 Cl
ATOM      8  C   LIG    1      -40.711  73.985  23.740  0.00  0.00    +0.041 A 
ATOM      9  C   LIG    1      -40.199  72.694  23.935  0.00  0.00    +0.052 A 
ATOM     10 CL   LIG    1      -41.196  71.419  23.317  0.00  0.00    -0.083 Cl
ATOM     11  C   LIG    1      -38.942  72.495  24.540  0.00  0.00    +0.019 A 
ATOM     12  C   LIG    1      -38.219  73.673  24.897  0.00  0.00    +0.026 A 
BRANCH  11  13
ATOM     13  C   LIG    1      -38.319  71.166  24.805  0.00  0.00    +0.072 A 
ATOM     14  N   LIG    1      -38.477  70.704  26.076  0.00  0.00    -0.255 NA
ATOM     15  C   LIG    1      -37.923  69.506  26.394  0.00  0.00    +0.111 A 
ATOM     16  C   LIG    1      -37.215  68.718  25.507  0.00  0.00    +0.020 A 
ATOM     17  C   LIG    1      -37.087  69.172  24.205  0.00  0.00    +0.004 A 
ATOM     18  C   LIG    1      -37.662  70.391  23.846  0.00  0.00    +0.028 A 
ENDBRANCH  11  13
ENDBRANCH   3   5
BRANCH   1  22
ATOM     19  C   LIG    1      -37.204  79.847  27.927  0.00  0.00    +0.131 C 
ATOM     20  N   LIG    1      -36.373  78.986  28.539  0.00  0.00    -0.141 NA
ATOM     21  N   LIG    1      -36.514  77.826  27.869  0.00  0.00    -0.201 N 
ATOM     22  C   LIG    1      -37.641  77.827  27.047  0.00  0.00    +0.185 C 
ATOM     23  C   LIG    1      -38.029  79.149  26.990  0.00  0.00    +0.056 C 
BRANCH  21  24
ATOM     24  C   LIG    1      -35.571  76.782  28.040  0.00  0.00    +0.052 A 
ATOM     25  C   LIG    1      -35.834  75.732  28.931  0.00  0.00    +0.025 A 
ATOM     26  C   LIG    1      -34.916  74.691  29.065  0.00  0.00    +0.002 A 
ATOM     27  C   LIG    1      -33.734  74.703  28.324  0.00  0.00    +0.000 A 
ATOM     28  C   LIG    1      -33.476  75.741  27.429  0.00  0.00    +0.002 A 
ATOM     29  C   LIG    1      -34.403  76.772  27.268  0.00  0.00    +0.025 A 
ENDBRANCH  21  24
BRANCH  19  31
ATOM     30  N   LIG    1      -36.221  82.044  28.013  0.00  0.00    -0.250 NA
ATOM     31  C   LIG    1      -37.223  81.281  28.261  0.00  0.00    +0.233 C 
BRANCH  30  33
ATOM     32  C   LIG    1      -36.386  84.260  27.026  0.00  0.00    +0.029 C 
ATOM     33  C   LIG    1      -36.246  83.469  28.319  0.00  0.00    +0.142 C 
ENDBRANCH  30  33
BRANCH  31  34
ATOM     34  O   LIG    1      -38.373  81.704  28.831  0.00  0.00    -0.491 OA
ATOM     35  H   LIG    1      -38.903  80.956  29.137  0.00  0.00    +0.294 HD
ENDBRANCH  31  34
ENDBRANCH  19  31
ENDBRANCH   1  22
TORSDOF 7
ENDMDL
MODEL 9
REMARK VINA RESULT:      -5.9      3.156      4.371
REMARK  Name = pdb/CHEMBL3907403.pdb
REMARK                            x       y       z     vdW  Elec       q    Type
REMARK                         _______ _______ _______ _____ _____    ______ ____
ROOT
ATOM      1  N   LIG    1      -23.741  76.791  32.470  0.00  0.00    -0.282 N 
ATOM      2  H   LIG    1      -23.288  76.478  33.323  0.00  0.00    +0.152 HD
ATOM      3  C   LIG    1      -22.958  77.490  31.486  0.00  0.00    +0.247 C 
ATOM      4  O   LIG    1      -23.460  77.802  30.415  0.00  0.00    -0.270 OA
ENDROOT
BRANCH   3   5
ATOM      5  C   LIG    1      -21.537  77.790  31.849  0.00  0.00    +0.056 A 
ATOM      6  C   LIG    1      -20.480  77.485  30.986  0.00  0.00    +0.054 A 
ATOM      7 CL   LIG    1      -20.681  76.730  29.447  0.00  0.00    -0.083 Cl
ATOM      8  C   LIG    1      -19.165  77.770  31.368  0.00  0.00    +0.041 A 
ATOM      9  C   LIG    1      -18.876  78.357  32.608  0.00  0.00    +0.052 A 
ATOM     10 CL   LIG    1      -17.199  78.706  32.871  0.00  0.00    -0.083 Cl
ATOM     11  C   LIG    1      -19.904  78.674  33.519  0.00  0.00    +0.019 A 
ATOM     12  C   LIG    1      -21.237  78.401  33.087  0.00  0.00    +0.026 A 
BRANCH  11  13
ATOM     13  C   LIG    1      -19.699  79.283  34.865  0.00  0.00    +0.072 A 
ATOM     14  N   LIG    1      -20.555  80.296  35.170  0.00  0.00    -0.255 NA
ATOM     15  C   LIG    1      -20.417  80.909  36.373  0.00  0.00    +0.111 A 
ATOM     16  C   LIG    1      -19.468  80.563  37.316  0.00  0.00    +0.020 A 
ATOM     17  C   LIG    1      -18.623  79.507  37.020  0.00  0.00    +0.004 A 
ATOM     18  C   LIG    1      -18.754  78.848  35.798  0.00  0.00    +0.028 A 
ENDBRANCH  11  13
ENDBRANCH   3   5
BRANCH   1  22
ATOM     19  C   LIG    1      -27.262  76.212  31.820  0.00  0.00    +0.131 C 
ATOM     20  N   LIG    1      -26.745  74.991  31.601  0.00  0.00    -0.141 NA
ATOM     21  N   LIG    1      -25.483  75.056  32.069  0.00  0.00    -0.201 N 
ATOM     22  C   LIG    1      -25.072  76.369  32.294  0.00  0.00    +0.185 C 
ATOM     23  C   LIG    1      -26.234  77.111  32.244  0.00  0.00    +0.056 C 
BRANCH  21  24
ATOM     24  C   LIG    1      -24.738  73.870  32.283  0.00  0.00    +0.052 A 
ATOM     25  C   LIG    1      -24.104  73.231  31.208  0.00  0.00    +0.025 A 
ATOM     26  C   LIG    1      -23.344  72.084  31.434  0.00  0.00    +0.002 A 
ATOM     27  C   LIG    1      -23.226  71.568  32.725  0.00  0.00    +0.000 A 
ATOM     28  C   LIG    1      -23.846  72.209  33.797  0.00  0.00    +0.002 A 
ATOM     29  C   LIG    1      -24.586  73.373  33.583  0.00  0.00    +0.025 A 
ENDBRANCH  21  24
BRANCH  19  31
ATOM     30  N   LIG    1      -29.570  75.574  31.561  0.00  0.00    -0.250 NA
ATOM     31  C   LIG    1      -28.687  76.505  31.594  0.00  0.00    +0.233 C 
BRANCH  30  33
ATOM     32  C   LIG    1      -31.325  75.734  29.886  0.00  0.00    +0.029 C 
ATOM     33  C   LIG    1      -30.985  75.864  31.364  0.00  0.00    +0.142 C 
ENDBRANCH  30  33
BRANCH  31  34
ATOM     34  O   LIG    1      -28.966  77.819  31.437  0.00  0.00    -0.491 OA
ATOM     35  H   LIG    1      -29.171  78.234  32.286  0.00  0.00    +0.294 HD
ENDBRANCH  31  34
ENDBRANCH  19  31
ENDBRANCH   1  22
TORSDOF 7
ENDMDL
