MODEL 1
REMARK VINA RESULT:      -6.7      0.000      0.000
REMARK  Name = pdb/CHEMBL3898652.pdb
REMARK                            x       y       z     vdW  Elec       q    Type
REMARK                         _______ _______ _______ _____ _____    ______ ____
ROOT
ATOM      1  C   LIG    1      -36.177  69.167  25.024  0.00  0.00    +0.149 A 
ATOM      2  N   LIG    1      -37.148  70.085  24.944  0.00  0.00    -0.160 NA
ATOM      3  N   LIG    1      -36.728  71.132  25.687  0.00  0.00    -0.218 N 
ATOM      4  C   LIG    1      -35.387  70.981  26.060  0.00  0.00    +0.129 A 
ATOM      5  C   LIG    1      -35.068  69.679  25.733  0.00  0.00    +0.078 A 
ENDROOT
BRANCH   3   6
ATOM      6  C   LIG    1      -37.636  72.206  25.897  0.00  0.00    +0.067 A 
ATOM      7  C   LIG    1      -38.342  72.360  27.093  0.00  0.00    +0.028 A 
ATOM      8  C   LIG    1      -39.264  73.409  27.218  0.00  0.00    +0.002 A 
ATOM      9  C   LIG    1      -39.474  74.305  26.166  0.00  0.00    +0.000 A 
ATOM     10  C   LIG    1      -38.783  74.146  24.970  0.00  0.00    +0.002 A 
ATOM     11  C   LIG    1      -37.882  73.092  24.828  0.00  0.00    +0.028 A 
ENDBRANCH   3   6
BRANCH   4  12
ATOM     12  N   LIG    1      -34.505  71.945  26.575  0.00  0.00    -0.266 N 
ATOM     13  H   LIG    1      -33.758  72.276  25.979  0.00  0.00    +0.157 HD
ATOM     14  C   LIG    1      -34.524  72.343  27.971  0.00  0.00    +0.251 C 
ATOM     15  O   LIG    1      -35.304  71.841  28.752  0.00  0.00    -0.270 OA
BRANCH  14  16
ATOM     16  C   LIG    1      -33.487  73.289  28.462  0.00  0.00    +0.056 A 
ATOM     17  C   LIG    1      -32.373  72.900  29.199  0.00  0.00    +0.054 A 
ATOM     18 CL   LIG    1      -31.993  71.254  29.549  0.00  0.00    -0.083 Cl
ATOM     19  C   LIG    1      -31.500  73.871  29.687  0.00  0.00    +0.041 A 
ATOM     20  C   LIG    1      -31.713  75.238  29.436  0.00  0.00    +0.052 A 
ATOM     21 CL   LIG    1      -30.694  76.303  30.345  0.00  0.00    -0.083 Cl
ATOM     22  C   LIG    1      -32.755  75.673  28.593  0.00  0.00    +0.022 A 
ATOM     23  C   LIG    1      -33.646  74.661  28.141  0.00  0.00    +0.026 A 
BRANCH  22  24
ATOM     24  C   LIG    1      -32.993  77.090  28.189  0.00  0.00    +0.107 A 
ATOM     25  C   LIG    1      -32.374  77.729  27.107  0.00  0.00    +0.149 A 
ATOM     26  F   LIG    1      -31.572  77.070  26.260  0.00  0.00    -0.203 F 
ATOM     27  C   LIG    1      -32.625  79.072  26.844  0.00  0.00    +0.042 A 
ATOM     28  C   LIG    1      -33.554  79.751  27.614  0.00  0.00    +0.023 A 
ATOM     29  C   LIG    1      -34.192  79.048  28.623  0.00  0.00    +0.111 A 
ATOM     30  N   LIG    1      -33.925  77.752  28.934  0.00  0.00    -0.252 NA
ENDBRANCH  22  24
ENDBRANCH  14  16
ENDBRANCH   4  12
BRANCH   1  31
ATOM     31  C   LIG    1      -36.323  67.855  24.401  0.00  0.00    +0.236 C 
ATOM     32  N   LIG    1      -36.125  67.713  23.141  0.00  0.00    -0.243 NA
BRANCH  32  33
ATOM     33  C   LIG    1      -36.226  66.420  22.460  0.00  0.00    +0.137 C 
ATOM     34  C   LIG    1      -36.408  66.588  20.952  0.00  0.00    +0.186 C 
ATOM     35  O   LIG    1      -35.102  66.695  20.358  0.00  0.00    -0.378 OA
ATOM     36  C   LIG    1      -34.127  66.380  21.360  0.00  0.00    +0.162 C 
ATOM     37  C   LIG    1      -34.875  65.728  22.502  0.00  0.00    +0.057 C 
ENDBRANCH  32  33
BRANCH  31  38
ATOM     38  O   LIG    1      -36.664  66.879  25.268  0.00  0.00    -0.491 OA
ATOM     39  H   LIG    1      -36.116  66.092  25.203  0.00  0.00    +0.294 HD
ENDBRANCH  31  38
ENDBRANCH   1  31
TORSDOF 7
ENDMDL
MODEL 2
REMARK VINA RESULT:      -6.6      5.034     10.892
REMARK  Name = pdb/CHEMBL3898652.pdb
REMARK                            x       y       z     vdW  Elec       q    Type
REMARK                         _______ _______ _______ _____ _____    ______ ____
ROOT
ATOM      1  C   LIG    1      -37.094  79.475  27.612  0.00  0.00    +0.149 A 
ATOM      2  N   LIG    1      -35.979  78.748  27.748  0.00  0.00    -0.160 NA
ATOM      3  N   LIG    1      -36.357  77.460  27.588  0.00  0.00    -0.218 N 
ATOM      4  C   LIG    1      -37.674  77.375  27.122  0.00  0.00    +0.129 A 
ATOM      5  C   LIG    1      -38.182  78.653  27.243  0.00  0.00    +0.078 A 
ENDROOT
BRANCH   3   6
ATOM      6  C   LIG    1      -35.388  76.447  27.825  0.00  0.00    +0.067 A 
ATOM      7  C   LIG    1      -35.745  75.121  28.082  0.00  0.00    +0.028 A 
ATOM      8  C   LIG    1      -34.744  74.181  28.362  0.00  0.00    +0.002 A 
ATOM      9  C   LIG    1      -33.397  74.552  28.376  0.00  0.00    +0.000 A 
ATOM     10  C   LIG    1      -33.039  75.874  28.135  0.00  0.00    +0.002 A 
ATOM     11  C   LIG    1      -34.030  76.822  27.878  0.00  0.00    +0.028 A 
ENDBRANCH   3   6
BRANCH   4  12
ATOM     12  N   LIG    1      -38.339  76.270  26.565  0.00  0.00    -0.266 N 
ATOM     13  H   LIG    1      -38.965  75.740  27.157  0.00  0.00    +0.157 HD
ATOM     14  C   LIG    1      -38.025  75.767  25.240  0.00  0.00    +0.251 C 
ATOM     15  O   LIG    1      -37.160  76.282  24.565  0.00  0.00    -0.270 OA
BRANCH  14  16
ATOM     16  C   LIG    1      -38.697  74.528  24.765  0.00  0.00    +0.056 A 
ATOM     17  C   LIG    1      -39.928  74.516  24.116  0.00  0.00    +0.054 A 
ATOM     18 CL   LIG    1      -40.786  75.949  23.681  0.00  0.00    -0.083 Cl
ATOM     19  C   LIG    1      -40.517  73.297  23.784  0.00  0.00    +0.041 A 
ATOM     20  C   LIG    1      -39.885  72.076  24.078  0.00  0.00    +0.052 A 
ATOM     21 CL   LIG    1      -40.880  70.677  23.847  0.00  0.00    -0.083 Cl
ATOM     22  C   LIG    1      -38.586  72.037  24.621  0.00  0.00    +0.022 A 
ATOM     23  C   LIG    1      -38.028  73.296  24.979  0.00  0.00    +0.026 A 
BRANCH  22  24
ATOM     24  C   LIG    1      -37.798  70.793  24.868  0.00  0.00    +0.107 A 
ATOM     25  C   LIG    1      -37.457  69.853  23.888  0.00  0.00    +0.149 A 
ATOM     26  F   LIG    1      -37.730  70.051  22.591  0.00  0.00    -0.203 F 
ATOM     27  C   LIG    1      -36.764  68.696  24.231  0.00  0.00    +0.042 A 
ATOM     28  C   LIG    1      -36.344  68.522  25.539  0.00  0.00    +0.023 A 
ATOM     29  C   LIG    1      -36.644  69.519  26.451  0.00  0.00    +0.111 A 
ATOM     30  N   LIG    1      -37.366  70.632  26.152  0.00  0.00    -0.252 NA
ENDBRANCH  22  24
ENDBRANCH  14  16
ENDBRANCH   4  12
BRANCH   1  31
ATOM     31  C   LIG    1      -37.081  80.923  27.804  0.00  0.00    +0.236 C 
ATOM     32  N   LIG    1      -37.369  81.706  26.830  0.00  0.00    -0.243 NA
BRANCH  32  33
ATOM     33  C   LIG    1      -37.402  83.165  26.965  0.00  0.00    +0.137 C 
ATOM     34  C   LIG    1      -36.022  83.784  26.746  0.00  0.00    +0.186 C 
ATOM     35  O   LIG    1      -35.857  84.010  25.336  0.00  0.00    -0.378 OA
ATOM     36  C   LIG    1      -37.118  83.784  24.694  0.00  0.00    +0.162 C 
ATOM     37  C   LIG    1      -38.162  83.755  25.790  0.00  0.00    +0.057 C 
ENDBRANCH  32  33
BRANCH  31  38
ATOM     38  O   LIG    1      -36.757  81.298  29.059  0.00  0.00    -0.491 OA
ATOM     39  H   LIG    1      -36.932  82.224  29.246  0.00  0.00    +0.294 HD
ENDBRANCH  31  38
ENDBRANCH   1  31
TORSDOF 7
ENDMDL
MODEL 3
REMARK VINA RESULT:      -6.5      7.277     10.460
REMARK  Name = pdb/CHEMBL3898652.pdb
REMARK                            x       y       z     vdW  Elec       q    Type
REMARK                         _______ _______ _______ _____ _____    ______ ____
ROOT
ATOM      1  C   LIG    1      -37.111  76.396  26.071  0.00  0.00    +0.149 A 
ATOM      2  N   LIG    1      -37.672  75.336  25.476  0.00  0.00    -0.160 NA
ATOM      3  N   LIG    1      -38.833  75.780  24.947  0.00  0.00    -0.218 N 
ATOM      4  C   LIG    1      -38.910  77.177  25.004  0.00  0.00    +0.129 A 
ATOM      5  C   LIG    1      -37.866  77.562  25.819  0.00  0.00    +0.078 A 
ENDROOT
BRANCH   3   6
ATOM      6  C   LIG    1      -39.712  74.823  24.372  0.00  0.00    +0.067 A 
ATOM      7  C   LIG    1      -40.956  75.178  23.844  0.00  0.00    +0.028 A 
ATOM      8  C   LIG    1      -41.801  74.179  23.340  0.00  0.00    +0.002 A 
ATOM      9  C   LIG    1      -41.408  72.838  23.350  0.00  0.00    +0.000 A 
ATOM     10  C   LIG    1      -40.176  72.480  23.887  0.00  0.00    +0.002 A 
ATOM     11  C   LIG    1      -39.339  73.464  24.412  0.00  0.00    +0.028 A 
ENDBRANCH   3   6
BRANCH   4  12
ATOM     12  N   LIG    1      -39.790  78.036  24.324  0.00  0.00    -0.266 N 
ATOM     13  H   LIG    1      -39.566  78.295  23.373  0.00  0.00    +0.157 HD
ATOM     14  C   LIG    1      -40.899  78.693  24.993  0.00  0.00    +0.251 C 
ATOM     15  O   LIG    1      -41.098  78.530  26.178  0.00  0.00    -0.270 OA
BRANCH  14  16
ATOM     16  C   LIG    1      -41.719  79.671  24.229  0.00  0.00    +0.056 A 
ATOM     17  C   LIG    1      -42.998  79.402  23.754  0.00  0.00    +0.054 A 
ATOM     18 CL   LIG    1      -43.844  77.934  24.081  0.00  0.00    -0.083 Cl
ATOM     19  C   LIG    1      -43.655  80.354  22.976  0.00  0.00    +0.041 A 
ATOM     20  C   LIG    1      -43.057  81.589  22.673  0.00  0.00    +0.052 A 
ATOM     21 CL   LIG    1      -43.895  82.521  21.477  0.00  0.00    -0.083 Cl
ATOM     22  C   LIG    1      -41.817  81.958  23.231  0.00  0.00    +0.022 A 
ATOM     23  C   LIG    1      -41.160  80.952  23.992  0.00  0.00    +0.026 A 
BRANCH  22  24
ATOM     24  C   LIG    1      -41.157  83.285  23.050  0.00  0.00    +0.107 A 
ATOM     25  C   LIG    1      -40.409  83.660  21.928  0.00  0.00    +0.149 A 
ATOM     26  F   LIG    1      -40.307  82.873  20.849  0.00  0.00    -0.203 F 
ATOM     27  C   LIG    1      -39.788  84.904  21.878  0.00  0.00    +0.042 A 
ATOM     28  C   LIG    1      -39.984  85.801  22.916  0.00  0.00    +0.023 A 
ATOM     29  C   LIG    1      -40.795  85.404  23.965  0.00  0.00    +0.111 A 
ATOM     30  N   LIG    1      -41.369  84.176  24.062  0.00  0.00    -0.252 NA
ENDBRANCH  22  24
ENDBRANCH  14  16
ENDBRANCH   4  12
BRANCH   1  31
ATOM     31  C   LIG    1      -35.867  76.270  26.826  0.00  0.00    +0.236 C 
ATOM     32  N   LIG    1      -35.086  77.278  26.955  0.00  0.00    -0.243 NA
BRANCH  32  33
ATOM     33  C   LIG    1      -33.840  77.226  27.724  0.00  0.00    +0.137 C 
ATOM     34  C   LIG    1      -32.655  76.812  26.852  0.00  0.00    +0.186 C 
ATOM     35  O   LIG    1      -32.120  77.999  26.240  0.00  0.00    -0.378 OA
ATOM     36  C   LIG    1      -32.746  79.137  26.845  0.00  0.00    +0.162 C 
ATOM     37  C   LIG    1      -33.428  78.639  28.101  0.00  0.00    +0.057 C 
ENDBRANCH  32  33
BRANCH  31  38
ATOM     38  O   LIG    1      -35.670  75.038  27.340  0.00  0.00    -0.491 OA
ATOM     39  H   LIG    1      -35.355  74.395  26.699  0.00  0.00    +0.294 HD
ENDBRANCH  31  38
ENDBRANCH   1  31
TORSDOF 7
ENDMDL
MODEL 4
REMARK VINA RESULT:      -6.5      3.033      4.220
REMARK  Name = pdb/CHEMBL3898652.pdb
REMARK                            x       y       z     vdW  Elec       q    Type
REMARK                         _______ _______ _______ _____ _____    ______ ____
ROOT
ATOM      1  C   LIG    1      -38.468  71.372  24.353  0.00  0.00    +0.149 A 
ATOM      2  N   LIG    1      -39.412  72.108  23.755  0.00  0.00    -0.160 NA
ATOM      3  N   LIG    1      -39.304  73.347  24.282  0.00  0.00    -0.218 N 
ATOM      4  C   LIG    1      -38.142  73.468  25.053  0.00  0.00    +0.129 A 
ATOM      5  C   LIG    1      -37.667  72.179  25.191  0.00  0.00    +0.078 A 
ENDROOT
BRANCH   3   6
ATOM      6  C   LIG    1      -40.288  74.310  23.927  0.00  0.00    +0.067 A 
ATOM      7  C   LIG    1      -40.079  75.682  24.090  0.00  0.00    +0.028 A 
ATOM      8  C   LIG    1      -41.109  76.578  23.772  0.00  0.00    +0.002 A 
ATOM      9  C   LIG    1      -42.334  76.115  23.285  0.00  0.00    +0.000 A 
ATOM     10  C   LIG    1      -42.550  74.749  23.134  0.00  0.00    +0.002 A 
ATOM     11  C   LIG    1      -41.539  73.850  23.470  0.00  0.00    +0.028 A 
ENDBRANCH   3   6
BRANCH   4  12
ATOM     12  N   LIG    1      -37.519  74.634  25.526  0.00  0.00    -0.266 N 
ATOM     13  H   LIG    1      -36.816  75.071  24.945  0.00  0.00    +0.157 HD
ATOM     14  C   LIG    1      -37.721  75.124  26.878  0.00  0.00    +0.251 C 
ATOM     15  O   LIG    1      -38.433  74.528  27.658  0.00  0.00    -0.270 OA
BRANCH  14  16
ATOM     16  C   LIG    1      -36.941  76.304  27.338  0.00  0.00    +0.056 A 
ATOM     17  C   LIG    1      -37.382  77.617  27.211  0.00  0.00    +0.054 A 
ATOM     18 CL   LIG    1      -38.940  78.043  26.602  0.00  0.00    -0.083 Cl
ATOM     19  C   LIG    1      -36.543  78.663  27.595  0.00  0.00    +0.041 A 
ATOM     20  C   LIG    1      -35.264  78.416  28.123  0.00  0.00    +0.052 A 
ATOM     21 CL   LIG    1      -34.268  79.825  28.282  0.00  0.00    -0.083 Cl
ATOM     22  C   LIG    1      -34.820  77.105  28.385  0.00  0.00    +0.022 A 
ATOM     23  C   LIG    1      -35.685  76.063  27.951  0.00  0.00    +0.026 A 
BRANCH  22  24
ATOM     24  C   LIG    1      -33.524  76.754  29.038  0.00  0.00    +0.107 A 
ATOM     25  C   LIG    1      -32.272  76.815  28.415  0.00  0.00    +0.149 A 
ATOM     26  F   LIG    1      -32.119  77.305  27.177  0.00  0.00    -0.203 F 
ATOM     27  C   LIG    1      -31.126  76.414  29.095  0.00  0.00    +0.042 A 
ATOM     28  C   LIG    1      -31.225  76.030  30.422  0.00  0.00    +0.023 A 
ATOM     29  C   LIG    1      -32.479  76.062  31.010  0.00  0.00    +0.111 A 
ATOM     30  N   LIG    1      -33.620  76.398  30.352  0.00  0.00    -0.252 NA
ENDBRANCH  22  24
ENDBRANCH  14  16
ENDBRANCH   4  12
BRANCH   1  31
ATOM     31  C   LIG    1      -38.340  69.942  24.086  0.00  0.00    +0.236 C 
ATOM     32  N   LIG    1      -37.263  69.476  23.568  0.00  0.00    -0.243 NA
BRANCH  32  33
ATOM     33  C   LIG    1      -37.061  68.049  23.303  0.00  0.00    +0.137 C 
ATOM     34  C   LIG    1      -36.053  67.822  22.176  0.00  0.00    +0.186 C 
ATOM     35  O   LIG    1      -34.737  67.807  22.756  0.00  0.00    -0.378 OA
ATOM     36  C   LIG    1      -34.875  67.784  24.183  0.00  0.00    +0.162 C 
ATOM     37  C   LIG    1      -36.317  67.427  24.471  0.00  0.00    +0.057 C 
ENDBRANCH  32  33
BRANCH  31  38
ATOM     38  O   LIG    1      -39.429  69.227  24.440  0.00  0.00    -0.491 OA
ATOM     39  H   LIG    1      -39.316  68.723  25.249  0.00  0.00    +0.294 HD
ENDBRANCH  31  38
ENDBRANCH   1  31
TORSDOF 7
ENDMDL
MODEL 5
REMARK VINA RESULT:      -6.5      4.699     10.043
REMARK  Name = pdb/CHEMBL3898652.pdb
REMARK                            x       y       z     vdW  Elec       q    Type
REMARK                         _______ _______ _______ _____ _____    ______ ____
ROOT
ATOM      1  C   LIG    1      -37.398  77.202  26.708  0.00  0.00    +0.149 A 
ATOM      2  N   LIG    1      -38.691  77.496  26.526  0.00  0.00    -0.160 NA
ATOM      3  N   LIG    1      -39.132  76.648  25.570  0.00  0.00    -0.218 N 
ATOM      4  C   LIG    1      -38.183  75.655  25.301  0.00  0.00    +0.129 A 
ATOM      5  C   LIG    1      -37.034  76.071  25.943  0.00  0.00    +0.078 A 
ENDROOT
BRANCH   3   6
ATOM      6  C   LIG    1      -40.451  76.834  25.072  0.00  0.00    +0.067 A 
ATOM      7  C   LIG    1      -41.513  77.203  25.900  0.00  0.00    +0.028 A 
ATOM      8  C   LIG    1      -42.801  77.317  25.358  0.00  0.00    +0.002 A 
ATOM      9  C   LIG    1      -43.029  77.077  24.001  0.00  0.00    +0.000 A 
ATOM     10  C   LIG    1      -41.976  76.696  23.176  0.00  0.00    +0.002 A 
ATOM     11  C   LIG    1      -40.696  76.557  23.712  0.00  0.00    +0.028 A 
ENDBRANCH   3   6
BRANCH   4  12
ATOM     12  N   LIG    1      -38.350  74.446  24.607  0.00  0.00    -0.266 N 
ATOM     13  H   LIG    1      -38.079  74.411  23.633  0.00  0.00    +0.157 HD
ATOM     14  C   LIG    1      -39.053  73.314  25.184  0.00  0.00    +0.251 C 
ATOM     15  O   LIG    1      -39.536  73.379  26.294  0.00  0.00    -0.270 OA
BRANCH  14  16
ATOM     16  C   LIG    1      -39.283  72.107  24.344  0.00  0.00    +0.056 A 
ATOM     17  C   LIG    1      -40.455  71.873  23.633  0.00  0.00    +0.054 A 
ATOM     18 CL   LIG    1      -41.756  73.003  23.547  0.00  0.00    -0.083 Cl
ATOM     19  C   LIG    1      -40.609  70.672  22.942  0.00  0.00    +0.041 A 
ATOM     20  C   LIG    1      -39.596  69.698  22.935  0.00  0.00    +0.052 A 
ATOM     21 CL   LIG    1      -40.070  68.173  22.263  0.00  0.00    -0.083 Cl
ATOM     22  C   LIG    1      -38.345  69.939  23.535  0.00  0.00    +0.022 A 
ATOM     23  C   LIG    1      -38.233  71.157  24.260  0.00  0.00    +0.026 A 
BRANCH  22  24
ATOM     24  C   LIG    1      -37.179  69.008  23.488  0.00  0.00    +0.107 A 
ATOM     25  C   LIG    1      -36.618  68.485  22.317  0.00  0.00    +0.149 A 
ATOM     26  F   LIG    1      -37.029  68.871  21.101  0.00  0.00    -0.203 F 
ATOM     27  C   LIG    1      -35.563  67.581  22.382  0.00  0.00    +0.042 A 
ATOM     28  C   LIG    1      -35.019  67.263  23.616  0.00  0.00    +0.023 A 
ATOM     29  C   LIG    1      -35.565  67.867  24.736  0.00  0.00    +0.111 A 
ATOM     30  N   LIG    1      -36.630  68.712  24.702  0.00  0.00    -0.252 NA
ENDBRANCH  22  24
ENDBRANCH  14  16
ENDBRANCH   4  12
BRANCH   1  31
ATOM     31  C   LIG    1      -36.567  77.980  27.621  0.00  0.00    +0.236 C 
ATOM     32  N   LIG    1      -35.290  77.971  27.498  0.00  0.00    -0.243 NA
BRANCH  32  33
ATOM     33  C   LIG    1      -34.402  78.753  28.362  0.00  0.00    +0.137 C 
ATOM     34  C   LIG    1      -33.156  77.959  28.757  0.00  0.00    +0.186 C 
ATOM     35  O   LIG    1      -32.168  78.145  27.729  0.00  0.00    -0.378 OA
ATOM     36  C   LIG    1      -32.631  79.172  26.842  0.00  0.00    +0.162 C 
ATOM     37  C   LIG    1      -33.774  79.870  27.549  0.00  0.00    +0.057 C 
ENDBRANCH  32  33
BRANCH  31  38
ATOM     38  O   LIG    1      -37.274  78.668  28.542  0.00  0.00    -0.491 OA
ATOM     39  H   LIG    1      -38.126  78.978  28.225  0.00  0.00    +0.294 HD
ENDBRANCH  31  38
ENDBRANCH   1  31
TORSDOF 7
ENDMDL
MODEL 6
REMARK VINA RESULT:      -6.4      4.272      9.932
REMARK  Name = pdb/CHEMBL3898652.pdb
REMARK                            x       y       z     vdW  Elec       q    Type
REMARK                         _______ _______ _______ _____ _____    ______ ____
ROOT
ATOM      1  C   LIG    1      -38.030  77.286  26.224  0.00  0.00    +0.149 A 
ATOM      2  N   LIG    1      -39.253  76.990  25.765  0.00  0.00    -0.160 NA
ATOM      3  N   LIG    1      -39.116  75.844  25.063  0.00  0.00    -0.218 N 
ATOM      4  C   LIG    1      -37.851  75.279  25.260  0.00  0.00    +0.129 A 
ATOM      5  C   LIG    1      -37.120  76.253  25.910  0.00  0.00    +0.078 A 
ENDROOT
BRANCH   3   6
ATOM      6  C   LIG    1      -40.243  75.370  24.337  0.00  0.00    +0.067 A 
ATOM      7  C   LIG    1      -40.478  74.008  24.134  0.00  0.00    +0.028 A 
ATOM      8  C   LIG    1      -41.577  73.606  23.362  0.00  0.00    +0.002 A 
ATOM      9  C   LIG    1      -42.444  74.551  22.806  0.00  0.00    +0.000 A 
ATOM     10  C   LIG    1      -42.206  75.908  22.995  0.00  0.00    +0.002 A 
ATOM     11  C   LIG    1      -41.101  76.317  23.741  0.00  0.00    +0.028 A 
ENDBRANCH   3   6
BRANCH   4  12
ATOM     12  N   LIG    1      -37.412  73.980  24.956  0.00  0.00    -0.266 N 
ATOM     13  H   LIG    1      -37.104  73.788  24.012  0.00  0.00    +0.157 HD
ATOM     14  C   LIG    1      -37.553  72.878  25.890  0.00  0.00    +0.251 C 
ATOM     15  O   LIG    1      -38.071  73.041  26.974  0.00  0.00    -0.270 OA
BRANCH  14  16
ATOM     16  C   LIG    1      -37.163  71.511  25.451  0.00  0.00    +0.056 A 
ATOM     17  C   LIG    1      -36.061  70.824  25.952  0.00  0.00    +0.054 A 
ATOM     18 CL   LIG    1      -35.064  71.426  27.225  0.00  0.00    -0.083 Cl
ATOM     19  C   LIG    1      -35.727  69.581  25.417  0.00  0.00    +0.041 A 
ATOM     20  C   LIG    1      -36.492  68.998  24.391  0.00  0.00    +0.052 A 
ATOM     21 CL   LIG    1      -35.774  67.596  23.668  0.00  0.00    -0.083 Cl
ATOM     22  C   LIG    1      -37.684  69.594  23.937  0.00  0.00    +0.022 A 
ATOM     23  C   LIG    1      -37.977  70.877  24.479  0.00  0.00    +0.026 A 
BRANCH  22  24
ATOM     24  C   LIG    1      -38.610  68.998  22.930  0.00  0.00    +0.107 A 
ATOM     25  C   LIG    1      -38.351  68.911  21.557  0.00  0.00    +0.149 A 
ATOM     26  F   LIG    1      -37.172  69.273  21.034  0.00  0.00    -0.203 F 
ATOM     27  C   LIG    1      -39.305  68.384  20.691  0.00  0.00    +0.042 A 
ATOM     28  C   LIG    1      -40.482  67.873  21.211  0.00  0.00    +0.023 A 
ATOM     29  C   LIG    1      -40.653  67.917  22.585  0.00  0.00    +0.111 A 
ATOM     30  N   LIG    1      -39.761  68.475  23.445  0.00  0.00    -0.252 NA
ENDBRANCH  22  24
ENDBRANCH  14  16
ENDBRANCH   4  12
BRANCH   1  31
ATOM     31  C   LIG    1      -37.779  78.516  26.968  0.00  0.00    +0.236 C 
ATOM     32  N   LIG    1      -36.688  78.659  27.629  0.00  0.00    -0.243 NA
BRANCH  32  33
ATOM     33  C   LIG    1      -36.362  79.880  28.371  0.00  0.00    +0.137 C 
ATOM     34  C   LIG    1      -35.380  79.603  29.510  0.00  0.00    +0.186 C 
ATOM     35  O   LIG    1      -34.048  79.682  28.974  0.00  0.00    -0.378 OA
ATOM     36  C   LIG    1      -34.129  80.207  27.643  0.00  0.00    +0.162 C 
ATOM     37  C   LIG    1      -35.519  80.786  27.492  0.00  0.00    +0.057 C 
ENDBRANCH  32  33
BRANCH  31  38
ATOM     38  O   LIG    1      -38.774  79.422  26.868  0.00  0.00    -0.491 OA
ATOM     39  H   LIG    1      -38.876  79.791  25.987  0.00  0.00    +0.294 HD
ENDBRANCH  31  38
ENDBRANCH   1  31
TORSDOF 7
ENDMDL
MODEL 7
REMARK VINA RESULT:      -6.4      8.890     15.757
REMARK  Name = pdb/CHEMBL3898652.pdb
REMARK                            x       y       z     vdW  Elec       q    Type
REMARK                         _______ _______ _______ _____ _____    ______ ____
ROOT
ATOM      1  C   LIG    1      -31.122  87.156  30.941  0.00  0.00    +0.149 A 
ATOM      2  N   LIG    1      -32.219  87.903  30.765  0.00  0.00    -0.160 NA
ATOM      3  N   LIG    1      -33.033  87.181  29.965  0.00  0.00    -0.218 N 
ATOM      4  C   LIG    1      -32.559  85.873  29.811  0.00  0.00    +0.129 A 
ATOM      5  C   LIG    1      -31.284  85.889  30.340  0.00  0.00    +0.078 A 
ENDROOT
BRANCH   3   6
ATOM      6  C   LIG    1      -34.224  87.800  29.494  0.00  0.00    +0.067 A 
ATOM      7  C   LIG    1      -35.485  87.457  29.988  0.00  0.00    +0.028 A 
ATOM      8  C   LIG    1      -36.626  88.064  29.444  0.00  0.00    +0.002 A 
ATOM      9  C   LIG    1      -36.513  89.013  28.425  0.00  0.00    +0.000 A 
ATOM     10  C   LIG    1      -35.260  89.347  27.922  0.00  0.00    +0.002 A 
ATOM     11  C   LIG    1      -34.122  88.731  28.441  0.00  0.00    +0.028 A 
ENDBRANCH   3   6
BRANCH   4  12
ATOM     12  N   LIG    1      -33.234  84.747  29.311  0.00  0.00    -0.266 N 
ATOM     13  H   LIG    1      -33.202  84.573  28.316  0.00  0.00    +0.157 HD
ATOM     14  C   LIG    1      -34.109  83.939  30.142  0.00  0.00    +0.251 C 
ATOM     15  O   LIG    1      -34.298  84.220  31.306  0.00  0.00    -0.270 OA
BRANCH  14  16
ATOM     16  C   LIG    1      -34.872  82.828  29.512  0.00  0.00    +0.056 A 
ATOM     17  C   LIG    1      -36.252  82.837  29.346  0.00  0.00    +0.054 A 
ATOM     18 CL   LIG    1      -37.250  84.185  29.753  0.00  0.00    -0.083 Cl
ATOM     19  C   LIG    1      -36.887  81.712  28.821  0.00  0.00    +0.041 A 
ATOM     20  C   LIG    1      -36.157  80.573  28.440  0.00  0.00    +0.052 A 
ATOM     21 CL   LIG    1      -37.128  79.185  28.074  0.00  0.00    -0.083 Cl
ATOM     22  C   LIG    1      -34.749  80.561  28.473  0.00  0.00    +0.022 A 
ATOM     23  C   LIG    1      -34.136  81.710  29.045  0.00  0.00    +0.026 A 
BRANCH  22  24
ATOM     24  C   LIG    1      -33.890  79.438  27.992  0.00  0.00    +0.107 A 
ATOM     25  C   LIG    1      -33.731  78.213  28.651  0.00  0.00    +0.149 A 
ATOM     26  F   LIG    1      -34.437  77.900  29.746  0.00  0.00    -0.203 F 
ATOM     27  C   LIG    1      -32.864  77.249  28.146  0.00  0.00    +0.042 A 
ATOM     28  C   LIG    1      -32.220  77.481  26.942  0.00  0.00    +0.023 A 
ATOM     29  C   LIG    1      -32.474  78.679  26.296  0.00  0.00    +0.111 A 
ATOM     30  N   LIG    1      -33.274  79.658  26.794  0.00  0.00    -0.252 NA
ENDBRANCH  22  24
ENDBRANCH  14  16
ENDBRANCH   4  12
BRANCH   1  31
ATOM     31  C   LIG    1      -29.978  87.659  31.696  0.00  0.00    +0.236 C 
ATOM     32  N   LIG    1      -30.003  87.665  32.978  0.00  0.00    -0.243 NA
BRANCH  32  33
ATOM     33  C   LIG    1      -28.877  88.127  33.794  0.00  0.00    +0.137 C 
ATOM     34  C   LIG    1      -29.308  88.431  35.229  0.00  0.00    +0.186 C 
ATOM     35  O   LIG    1      -29.232  87.208  35.982  0.00  0.00    -0.378 OA
ATOM     36  C   LIG    1      -28.574  86.223  35.174  0.00  0.00    +0.162 C 
ATOM     37  C   LIG    1      -27.924  86.969  34.028  0.00  0.00    +0.057 C 
ENDBRANCH  32  33
BRANCH  31  38
ATOM     38  O   LIG    1      -28.959  88.078  30.917  0.00  0.00    -0.491 OA
ATOM     39  H   LIG    1      -28.114  88.121  31.372  0.00  0.00    +0.294 HD
ENDBRANCH  31  38
ENDBRANCH   1  31
TORSDOF 7
ENDMDL
MODEL 8
REMARK VINA RESULT:      -6.3      1.956      2.596
REMARK  Name = pdb/CHEMBL3898652.pdb
REMARK                            x       y       z     vdW  Elec       q    Type
REMARK                         _______ _______ _______ _____ _____    ______ ____
ROOT
ATOM      1  C   LIG    1      -37.119  68.529  23.225  0.00  0.00    +0.149 A 
ATOM      2  N   LIG    1      -37.771  69.680  23.021  0.00  0.00    -0.160 NA
ATOM      3  N   LIG    1      -37.726  70.344  24.197  0.00  0.00    -0.218 N 
ATOM      4  C   LIG    1      -36.847  69.723  25.093  0.00  0.00    +0.129 A 
ATOM      5  C   LIG    1      -36.547  68.506  24.516  0.00  0.00    +0.078 A 
ENDROOT
BRANCH   3   6
ATOM      6  C   LIG    1      -38.471  71.550  24.311  0.00  0.00    +0.067 A 
ATOM      7  C   LIG    1      -39.783  71.659  23.845  0.00  0.00    +0.028 A 
ATOM      8  C   LIG    1      -40.446  72.892  23.936  0.00  0.00    +0.002 A 
ATOM      9  C   LIG    1      -39.812  74.004  24.497  0.00  0.00    +0.000 A 
ATOM     10  C   LIG    1      -38.501  73.902  24.949  0.00  0.00    +0.002 A 
ATOM     11  C   LIG    1      -37.826  72.686  24.840  0.00  0.00    +0.028 A 
ENDBRANCH   3   6
BRANCH   4  12
ATOM     12  N   LIG    1      -36.303  70.231  26.284  0.00  0.00    -0.266 N 
ATOM     13  H   LIG    1      -36.919  70.361  27.075  0.00  0.00    +0.157 HD
ATOM     14  C   LIG    1      -34.943  70.735  26.358  0.00  0.00    +0.251 C 
ATOM     15  O   LIG    1      -34.227  70.746  25.380  0.00  0.00    -0.270 OA
BRANCH  14  16
ATOM     16  C   LIG    1      -34.477  71.357  27.627  0.00  0.00    +0.056 A 
ATOM     17  C   LIG    1      -34.354  70.664  28.827  0.00  0.00    +0.054 A 
ATOM     18 CL   LIG    1      -34.624  68.966  28.975  0.00  0.00    -0.083 Cl
ATOM     19  C   LIG    1      -33.989  71.352  29.983  0.00  0.00    +0.041 A 
ATOM     20  C   LIG    1      -33.727  72.733  29.958  0.00  0.00    +0.052 A 
ATOM     21 CL   LIG    1      -33.562  73.462  31.521  0.00  0.00    -0.083 Cl
ATOM     22  C   LIG    1      -33.717  73.455  28.748  0.00  0.00    +0.022 A 
ATOM     23  C   LIG    1      -34.127  72.731  27.595  0.00  0.00    +0.026 A 
BRANCH  22  24
ATOM     24  C   LIG    1      -33.350  74.895  28.613  0.00  0.00    +0.107 A 
ATOM     25  C   LIG    1      -32.131  75.452  29.018  0.00  0.00    +0.149 A 
ATOM     26  F   LIG    1      -31.125  74.696  29.478  0.00  0.00    -0.203 F 
ATOM     27  C   LIG    1      -31.905  76.820  28.897  0.00  0.00    +0.042 A 
ATOM     28  C   LIG    1      -32.869  77.615  28.299  0.00  0.00    +0.023 A 
ATOM     29  C   LIG    1      -34.024  76.998  27.849  0.00  0.00    +0.111 A 
ATOM     30  N   LIG    1      -34.290  75.674  28.004  0.00  0.00    -0.252 NA
ENDBRANCH  22  24
ENDBRANCH  14  16
ENDBRANCH   4  12
BRANCH   1  31
ATOM     31  C   LIG    1      -37.037  67.511  22.182  0.00  0.00    +0.236 C 
ATOM     32  N   LIG    1      -35.904  66.995  21.872  0.00  0.00    -0.243 NA
BRANCH  32  33
ATOM     33  C   LIG    1      -35.757  65.949  20.857  0.00  0.00    +0.137 C 
ATOM     34  C   LIG    1      -35.477  66.540  19.475  0.00  0.00    +0.186 C 
ATOM     35  O   LIG    1      -34.057  66.728  19.354  0.00  0.00    -0.378 OA
ATOM     36  C   LIG    1      -33.422  66.091  20.470  0.00  0.00    +0.162 C 
ATOM     37  C   LIG    1      -34.463  65.194  21.104  0.00  0.00    +0.057 C 
ENDBRANCH  32  33
BRANCH  31  38
ATOM     38  O   LIG    1      -38.230  67.203  21.632  0.00  0.00    -0.491 OA
ATOM     39  H   LIG    1      -38.688  67.957  21.251  0.00  0.00    +0.294 HD
ENDBRANCH  31  38
ENDBRANCH   1  31
TORSDOF 7
ENDMDL
MODEL 9
REMARK VINA RESULT:      -6.2     15.275     19.747
REMARK  Name = pdb/CHEMBL3898652.pdb
REMARK                            x       y       z     vdW  Elec       q    Type
REMARK                         _______ _______ _______ _____ _____    ______ ____
ROOT
ATOM      1  C   LIG    1      -25.239  83.123  37.316  0.00  0.00    +0.149 A 
ATOM      2  N   LIG    1      -24.172  83.549  38.003  0.00  0.00    -0.160 NA
ATOM      3  N   LIG    1      -23.257  82.558  37.915  0.00  0.00    -0.218 N 
ATOM      4  C   LIG    1      -23.649  81.592  36.981  0.00  0.00    +0.129 A 
ATOM      5  C   LIG    1      -24.962  81.893  36.681  0.00  0.00    +0.078 A 
ENDROOT
BRANCH   3   6
ATOM      6  C   LIG    1      -22.066  82.682  38.680  0.00  0.00    +0.067 A 
ATOM      7  C   LIG    1      -20.967  83.420  38.231  0.00  0.00    +0.028 A 
ATOM      8  C   LIG    1      -19.800  83.459  39.008  0.00  0.00    +0.002 A 
ATOM      9  C   LIG    1      -19.730  82.780  40.227  0.00  0.00    +0.000 A 
ATOM     10  C   LIG    1      -20.817  82.034  40.670  0.00  0.00    +0.002 A 
ATOM     11  C   LIG    1      -21.973  81.970  39.893  0.00  0.00    +0.028 A 
ENDBRANCH   3   6
BRANCH   4  12
ATOM     12  N   LIG    1      -22.877  80.577  36.391  0.00  0.00    -0.266 N 
ATOM     13  H   LIG    1      -22.997  79.630  36.723  0.00  0.00    +0.157 HD
ATOM     14  C   LIG    1      -21.803  80.867  35.458  0.00  0.00    +0.251 C 
ATOM     15  O   LIG    1      -21.524  82.010  35.162  0.00  0.00    -0.270 OA
BRANCH  14  16
ATOM     16  C   LIG    1      -20.962  79.745  34.961  0.00  0.00    +0.056 A 
ATOM     17  C   LIG    1      -19.735  79.395  35.515  0.00  0.00    +0.054 A 
ATOM     18 CL   LIG    1      -19.078  80.150  36.921  0.00  0.00    -0.083 Cl
ATOM     19  C   LIG    1      -18.980  78.382  34.926  0.00  0.00    +0.041 A 
ATOM     20  C   LIG    1      -19.442  77.694  33.790  0.00  0.00    +0.052 A 
ATOM     21 CL   LIG    1      -18.261  76.672  33.040  0.00  0.00    -0.083 Cl
ATOM     22  C   LIG    1      -20.728  77.926  33.267  0.00  0.00    +0.022 A 
ATOM     23  C   LIG    1      -21.457  78.988  33.869  0.00  0.00    +0.026 A 
BRANCH  22  24
ATOM     24  C   LIG    1      -21.340  77.172  32.132  0.00  0.00    +0.107 A 
ATOM     25  C   LIG    1      -21.125  77.452  30.777  0.00  0.00    +0.149 A 
ATOM     26  F   LIG    1      -20.246  78.381  30.376  0.00  0.00    -0.203 F 
ATOM     27  C   LIG    1      -21.785  76.723  29.793  0.00  0.00    +0.042 A 
ATOM     28  C   LIG    1      -22.596  75.664  30.165  0.00  0.00    +0.023 A 
ATOM     29  C   LIG    1      -22.712  75.385  31.516  0.00  0.00    +0.111 A 
ATOM     30  N   LIG    1      -22.121  76.115  32.498  0.00  0.00    -0.252 NA
ENDBRANCH  22  24
ENDBRANCH  14  16
ENDBRANCH   4  12
BRANCH   1  31
ATOM     31  C   LIG    1      -26.467  83.912  37.261  0.00  0.00    +0.236 C 
ATOM     32  N   LIG    1      -26.617  84.810  36.357  0.00  0.00    -0.243 NA
BRANCH  32  33
ATOM     33  C   LIG    1      -27.836  85.614  36.229  0.00  0.00    +0.137 C 
ATOM     34  C   LIG    1      -27.779  86.867  37.103  0.00  0.00    +0.186 C 
ATOM     35  O   LIG    1      -27.127  87.903  36.349  0.00  0.00    -0.378 OA
ATOM     36  C   LIG    1      -26.978  87.448  34.997  0.00  0.00    +0.162 C 
ATOM     37  C   LIG    1      -27.876  86.239  34.847  0.00  0.00    +0.057 C 
ENDBRANCH  32  33
BRANCH  31  38
ATOM     38  O   LIG    1      -27.362  83.585  38.217  0.00  0.00    -0.491 OA
ATOM     39  H   LIG    1      -27.987  84.286  38.419  0.00  0.00    +0.294 HD
ENDBRANCH  31  38
ENDBRANCH   1  31
TORSDOF 7
ENDMDL
