MODEL 1
REMARK VINA RESULT:      -7.6      0.000      0.000
REMARK  Name = pdb/CHEMBL2037224.pdb
REMARK                            x       y       z     vdW  Elec       q    Type
REMARK                         _______ _______ _______ _____ _____    ______ ____
ROOT
ATOM      1  C   LIG    1      -38.754  74.452  24.616  0.00  0.00    +0.037 A 
ATOM      2  C   LIG    1      -38.680  73.054  24.674  0.00  0.00    +0.046 A 
ATOM      3  C   LIG    1      -39.781  72.239  24.333  0.00  0.00    +0.033 A 
ATOM      4  C   LIG    1      -40.935  72.846  23.832  0.00  0.00    +0.023 A 
ATOM      5  C   LIG    1      -41.031  74.233  23.791  0.00  0.00    +0.004 A 
ATOM      6  C   LIG    1      -39.959  75.026  24.207  0.00  0.00    +0.023 A 
ENDROOT
BRANCH   1  10
ATOM      7  N   LIG    1      -36.028  76.283  26.266  0.00  0.00    -0.269 N 
ATOM      8  H   LIG    1      -35.618  76.528  25.377  0.00  0.00    +0.156 HD
ATOM      9  C   LIG    1      -37.197  75.532  26.248  0.00  0.00    +0.308 C 
ATOM     10  N   LIG    1      -37.597  75.202  24.961  0.00  0.00    -0.269 N 
ATOM     11  H   LIG    1      -37.059  75.571  24.192  0.00  0.00    +0.156 HD
ATOM     12  O   LIG    1      -37.801  75.190  27.256  0.00  0.00    -0.252 OA
BRANCH   7  15
ATOM     13  C   LIG    1      -33.498  76.551  28.992  0.00  0.00    +0.057 A 
ATOM     14  C   LIG    1      -34.220  76.099  27.866  0.00  0.00    +0.035 A 
ATOM     15  C   LIG    1      -35.370  76.769  27.426  0.00  0.00    +0.035 A 
ATOM     16  C   LIG    1      -35.797  77.888  28.150  0.00  0.00    +0.023 A 
ATOM     17  C   LIG    1      -35.095  78.344  29.266  0.00  0.00    +0.002 A 
ATOM     18  C   LIG    1      -33.947  77.684  29.684  0.00  0.00    +0.012 A 
BRANCH  13  20
ATOM     19  F   LIG    1      -32.055  75.857  30.786  0.00  0.00    -0.166 F 
ATOM     20  C   LIG    1      -32.251  75.830  29.438  0.00  0.00    +0.417 C 
ATOM     21  F   LIG    1      -32.258  74.513  29.088  0.00  0.00    -0.166 F 
ATOM     22  F   LIG    1      -31.123  76.356  28.887  0.00  0.00    -0.166 F 
ENDBRANCH  13  20
ENDBRANCH   7  15
ENDBRANCH   1  10
BRANCH   3  23
ATOM     23  N   LIG    1      -39.711  70.825  24.414  0.00  0.00    -0.314 N 
ATOM     24  H   LIG    1      -39.632  70.504  25.377  0.00  0.00    +0.152 HD
BRANCH  23  25
ATOM     25  C   LIG    1      -38.944  69.988  23.567  0.00  0.00    +0.033 A 
ATOM     26  C   LIG    1      -37.688  69.510  23.958  0.00  0.00    +0.047 A 
ATOM     27  C   LIG    1      -36.975  68.757  23.057  0.00  0.00    +0.043 A 
ATOM     28  N   LIG    1      -35.687  68.281  23.233  0.00  0.00    -0.281 N 
ATOM     29  H   LIG    1      -35.114  68.403  24.054  0.00  0.00    +0.155 HD
ATOM     30  C   LIG    1      -35.247  67.599  22.116  0.00  0.00    +0.249 C 
ATOM     31  O   LIG    1      -34.179  67.055  22.002  0.00  0.00    -0.270 OA
ATOM     32  C   LIG    1      -36.397  67.662  21.127  0.00  0.00    +0.048 C 
ATOM     33  C   LIG    1      -36.474  67.209  19.869  0.00  0.00    +0.039 C 
ATOM     34  C   LIG    1      -37.473  68.407  21.799  0.00  0.00    +0.008 A 
ATOM     35  C   LIG    1      -38.744  68.803  21.427  0.00  0.00    +0.012 A 
ATOM     36  C   LIG    1      -39.480  69.596  22.321  0.00  0.00    +0.024 A 
BRANCH  33  37
ATOM     37  C   LIG    1      -35.452  66.567  19.124  0.00  0.00    +0.040 A 
ATOM     38  N   LIG    1      -34.985  65.320  19.463  0.00  0.00    -0.361 N 
ATOM     39  H   LIG    1      -35.261  64.797  20.287  0.00  0.00    +0.165 HD
ATOM     40  C   LIG    1      -33.988  64.939  18.605  0.00  0.00    +0.083 A 
ATOM     41  C   LIG    1      -33.832  65.935  17.671  0.00  0.00    +0.019 A 
ATOM     42  C   LIG    1      -34.764  66.954  17.986  0.00  0.00    +0.027 A 
ENDBRANCH  33  37
ENDBRANCH  23  25
ENDBRANCH   3  23
TORSDOF 6
ENDMDL
MODEL 2
REMARK VINA RESULT:      -7.4      1.710      2.140
REMARK  Name = pdb/CHEMBL2037224.pdb
REMARK                            x       y       z     vdW  Elec       q    Type
REMARK                         _______ _______ _______ _____ _____    ______ ____
ROOT
ATOM      1  C   LIG    1      -38.663  74.528  24.681  0.00  0.00    +0.037 A 
ATOM      2  C   LIG    1      -38.655  73.128  24.719  0.00  0.00    +0.046 A 
ATOM      3  C   LIG    1      -39.782  72.370  24.335  0.00  0.00    +0.033 A 
ATOM      4  C   LIG    1      -40.893  73.037  23.814  0.00  0.00    +0.023 A 
ATOM      5  C   LIG    1      -40.924  74.428  23.794  0.00  0.00    +0.004 A 
ATOM      6  C   LIG    1      -39.829  75.164  24.250  0.00  0.00    +0.023 A 
ENDROOT
BRANCH   1  10
ATOM      7  N   LIG    1      -35.929  76.256  26.426  0.00  0.00    -0.269 N 
ATOM      8  H   LIG    1      -35.450  76.435  25.556  0.00  0.00    +0.156 HD
ATOM      9  C   LIG    1      -37.141  75.580  26.365  0.00  0.00    +0.308 C 
ATOM     10  N   LIG    1      -37.483  75.219  25.069  0.00  0.00    -0.269 N 
ATOM     11  H   LIG    1      -36.875  75.519  24.321  0.00  0.00    +0.156 HD
ATOM     12  O   LIG    1      -37.826  75.322  27.345  0.00  0.00    -0.252 OA
BRANCH   7  15
ATOM     13  C   LIG    1      -34.853  78.673  29.054  0.00  0.00    +0.057 A 
ATOM     14  C   LIG    1      -35.414  78.122  27.881  0.00  0.00    +0.035 A 
ATOM     15  C   LIG    1      -35.312  76.751  27.605  0.00  0.00    +0.035 A 
ATOM     16  C   LIG    1      -34.617  75.947  28.515  0.00  0.00    +0.023 A 
ATOM     17  C   LIG    1      -34.056  76.479  29.677  0.00  0.00    +0.002 A 
ATOM     18  C   LIG    1      -34.177  77.835  29.950  0.00  0.00    +0.012 A 
BRANCH  13  20
ATOM     19  F   LIG    1      -34.291  80.942  28.488  0.00  0.00    -0.166 F 
ATOM     20  C   LIG    1      -34.991  80.147  29.345  0.00  0.00    +0.417 C 
ATOM     21  F   LIG    1      -36.284  80.572  29.276  0.00  0.00    -0.166 F 
ATOM     22  F   LIG    1      -34.557  80.471  30.594  0.00  0.00    -0.166 F 
ENDBRANCH  13  20
ENDBRANCH   7  15
ENDBRANCH   1  10
BRANCH   3  23
ATOM     23  N   LIG    1      -39.779  70.953  24.395  0.00  0.00    -0.314 N 
ATOM     24  H   LIG    1      -39.759  70.614  25.355  0.00  0.00    +0.152 HD
BRANCH  23  25
ATOM     25  C   LIG    1      -39.012  70.095  23.570  0.00  0.00    +0.033 A 
ATOM     26  C   LIG    1      -37.769  69.604  23.984  0.00  0.00    +0.047 A 
ATOM     27  C   LIG    1      -37.053  68.830  23.104  0.00  0.00    +0.043 A 
ATOM     28  N   LIG    1      -35.775  68.339  23.304  0.00  0.00    -0.281 N 
ATOM     29  H   LIG    1      -35.212  68.462  24.132  0.00  0.00    +0.155 HD
ATOM     30  C   LIG    1      -35.329  67.636  22.202  0.00  0.00    +0.249 C 
ATOM     31  O   LIG    1      -34.267  67.076  22.110  0.00  0.00    -0.270 OA
ATOM     32  C   LIG    1      -36.464  67.703  21.196  0.00  0.00    +0.048 C 
ATOM     33  C   LIG    1      -36.529  67.236  19.943  0.00  0.00    +0.039 C 
ATOM     34  C   LIG    1      -37.538  68.471  21.843  0.00  0.00    +0.008 A 
ATOM     35  C   LIG    1      -38.798  68.881  21.447  0.00  0.00    +0.012 A 
ATOM     36  C   LIG    1      -39.536  69.695  22.321  0.00  0.00    +0.024 A 
BRANCH  33  37
ATOM     37  C   LIG    1      -35.505  66.570  19.220  0.00  0.00    +0.040 A 
ATOM     38  N   LIG    1      -35.083  65.308  19.562  0.00  0.00    -0.361 N 
ATOM     39  H   LIG    1      -35.396  64.787  20.375  0.00  0.00    +0.165 HD
ATOM     40  C   LIG    1      -34.074  64.905  18.728  0.00  0.00    +0.083 A 
ATOM     41  C   LIG    1      -33.865  65.903  17.806  0.00  0.00    +0.019 A 
ATOM     42  C   LIG    1      -34.776  66.945  18.104  0.00  0.00    +0.027 A 
ENDBRANCH  33  37
ENDBRANCH  23  25
ENDBRANCH   3  23
TORSDOF 6
ENDMDL
MODEL 3
REMARK VINA RESULT:      -7.1     18.022     20.942
REMARK  Name = pdb/CHEMBL2037224.pdb
REMARK                            x       y       z     vdW  Elec       q    Type
REMARK                         _______ _______ _______ _____ _____    ______ ____
ROOT
ATOM      1  C   LIG    1      -26.470  77.553  13.874  0.00  0.00    +0.037 A 
ATOM      2  C   LIG    1      -25.949  78.542  14.718  0.00  0.00    +0.046 A 
ATOM      3  C   LIG    1      -24.591  78.547  15.103  0.00  0.00    +0.033 A 
ATOM      4  C   LIG    1      -23.733  77.596  14.546  0.00  0.00    +0.023 A 
ATOM      5  C   LIG    1      -24.241  76.595  13.726  0.00  0.00    +0.004 A 
ATOM      6  C   LIG    1      -25.603  76.560  13.417  0.00  0.00    +0.023 A 
ENDROOT
BRANCH   1  10
ATOM      7  N   LIG    1      -29.738  78.064  12.271  0.00  0.00    -0.269 N 
ATOM      8  H   LIG    1      -30.222  77.726  13.089  0.00  0.00    +0.156 HD
ATOM      9  C   LIG    1      -28.350  78.109  12.320  0.00  0.00    +0.308 C 
ATOM     10  N   LIG    1      -27.845  77.627  13.520  0.00  0.00    -0.269 N 
ATOM     11  H   LIG    1      -28.505  77.357  14.234  0.00  0.00    +0.156 HD
ATOM     12  O   LIG    1      -27.650  78.517  11.403  0.00  0.00    -0.252 OA
BRANCH   7  15
ATOM     13  C   LIG    1      -32.083  80.156  10.263  0.00  0.00    +0.057 A 
ATOM     14  C   LIG    1      -31.287  79.664  11.321  0.00  0.00    +0.035 A 
ATOM     15  C   LIG    1      -30.545  78.483  11.181  0.00  0.00    +0.035 A 
ATOM     16  C   LIG    1      -30.635  77.790   9.969  0.00  0.00    +0.023 A 
ATOM     17  C   LIG    1      -31.419  78.263   8.916  0.00  0.00    +0.002 A 
ATOM     18  C   LIG    1      -32.137  79.443   9.059  0.00  0.00    +0.012 A 
BRANCH  13  20
ATOM     19  F   LIG    1      -33.966  81.316  11.207  0.00  0.00    -0.166 F 
ATOM     20  C   LIG    1      -32.857  81.440  10.425  0.00  0.00    +0.417 C 
ATOM     21  F   LIG    1      -32.110  82.430  10.990  0.00  0.00    -0.166 F 
ATOM     22  F   LIG    1      -33.293  81.935   9.234  0.00  0.00    -0.166 F 
ENDBRANCH  13  20
ENDBRANCH   7  15
ENDBRANCH   1  10
BRANCH   3  23
ATOM     23  N   LIG    1      -24.071  79.536  15.976  0.00  0.00    -0.314 N 
ATOM     24  H   LIG    1      -24.611  79.606  16.836  0.00  0.00    +0.152 HD
BRANCH  23  25
ATOM     25  C   LIG    1      -23.621  80.822  15.589  0.00  0.00    +0.033 A 
ATOM     26  C   LIG    1      -24.061  81.422  14.404  0.00  0.00    +0.047 A 
ATOM     27  C   LIG    1      -23.532  82.642  14.062  0.00  0.00    +0.043 A 
ATOM     28  N   LIG    1      -23.777  83.337  12.890  0.00  0.00    -0.281 N 
ATOM     29  H   LIG    1      -24.395  83.051  12.146  0.00  0.00    +0.155 HD
ATOM     30  C   LIG    1      -23.050  84.510  12.841  0.00  0.00    +0.249 C 
ATOM     31  O   LIG    1      -23.090  85.323  11.953  0.00  0.00    -0.270 OA
ATOM     32  C   LIG    1      -22.256  84.546  14.134  0.00  0.00    +0.048 C 
ATOM     33  C   LIG    1      -21.350  85.436  14.561  0.00  0.00    +0.039 C 
ATOM     34  C   LIG    1      -22.621  83.327  14.871  0.00  0.00    +0.008 A 
ATOM     35  C   LIG    1      -22.236  82.787  16.084  0.00  0.00    +0.012 A 
ATOM     36  C   LIG    1      -22.744  81.528  16.442  0.00  0.00    +0.024 A 
BRANCH  33  37
ATOM     37  C   LIG    1      -20.878  86.580  13.869  0.00  0.00    +0.040 A 
ATOM     38  N   LIG    1      -21.688  87.664  13.629  0.00  0.00    -0.361 N 
ATOM     39  H   LIG    1      -22.678  87.715  13.847  0.00  0.00    +0.165 HD
ATOM     40  C   LIG    1      -21.003  88.620  12.926  0.00  0.00    +0.083 A 
ATOM     41  C   LIG    1      -19.719  88.167  12.741  0.00  0.00    +0.019 A 
ATOM     42  C   LIG    1      -19.634  86.891  13.349  0.00  0.00    +0.027 A 
ENDBRANCH  33  37
ENDBRANCH  23  25
ENDBRANCH   3  23
TORSDOF 6
ENDMDL
MODEL 4
REMARK VINA RESULT:      -7.0     16.444     18.459
REMARK  Name = pdb/CHEMBL2037224.pdb
REMARK                            x       y       z     vdW  Elec       q    Type
REMARK                         _______ _______ _______ _____ _____    ______ ____
ROOT
ATOM      1  C   LIG    1      -27.658  77.563  13.309  0.00  0.00    +0.037 A 
ATOM      2  C   LIG    1      -28.340  78.117  12.217  0.00  0.00    +0.046 A 
ATOM      3  C   LIG    1      -29.016  77.308  11.279  0.00  0.00    +0.033 A 
ATOM      4  C   LIG    1      -29.085  75.931  11.506  0.00  0.00    +0.023 A 
ATOM      5  C   LIG    1      -28.393  75.366  12.572  0.00  0.00    +0.004 A 
ATOM      6  C   LIG    1      -27.664  76.174  13.447  0.00  0.00    +0.023 A 
ENDROOT
BRANCH   1  10
ATOM      7  N   LIG    1      -25.346  79.709  15.194  0.00  0.00    -0.269 N 
ATOM      8  H   LIG    1      -26.058  79.923  15.876  0.00  0.00    +0.156 HD
ATOM      9  C   LIG    1      -25.689  78.849  14.157  0.00  0.00    +0.308 C 
ATOM     10  N   LIG    1      -27.015  78.445  14.218  0.00  0.00    -0.269 N 
ATOM     11  H   LIG    1      -27.565  78.752  15.007  0.00  0.00    +0.156 HD
ATOM     12  O   LIG    1      -24.910  78.496  13.282  0.00  0.00    -0.252 OA
BRANCH   7  15
ATOM     13  C   LIG    1      -22.621  82.254  15.159  0.00  0.00    +0.057 A 
ATOM     14  C   LIG    1      -23.857  81.603  14.953  0.00  0.00    +0.035 A 
ATOM     15  C   LIG    1      -24.069  80.292  15.403  0.00  0.00    +0.035 A 
ATOM     16  C   LIG    1      -23.011  79.637  16.043  0.00  0.00    +0.023 A 
ATOM     17  C   LIG    1      -21.784  80.268  16.252  0.00  0.00    +0.002 A 
ATOM     18  C   LIG    1      -21.589  81.572  15.817  0.00  0.00    +0.012 A 
BRANCH  13  20
ATOM     19  F   LIG    1      -23.138  83.986  13.573  0.00  0.00    -0.166 F 
ATOM     20  C   LIG    1      -22.418  83.672  14.687  0.00  0.00    +0.417 C 
ATOM     21  F   LIG    1      -22.771  84.590  15.630  0.00  0.00    -0.166 F 
ATOM     22  F   LIG    1      -21.119  83.934  14.378  0.00  0.00    -0.166 F 
ENDBRANCH  13  20
ENDBRANCH   7  15
ENDBRANCH   1  10
BRANCH   3  23
ATOM     23  N   LIG    1      -29.687  77.869  10.163  0.00  0.00    -0.314 N 
ATOM     24  H   LIG    1      -29.060  78.004   9.372  0.00  0.00    +0.152 HD
BRANCH  23  25
ATOM     25  C   LIG    1      -30.627  78.927  10.212  0.00  0.00    +0.033 A 
ATOM     26  C   LIG    1      -30.250  80.249   9.951  0.00  0.00    +0.047 A 
ATOM     27  C   LIG    1      -31.203  81.230  10.082  0.00  0.00    +0.043 A 
ATOM     28  N   LIG    1      -30.991  82.593   9.956  0.00  0.00    -0.281 N 
ATOM     29  H   LIG    1      -30.118  83.041   9.726  0.00  0.00    +0.155 HD
ATOM     30  C   LIG    1      -32.151  83.304  10.194  0.00  0.00    +0.249 C 
ATOM     31  O   LIG    1      -32.266  84.501  10.125  0.00  0.00    -0.270 OA
ATOM     32  C   LIG    1      -33.206  82.260  10.510  0.00  0.00    +0.048 C 
ATOM     33  C   LIG    1      -34.487  82.415  10.870  0.00  0.00    +0.039 C 
ATOM     34  C   LIG    1      -32.534  80.956  10.409  0.00  0.00    +0.008 A 
ATOM     35  C   LIG    1      -32.942  79.648  10.593  0.00  0.00    +0.012 A 
ATOM     36  C   LIG    1      -31.980  78.632  10.490  0.00  0.00    +0.024 A 
BRANCH  33  37
ATOM     37  C   LIG    1      -35.178  83.636  11.079  0.00  0.00    +0.040 A 
ATOM     38  N   LIG    1      -35.391  84.530  10.058  0.00  0.00    -0.361 N 
ATOM     39  H   LIG    1      -35.023  84.440   9.116  0.00  0.00    +0.165 HD
ATOM     40  C   LIG    1      -36.055  85.633  10.525  0.00  0.00    +0.083 A 
ATOM     41  C   LIG    1      -36.313  85.435  11.860  0.00  0.00    +0.019 A 
ATOM     42  C   LIG    1      -35.776  84.171  12.207  0.00  0.00    +0.027 A 
ENDBRANCH  33  37
ENDBRANCH  23  25
ENDBRANCH   3  23
TORSDOF 6
ENDMDL
MODEL 5
REMARK VINA RESULT:      -7.0      6.571     12.896
REMARK  Name = pdb/CHEMBL2037224.pdb
REMARK                            x       y       z     vdW  Elec       q    Type
REMARK                         _______ _______ _______ _____ _____    ______ ____
ROOT
ATOM      1  C   LIG    1      -35.547  77.856  27.920  0.00  0.00    +0.037 A 
ATOM      2  C   LIG    1      -36.193  79.098  27.967  0.00  0.00    +0.046 A 
ATOM      3  C   LIG    1      -35.469  80.308  28.019  0.00  0.00    +0.033 A 
ATOM      4  C   LIG    1      -34.076  80.261  27.922  0.00  0.00    +0.023 A 
ATOM      5  C   LIG    1      -33.420  79.035  27.899  0.00  0.00    +0.004 A 
ATOM      6  C   LIG    1      -34.151  77.845  27.927  0.00  0.00    +0.023 A 
ENDROOT
BRANCH   1  10
ATOM      7  N   LIG    1      -37.629  74.987  26.954  0.00  0.00    -0.269 N 
ATOM      8  H   LIG    1      -37.730  74.701  27.916  0.00  0.00    +0.156 HD
ATOM      9  C   LIG    1      -36.881  76.129  26.698  0.00  0.00    +0.308 C 
ATOM     10  N   LIG    1      -36.347  76.683  27.853  0.00  0.00    -0.269 N 
ATOM     11  H   LIG    1      -36.590  76.258  28.735  0.00  0.00    +0.156 HD
ATOM     12  O   LIG    1      -36.704  76.590  25.579  0.00  0.00    -0.252 OA
BRANCH   7  15
ATOM     13  C   LIG    1      -40.112  74.023  24.343  0.00  0.00    +0.057 A 
ATOM     14  C   LIG    1      -39.421  74.742  25.343  0.00  0.00    +0.035 A 
ATOM     15  C   LIG    1      -38.298  74.197  25.982  0.00  0.00    +0.035 A 
ATOM     16  C   LIG    1      -37.895  72.908  25.617  0.00  0.00    +0.023 A 
ATOM     17  C   LIG    1      -38.569  72.185  24.631  0.00  0.00    +0.002 A 
ATOM     18  C   LIG    1      -39.670  72.741  23.992  0.00  0.00    +0.012 A 
BRANCH  13  20
ATOM     19  F   LIG    1      -42.330  74.937  24.495  0.00  0.00    -0.166 F 
ATOM     20  C   LIG    1      -41.304  74.634  23.651  0.00  0.00    +0.417 C 
ATOM     21  F   LIG    1      -40.994  75.795  23.008  0.00  0.00    -0.166 F 
ATOM     22  F   LIG    1      -41.831  73.811  22.703  0.00  0.00    -0.166 F 
ENDBRANCH  13  20
ENDBRANCH   7  15
ENDBRANCH   1  10
BRANCH   3  23
ATOM     23  N   LIG    1      -36.125  81.564  28.089  0.00  0.00    -0.314 N 
ATOM     24  H   LIG    1      -36.657  81.666  28.951  0.00  0.00    +0.152 HD
BRANCH  23  25
ATOM     25  C   LIG    1      -36.814  82.193  27.025  0.00  0.00    +0.033 A 
ATOM     26  C   LIG    1      -38.179  81.972  26.809  0.00  0.00    +0.047 A 
ATOM     27  C   LIG    1      -38.765  82.566  25.718  0.00  0.00    +0.043 A 
ATOM     28  N   LIG    1      -40.072  82.387  25.297  0.00  0.00    -0.281 N 
ATOM     29  H   LIG    1      -40.771  81.819  25.749  0.00  0.00    +0.155 HD
ATOM     30  C   LIG    1      -40.327  83.094  24.138  0.00  0.00    +0.249 C 
ATOM     31  O   LIG    1      -41.386  83.146  23.567  0.00  0.00    -0.270 OA
ATOM     32  C   LIG    1      -39.022  83.792  23.797  0.00  0.00    +0.048 C 
ATOM     33  C   LIG    1      -38.707  84.555  22.743  0.00  0.00    +0.039 C 
ATOM     34  C   LIG    1      -38.071  83.419  24.854  0.00  0.00    +0.008 A 
ATOM     35  C   LIG    1      -36.742  83.712  25.098  0.00  0.00    +0.012 A 
ATOM     36  C   LIG    1      -36.116  83.096  26.192  0.00  0.00    +0.024 A 
BRANCH  33  37
ATOM     37  C   LIG    1      -39.537  84.881  21.639  0.00  0.00    +0.040 A 
ATOM     38  N   LIG    1      -40.045  86.146  21.466  0.00  0.00    -0.361 N 
ATOM     39  H   LIG    1      -39.943  86.912  22.124  0.00  0.00    +0.165 HD
ATOM     40  C   LIG    1      -40.831  86.191  20.346  0.00  0.00    +0.083 A 
ATOM     41  C   LIG    1      -40.801  84.948  19.760  0.00  0.00    +0.019 A 
ATOM     42  C   LIG    1      -39.973  84.127  20.564  0.00  0.00    +0.027 A 
ENDBRANCH  33  37
ENDBRANCH  23  25
ENDBRANCH   3  23
TORSDOF 6
ENDMDL
MODEL 6
REMARK VINA RESULT:      -7.0      8.244     12.929
REMARK  Name = pdb/CHEMBL2037224.pdb
REMARK                            x       y       z     vdW  Elec       q    Type
REMARK                         _______ _______ _______ _____ _____    ______ ____
ROOT
ATOM      1  C   LIG    1      -27.683  76.535  32.612  0.00  0.00    +0.037 A 
ATOM      2  C   LIG    1      -28.384  75.751  31.688  0.00  0.00    +0.046 A 
ATOM      3  C   LIG    1      -29.533  75.019  32.058  0.00  0.00    +0.033 A 
ATOM      4  C   LIG    1      -30.031  75.164  33.356  0.00  0.00    +0.023 A 
ATOM      5  C   LIG    1      -29.331  75.920  34.290  0.00  0.00    +0.004 A 
ATOM      6  C   LIG    1      -28.153  76.575  33.926  0.00  0.00    +0.023 A 
ENDROOT
BRANCH   1  10
ATOM      7  N   LIG    1      -24.409  77.659  31.377  0.00  0.00    -0.269 N 
ATOM      8  H   LIG    1      -24.684  78.627  31.448  0.00  0.00    +0.156 HD
ATOM      9  C   LIG    1      -25.336  76.698  31.761  0.00  0.00    +0.308 C 
ATOM     10  N   LIG    1      -26.545  77.255  32.157  0.00  0.00    -0.269 N 
ATOM     11  H   LIG    1      -26.613  78.261  32.184  0.00  0.00    +0.156 HD
ATOM     12  O   LIG    1      -25.117  75.495  31.741  0.00  0.00    -0.252 OA
BRANCH   7  15
ATOM     13  C   LIG    1      -20.682  77.533  31.365  0.00  0.00    +0.057 A 
ATOM     14  C   LIG    1      -22.019  77.788  31.742  0.00  0.00    +0.035 A 
ATOM     15  C   LIG    1      -23.089  77.405  30.922  0.00  0.00    +0.035 A 
ATOM     16  C   LIG    1      -22.793  76.782  29.704  0.00  0.00    +0.023 A 
ATOM     17  C   LIG    1      -21.477  76.526  29.317  0.00  0.00    +0.002 A 
ATOM     18  C   LIG    1      -20.425  76.894  30.145  0.00  0.00    +0.012 A 
BRANCH  13  20
ATOM     19  F   LIG    1      -19.430  79.280  32.443  0.00  0.00    -0.166 F 
ATOM     20  C   LIG    1      -19.544  77.934  32.271  0.00  0.00    +0.417 C 
ATOM     21  F   LIG    1      -19.665  77.406  33.521  0.00  0.00    -0.166 F 
ATOM     22  F   LIG    1      -18.337  77.513  31.803  0.00  0.00    -0.166 F 
ENDBRANCH  13  20
ENDBRANCH   7  15
ENDBRANCH   1  10
BRANCH   3  23
ATOM     23  N   LIG    1      -30.229  74.208  31.126  0.00  0.00    -0.314 N 
ATOM     24  H   LIG    1      -29.599  73.596  30.611  0.00  0.00    +0.152 HD
BRANCH  23  25
ATOM     25  C   LIG    1      -31.274  74.643  30.275  0.00  0.00    +0.033 A 
ATOM     26  C   LIG    1      -31.345  75.966  29.824  0.00  0.00    +0.047 A 
ATOM     27  C   LIG    1      -32.423  76.330  29.055  0.00  0.00    +0.043 A 
ATOM     28  N   LIG    1      -32.706  77.607  28.601  0.00  0.00    -0.281 N 
ATOM     29  H   LIG    1      -32.145  78.431  28.754  0.00  0.00    +0.155 HD
ATOM     30  C   LIG    1      -33.891  77.636  27.893  0.00  0.00    +0.249 C 
ATOM     31  O   LIG    1      -34.364  78.606  27.359  0.00  0.00    -0.270 OA
ATOM     32  C   LIG    1      -34.407  76.209  27.912  0.00  0.00    +0.048 C 
ATOM     33  C   LIG    1      -35.545  75.701  27.422  0.00  0.00    +0.039 C 
ATOM     34  C   LIG    1      -33.414  75.425  28.662  0.00  0.00    +0.008 A 
ATOM     35  C   LIG    1      -33.319  74.096  29.031  0.00  0.00    +0.012 A 
ATOM     36  C   LIG    1      -32.240  73.708  29.840  0.00  0.00    +0.024 A 
BRANCH  33  37
ATOM     37  C   LIG    1      -36.591  76.406  26.773  0.00  0.00    +0.040 A 
ATOM     38  N   LIG    1      -37.204  77.488  27.356  0.00  0.00    -0.361 N 
ATOM     39  H   LIG    1      -37.026  77.823  28.298  0.00  0.00    +0.165 HD
ATOM     40  C   LIG    1      -38.192  77.970  26.539  0.00  0.00    +0.083 A 
ATOM     41  C   LIG    1      -38.194  77.215  25.391  0.00  0.00    +0.019 A 
ATOM     42  C   LIG    1      -37.176  76.240  25.529  0.00  0.00    +0.027 A 
ENDBRANCH  33  37
ENDBRANCH  23  25
ENDBRANCH   3  23
TORSDOF 6
ENDMDL
MODEL 7
REMARK VINA RESULT:      -7.0      1.533      2.015
REMARK  Name = pdb/CHEMBL2037224.pdb
REMARK                            x       y       z     vdW  Elec       q    Type
REMARK                         _______ _______ _______ _____ _____    ______ ____
ROOT
ATOM      1  C   LIG    1      -39.515  74.439  24.252  0.00  0.00    +0.037 A 
ATOM      2  C   LIG    1      -39.358  73.047  24.253  0.00  0.00    +0.046 A 
ATOM      3  C   LIG    1      -40.418  72.181  23.909  0.00  0.00    +0.033 A 
ATOM      4  C   LIG    1      -41.621  72.737  23.464  0.00  0.00    +0.023 A 
ATOM      5  C   LIG    1      -41.798  74.117  23.481  0.00  0.00    +0.004 A 
ATOM      6  C   LIG    1      -40.763  74.956  23.898  0.00  0.00    +0.023 A 
ENDROOT
BRANCH   1  10
ATOM      7  N   LIG    1      -36.750  76.228  25.882  0.00  0.00    -0.269 N 
ATOM      8  H   LIG    1      -36.508  76.695  25.022  0.00  0.00    +0.156 HD
ATOM      9  C   LIG    1      -37.831  75.356  25.858  0.00  0.00    +0.308 C 
ATOM     10  N   LIG    1      -38.394  75.243  24.594  0.00  0.00    -0.269 N 
ATOM     11  H   LIG    1      -38.019  75.823  23.859  0.00  0.00    +0.156 HD
ATOM     12  O   LIG    1      -38.236  74.747  26.839  0.00  0.00    -0.252 OA
BRANCH   7  15
ATOM     13  C   LIG    1      -33.766  77.130  27.930  0.00  0.00    +0.057 A 
ATOM     14  C   LIG    1      -34.595  76.772  26.844  0.00  0.00    +0.035 A 
ATOM     15  C   LIG    1      -35.968  76.551  27.022  0.00  0.00    +0.035 A 
ATOM     16  C   LIG    1      -36.491  76.671  28.315  0.00  0.00    +0.023 A 
ATOM     17  C   LIG    1      -35.683  77.022  29.397  0.00  0.00    +0.002 A 
ATOM     18  C   LIG    1      -34.328  77.256  29.207  0.00  0.00    +0.012 A 
BRANCH  13  20
ATOM     19  F   LIG    1      -31.890  77.195  26.428  0.00  0.00    -0.166 F 
ATOM     20  C   LIG    1      -32.296  77.386  27.714  0.00  0.00    +0.417 C 
ATOM     21  F   LIG    1      -31.937  78.661  28.033  0.00  0.00    -0.166 F 
ATOM     22  F   LIG    1      -31.512  76.576  28.478  0.00  0.00    -0.166 F 
ENDBRANCH  13  20
ENDBRANCH   7  15
ENDBRANCH   1  10
BRANCH   3  23
ATOM     23  N   LIG    1      -40.263  70.772  23.933  0.00  0.00    -0.314 N 
ATOM     24  H   LIG    1      -40.431  70.387  24.861  0.00  0.00    +0.152 HD
BRANCH  23  25
ATOM     25  C   LIG    1      -39.229  70.046  23.294  0.00  0.00    +0.033 A 
ATOM     26  C   LIG    1      -39.307  69.703  21.940  0.00  0.00    +0.047 A 
ATOM     27  C   LIG    1      -38.296  68.942  21.406  0.00  0.00    +0.043 A 
ATOM     28  N   LIG    1      -38.252  68.433  20.120  0.00  0.00    -0.281 N 
ATOM     29  H   LIG    1      -38.942  68.576  19.399  0.00  0.00    +0.155 HD
ATOM     30  C   LIG    1      -37.117  67.672  19.920  0.00  0.00    +0.249 C 
ATOM     31  O   LIG    1      -36.806  67.134  18.889  0.00  0.00    -0.270 OA
ATOM     32  C   LIG    1      -36.370  67.709  21.241  0.00  0.00    +0.048 C 
ATOM     33  C   LIG    1      -35.240  67.089  21.607  0.00  0.00    +0.039 C 
ATOM     34  C   LIG    1      -37.175  68.548  22.142  0.00  0.00    +0.008 A 
ATOM     35  C   LIG    1      -37.041  68.945  23.460  0.00  0.00    +0.012 A 
ATOM     36  C   LIG    1      -38.075  69.701  24.033  0.00  0.00    +0.024 A 
BRANCH  33  37
ATOM     37  C   LIG    1      -34.462  66.194  20.829  0.00  0.00    +0.040 A 
ATOM     38  N   LIG    1      -34.948  64.973  20.430  0.00  0.00    -0.361 N 
ATOM     39  H   LIG    1      -35.843  64.581  20.706  0.00  0.00    +0.165 HD
ATOM     40  C   LIG    1      -33.995  64.295  19.717  0.00  0.00    +0.083 A 
ATOM     41  C   LIG    1      -32.889  65.103  19.618  0.00  0.00    +0.019 A 
ATOM     42  C   LIG    1      -33.186  66.306  20.303  0.00  0.00    +0.027 A 
ENDBRANCH  33  37
ENDBRANCH  23  25
ENDBRANCH   3  23
TORSDOF 6
ENDMDL
MODEL 8
REMARK VINA RESULT:      -6.9      7.107      8.559
REMARK  Name = pdb/CHEMBL2037224.pdb
REMARK                            x       y       z     vdW  Elec       q    Type
REMARK                         _______ _______ _______ _____ _____    ______ ____
ROOT
ATOM      1  C   LIG    1      -39.955  78.600  24.239  0.00  0.00    +0.037 A 
ATOM      2  C   LIG    1      -40.315  77.376  23.661  0.00  0.00    +0.046 A 
ATOM      3  C   LIG    1      -40.798  76.302  24.440  0.00  0.00    +0.033 A 
ATOM      4  C   LIG    1      -41.012  76.507  25.806  0.00  0.00    +0.023 A 
ATOM      5  C   LIG    1      -40.636  77.709  26.396  0.00  0.00    +0.004 A 
ATOM      6  C   LIG    1      -40.087  78.734  25.622  0.00  0.00    +0.023 A 
ENDROOT
BRANCH   1  10
ATOM      7  N   LIG    1      -39.398  81.684  22.320  0.00  0.00    -0.269 N 
ATOM      8  H   LIG    1      -38.603  81.280  21.850  0.00  0.00    +0.156 HD
ATOM      9  C   LIG    1      -40.073  80.889  23.238  0.00  0.00    +0.308 C 
ATOM     10  N   LIG    1      -39.492  79.637  23.385  0.00  0.00    -0.269 N 
ATOM     11  H   LIG    1      -38.705  79.411  22.794  0.00  0.00    +0.156 HD
ATOM     12  O   LIG    1      -41.063  81.255  23.857  0.00  0.00    -0.252 OA
BRANCH   7  15
ATOM     13  C   LIG    1      -41.032  84.486  20.481  0.00  0.00    +0.057 A 
ATOM     14  C   LIG    1      -40.619  83.194  20.874  0.00  0.00    +0.035 A 
ATOM     15  C   LIG    1      -39.746  83.011  21.956  0.00  0.00    +0.035 A 
ATOM     16  C   LIG    1      -39.276  84.149  22.622  0.00  0.00    +0.023 A 
ATOM     17  C   LIG    1      -39.675  85.431  22.243  0.00  0.00    +0.002 A 
ATOM     18  C   LIG    1      -40.554  85.601  21.181  0.00  0.00    +0.012 A 
BRANCH  13  20
ATOM     19  F   LIG    1      -41.488  85.422  18.314  0.00  0.00    -0.166 F 
ATOM     20  C   LIG    1      -41.989  84.663  19.328  0.00  0.00    +0.417 C 
ATOM     21  F   LIG    1      -42.349  83.476  18.765  0.00  0.00    -0.166 F 
ATOM     22  F   LIG    1      -43.150  85.264  19.707  0.00  0.00    -0.166 F 
ENDBRANCH  13  20
ENDBRANCH   7  15
ENDBRANCH   1  10
BRANCH   3  23
ATOM     23  N   LIG    1      -41.141  75.056  23.856  0.00  0.00    -0.314 N 
ATOM     24  H   LIG    1      -42.133  74.849  23.959  0.00  0.00    +0.152 HD
BRANCH  23  25
ATOM     25  C   LIG    1      -40.390  73.861  23.964  0.00  0.00    +0.033 A 
ATOM     26  C   LIG    1      -39.124  73.847  24.559  0.00  0.00    +0.047 A 
ATOM     27  C   LIG    1      -38.427  72.664  24.569  0.00  0.00    +0.043 A 
ATOM     28  N   LIG    1      -37.133  72.484  25.027  0.00  0.00    -0.281 N 
ATOM     29  H   LIG    1      -36.543  73.191  25.436  0.00  0.00    +0.155 HD
ATOM     30  C   LIG    1      -36.716  71.179  24.852  0.00  0.00    +0.249 C 
ATOM     31  O   LIG    1      -35.648  70.733  25.185  0.00  0.00    -0.270 OA
ATOM     32  C   LIG    1      -37.889  70.465  24.205  0.00  0.00    +0.048 C 
ATOM     33  C   LIG    1      -37.992  69.202  23.771  0.00  0.00    +0.039 C 
ATOM     34  C   LIG    1      -38.952  71.471  24.063  0.00  0.00    +0.008 A 
ATOM     35  C   LIG    1      -40.234  71.448  23.544  0.00  0.00    +0.012 A 
ATOM     36  C   LIG    1      -40.953  72.652  23.500  0.00  0.00    +0.024 A 
BRANCH  33  37
ATOM     37  C   LIG    1      -36.984  68.203  23.786  0.00  0.00    +0.040 A 
ATOM     38  N   LIG    1      -35.781  68.382  23.148  0.00  0.00    -0.361 N 
ATOM     39  H   LIG    1      -35.540  69.179  22.567  0.00  0.00    +0.165 HD
ATOM     40  C   LIG    1      -34.999  67.267  23.291  0.00  0.00    +0.083 A 
ATOM     41  C   LIG    1      -35.688  66.366  24.067  0.00  0.00    +0.019 A 
ATOM     42  C   LIG    1      -36.932  66.961  24.393  0.00  0.00    +0.027 A 
ENDBRANCH  33  37
ENDBRANCH  23  25
ENDBRANCH   3  23
TORSDOF 6
ENDMDL
MODEL 9
REMARK VINA RESULT:      -6.8      6.005     12.587
REMARK  Name = pdb/CHEMBL2037224.pdb
REMARK                            x       y       z     vdW  Elec       q    Type
REMARK                         _______ _______ _______ _____ _____    ______ ____
ROOT
ATOM      1  C   LIG    1      -35.551  78.014  28.065  0.00  0.00    +0.037 A 
ATOM      2  C   LIG    1      -35.853  79.369  27.874  0.00  0.00    +0.046 A 
ATOM      3  C   LIG    1      -35.595  80.333  28.872  0.00  0.00    +0.033 A 
ATOM      4  C   LIG    1      -34.933  79.933  30.036  0.00  0.00    +0.023 A 
ATOM      5  C   LIG    1      -34.649  78.588  30.249  0.00  0.00    +0.004 A 
ATOM      6  C   LIG    1      -34.982  77.637  29.283  0.00  0.00    +0.023 A 
ENDROOT
BRANCH   1  10
ATOM      7  N   LIG    1      -37.027  75.740  25.585  0.00  0.00    -0.269 N 
ATOM      8  H   LIG    1      -36.120  75.531  25.196  0.00  0.00    +0.156 HD
ATOM      9  C   LIG    1      -37.078  76.619  26.659  0.00  0.00    +0.308 C 
ATOM     10  N   LIG    1      -35.826  77.108  27.006  0.00  0.00    -0.269 N 
ATOM     11  H   LIG    1      -35.026  76.750  26.505  0.00  0.00    +0.156 HD
ATOM     12  O   LIG    1      -38.113  76.936  27.230  0.00  0.00    -0.252 OA
BRANCH   7  15
ATOM     13  C   LIG    1      -39.186  72.958  24.357  0.00  0.00    +0.057 A 
ATOM     14  C   LIG    1      -38.100  73.681  24.898  0.00  0.00    +0.035 A 
ATOM     15  C   LIG    1      -38.138  75.078  24.998  0.00  0.00    +0.035 A 
ATOM     16  C   LIG    1      -39.275  75.741  24.524  0.00  0.00    +0.023 A 
ATOM     17  C   LIG    1      -40.355  75.040  23.985  0.00  0.00    +0.002 A 
ATOM     18  C   LIG    1      -40.315  73.655  23.906  0.00  0.00    +0.012 A 
BRANCH  13  20
ATOM     19  F   LIG    1      -39.635  70.830  25.382  0.00  0.00    -0.166 F 
ATOM     20  C   LIG    1      -39.136  71.453  24.277  0.00  0.00    +0.417 C 
ATOM     21  F   LIG    1      -39.844  70.964  23.221  0.00  0.00    -0.166 F 
ATOM     22  F   LIG    1      -37.868  70.984  24.126  0.00  0.00    -0.166 F 
ENDBRANCH  13  20
ENDBRANCH   7  15
ENDBRANCH   1  10
BRANCH   3  23
ATOM     23  N   LIG    1      -35.922  81.700  28.686  0.00  0.00    -0.314 N 
ATOM     24  H   LIG    1      -36.266  82.128  29.543  0.00  0.00    +0.152 HD
BRANCH  23  25
ATOM     25  C   LIG    1      -36.612  82.238  27.573  0.00  0.00    +0.033 A 
ATOM     26  C   LIG    1      -37.980  82.008  27.383  0.00  0.00    +0.047 A 
ATOM     27  C   LIG    1      -38.567  82.507  26.247  0.00  0.00    +0.043 A 
ATOM     28  N   LIG    1      -39.877  82.300  25.848  0.00  0.00    -0.281 N 
ATOM     29  H   LIG    1      -40.577  81.779  26.353  0.00  0.00    +0.155 HD
ATOM     30  C   LIG    1      -40.133  82.904  24.633  0.00  0.00    +0.249 C 
ATOM     31  O   LIG    1      -41.194  82.911  24.064  0.00  0.00    -0.270 OA
ATOM     32  C   LIG    1      -38.826  83.560  24.226  0.00  0.00    +0.048 C 
ATOM     33  C   LIG    1      -38.511  84.225  23.107  0.00  0.00    +0.039 C 
ATOM     34  C   LIG    1      -37.872  83.275  25.308  0.00  0.00    +0.008 A 
ATOM     35  C   LIG    1      -36.540  83.581  25.519  0.00  0.00    +0.012 A 
ATOM     36  C   LIG    1      -35.913  83.059  26.661  0.00  0.00    +0.024 A 
BRANCH  33  37
ATOM     37  C   LIG    1      -39.344  84.458  21.983  0.00  0.00    +0.040 A 
ATOM     38  N   LIG    1      -39.660  83.455  21.098  0.00  0.00    -0.361 N 
ATOM     39  H   LIG    1      -39.282  82.513  21.122  0.00  0.00    +0.165 HD
ATOM     40  C   LIG    1      -40.453  83.943  20.093  0.00  0.00    +0.083 A 
ATOM     41  C   LIG    1      -40.688  85.272  20.350  0.00  0.00    +0.019 A 
ATOM     42  C   LIG    1      -40.004  85.594  21.548  0.00  0.00    +0.027 A 
ENDBRANCH  33  37
ENDBRANCH  23  25
ENDBRANCH   3  23
TORSDOF 6
ENDMDL
