MODEL 1
REMARK VINA RESULT:      -6.2      0.000      0.000
REMARK  Name = pdb/CHEMBL3924506.pdb
REMARK                            x       y       z     vdW  Elec       q    Type
REMARK                         _______ _______ _______ _____ _____    ______ ____
ROOT
ATOM      1  C   LIG    1      -38.615  78.994  28.229  0.00  0.00    +0.105 A 
ATOM      2  C   LIG    1      -38.012  79.176  27.024  0.00  0.00    +0.145 A 
ATOM      3  N   LIG    1      -38.430  78.594  25.904  0.00  0.00    -0.201 NA
ATOM      4  C   LIG    1      -39.527  77.819  25.930  0.00  0.00    +0.323 A 
ATOM      5  N   LIG    1      -40.238  77.592  27.036  0.00  0.00    -0.201 NA
ATOM      6  C   LIG    1      -39.741  78.174  28.164  0.00  0.00    +0.145 A 
ENDROOT
BRANCH   1   8
ATOM      7  C   LIG    1      -37.221  78.878  30.196  0.00  0.00    +0.285 C 
ATOM      8  N   LIG    1      -38.120  79.448  29.455  0.00  0.00    -0.196 NA
BRANCH   7   9
ATOM      9  N   LIG    1      -36.503  77.716  30.106  0.00  0.00    -0.267 N 
ATOM     10  H   LIG    1      -36.920  76.962  30.629  0.00  0.00    +0.157 HD
BRANCH   9  12
ATOM     11  C   LIG    1      -35.613  75.859  28.531  0.00  0.00    +0.092 A 
ATOM     12  C   LIG    1      -35.670  77.156  29.094  0.00  0.00    +0.061 A 
ATOM     13  C   LIG    1      -34.728  78.093  28.577  0.00  0.00    +0.039 A 
ATOM     14  C   LIG    1      -33.734  77.754  27.659  0.00  0.00    +0.075 A 
ATOM     15  C   LIG    1      -33.669  76.434  27.296  0.00  0.00    +0.124 A 
ATOM     16  N   LIG    1      -34.572  75.510  27.698  0.00  0.00    -0.253 NA
BRANCH  11  20
ATOM     17  C   LIG    1      -40.318  74.074  28.002  0.00  0.00    +0.044 C 
ATOM     18  C   LIG    1      -38.922  73.904  28.512  0.00  0.00    -0.050 A 
ATOM     19  C   LIG    1      -37.988  74.951  28.362  0.00  0.00    +0.013 A 
ATOM     20  C   LIG    1      -36.626  74.759  28.610  0.00  0.00    +0.002 A 
ATOM     21  C   LIG    1      -36.247  73.411  28.790  0.00  0.00    +0.010 A 
ATOM     22  C   LIG    1      -37.165  72.412  29.139  0.00  0.00    +0.001 A 
ATOM     23  C   LIG    1      -38.518  72.671  29.025  0.00  0.00    +0.003 A 
ENDBRANCH  11  20
BRANCH  14  24
ATOM     24  C   LIG    1      -32.811  78.795  27.105  0.00  0.00    +0.419 C 
ATOM     25  F   LIG    1      -31.722  78.995  27.898  0.00  0.00    -0.166 F 
ATOM     26  F   LIG    1      -33.418  80.011  27.003  0.00  0.00    -0.166 F 
ATOM     27  F   LIG    1      -32.330  78.512  25.866  0.00  0.00    -0.166 F 
ENDBRANCH  14  24
ENDBRANCH   9  12
ENDBRANCH   7   9
BRANCH   7  28
ATOM     28  O   LIG    1      -36.977  79.617  31.265  0.00  0.00    -0.481 OA
ATOM     29  H   LIG    1      -37.537  80.403  31.170  0.00  0.00    +0.295 HD
ENDBRANCH   7  28
ENDBRANCH   1   8
BRANCH   4  30
ATOM     30  O   LIG    1      -39.898  77.150  24.753  0.00  0.00    -0.424 OA
BRANCH  30  31
ATOM     31  C   LIG    1      -39.497  75.829  24.642  0.00  0.00    +0.132 A 
ATOM     32  C   LIG    1      -40.419  74.849  24.275  0.00  0.00    +0.047 A 
ATOM     33  C   LIG    1      -40.018  73.504  24.216  0.00  0.00    +0.012 A 
ATOM     34  C   LIG    1      -38.731  73.117  24.616  0.00  0.00    -0.010 A 
ATOM     35  C   LIG    1      -37.832  74.117  24.988  0.00  0.00    +0.012 A 
ATOM     36  C   LIG    1      -38.179  75.444  24.883  0.00  0.00    +0.047 A 
BRANCH  34  37
ATOM     37  C   LIG    1      -38.310  71.718  24.611  0.00  0.00    +0.041 A 
ATOM     38  S   LIG    1      -37.072  71.204  25.663  0.00  0.00    -0.052 S 
ATOM     39  C   LIG    1      -37.115  69.646  25.017  0.00  0.00    +0.168 A 
ATOM     40  N   LIG    1      -38.058  69.429  24.127  0.00  0.00    -0.232 NA
ATOM     41  C   LIG    1      -38.721  70.624  23.876  0.00  0.00    +0.129 A 
BRANCH  39  42
ATOM     42  N   LIG    1      -36.201  68.716  25.453  0.00  0.00    -0.250 N 
ATOM     43  C   LIG    1      -35.215  68.167  24.608  0.00  0.00    +0.221 C 
ATOM     44  O   LIG    1      -34.924  68.408  23.461  0.00  0.00    -0.275 OA
ATOM     45  C   LIG    1      -34.544  67.034  25.393  0.00  0.00    +0.098 C 
ATOM     46  C   LIG    1      -34.963  67.308  26.807  0.00  0.00    +0.029 C 
ATOM     47  C   LIG    1      -36.320  67.970  26.672  0.00  0.00    +0.116 C 
ENDBRANCH  39  42
ENDBRANCH  34  37
ENDBRANCH  30  31
ENDBRANCH   4  30
TORSDOF 10
ENDMDL
MODEL 2
REMARK VINA RESULT:      -6.1     18.917     21.894
REMARK  Name = pdb/CHEMBL3924506.pdb
REMARK                            x       y       z     vdW  Elec       q    Type
REMARK                         _______ _______ _______ _____ _____    ______ ____
ROOT
ATOM      1  C   LIG    1      -18.620  85.114  13.101  0.00  0.00    +0.105 A 
ATOM      2  C   LIG    1      -17.905  84.102  13.661  0.00  0.00    +0.145 A 
ATOM      3  N   LIG    1      -17.807  82.892  13.120  0.00  0.00    -0.201 NA
ATOM      4  C   LIG    1      -18.398  82.644  11.940  0.00  0.00    +0.323 A 
ATOM      5  N   LIG    1      -19.093  83.560  11.262  0.00  0.00    -0.201 NA
ATOM      6  C   LIG    1      -19.201  84.768  11.881  0.00  0.00    +0.145 A 
ENDROOT
BRANCH   1   8
ATOM      7  C   LIG    1      -19.959  86.681  14.357  0.00  0.00    +0.285 C 
ATOM      8  N   LIG    1      -18.888  86.345  13.708  0.00  0.00    -0.196 NA
BRANCH   7   9
ATOM      9  N   LIG    1      -21.141  86.052  14.644  0.00  0.00    -0.267 N 
ATOM     10  H   LIG    1      -21.616  86.462  15.433  0.00  0.00    +0.157 HD
BRANCH   9  12
ATOM     11  C   LIG    1      -22.437  83.993  13.751  0.00  0.00    +0.092 A 
ATOM     12  C   LIG    1      -22.102  85.364  13.848  0.00  0.00    +0.061 A 
ATOM     13  C   LIG    1      -22.842  86.240  13.000  0.00  0.00    +0.039 A 
ATOM     14  C   LIG    1      -23.761  85.793  12.051  0.00  0.00    +0.075 A 
ATOM     15  C   LIG    1      -23.897  84.435  11.931  0.00  0.00    +0.124 A 
ATOM     16  N   LIG    1      -23.275  83.554  12.749  0.00  0.00    -0.253 NA
BRANCH  11  20
ATOM     17  C   LIG    1      -19.122  80.876  15.963  0.00  0.00    +0.044 C 
ATOM     18  C   LIG    1      -20.538  81.252  15.661  0.00  0.00    -0.050 A 
ATOM     19  C   LIG    1      -20.808  82.348  14.815  0.00  0.00    +0.013 A 
ATOM     20  C   LIG    1      -22.095  82.877  14.688  0.00  0.00    +0.002 A 
ATOM     21  C   LIG    1      -23.027  82.383  15.627  0.00  0.00    +0.010 A 
ATOM     22  C   LIG    1      -22.834  81.179  16.316  0.00  0.00    +0.001 A 
ATOM     23  C   LIG    1      -21.583  80.592  16.310  0.00  0.00    +0.003 A 
ENDBRANCH  11  20
BRANCH  14  24
ATOM     24  C   LIG    1      -24.553  86.765  11.231  0.00  0.00    +0.419 C 
ATOM     25  F   LIG    1      -24.185  86.757   9.920  0.00  0.00    -0.166 F 
ATOM     26  F   LIG    1      -24.377  88.049  11.653  0.00  0.00    -0.166 F 
ATOM     27  F   LIG    1      -25.895  86.546  11.248  0.00  0.00    -0.166 F 
ENDBRANCH  14  24
ENDBRANCH   9  12
ENDBRANCH   7   9
BRANCH   7  28
ATOM     28  O   LIG    1      -19.841  87.913  14.824  0.00  0.00    -0.481 OA
ATOM     29  H   LIG    1      -20.680  88.351  14.616  0.00  0.00    +0.295 HD
ENDBRANCH   7  28
ENDBRANCH   1   8
BRANCH   4  30
ATOM     30  O   LIG    1      -18.349  81.337  11.432  0.00  0.00    -0.424 OA
BRANCH  30  31
ATOM     31  C   LIG    1      -19.338  80.469  11.866  0.00  0.00    +0.132 A 
ATOM     32  C   LIG    1      -20.677  80.745  11.591  0.00  0.00    +0.047 A 
ATOM     33  C   LIG    1      -21.678  79.889  12.080  0.00  0.00    +0.012 A 
ATOM     34  C   LIG    1      -21.360  78.816  12.925  0.00  0.00    -0.010 A 
ATOM     35  C   LIG    1      -20.013  78.569  13.191  0.00  0.00    +0.012 A 
ATOM     36  C   LIG    1      -19.031  79.309  12.574  0.00  0.00    +0.047 A 
BRANCH  34  37
ATOM     37  C   LIG    1      -22.389  77.944  13.486  0.00  0.00    +0.041 A 
ATOM     38  S   LIG    1      -23.842  77.693  12.633  0.00  0.00    -0.052 S 
ATOM     39  C   LIG    1      -24.461  76.749  13.888  0.00  0.00    +0.168 A 
ATOM     40  N   LIG    1      -23.631  76.510  14.879  0.00  0.00    -0.232 NA
ATOM     41  C   LIG    1      -22.456  77.219  14.660  0.00  0.00    +0.129 A 
BRANCH  39  42
ATOM     42  N   LIG    1      -25.753  76.285  13.800  0.00  0.00    -0.250 N 
ATOM     43  C   LIG    1      -26.059  74.941  13.503  0.00  0.00    +0.221 C 
ATOM     44  O   LIG    1      -25.347  73.978  13.347  0.00  0.00    -0.275 OA
ATOM     45  C   LIG    1      -27.575  74.872  13.288  0.00  0.00    +0.098 C 
ATOM     46  C   LIG    1      -28.060  76.158  13.888  0.00  0.00    +0.029 C 
ATOM     47  C   LIG    1      -26.911  77.124  13.681  0.00  0.00    +0.116 C 
ENDBRANCH  39  42
ENDBRANCH  34  37
ENDBRANCH  30  31
ENDBRANCH   4  30
TORSDOF 10
ENDMDL
MODEL 3
REMARK VINA RESULT:      -5.7     20.988     25.239
REMARK  Name = pdb/CHEMBL3924506.pdb
REMARK                            x       y       z     vdW  Elec       q    Type
REMARK                         _______ _______ _______ _____ _____    ______ ____
ROOT
ATOM      1  C   LIG    1      -18.727  86.165  12.033  0.00  0.00    +0.105 A 
ATOM      2  C   LIG    1      -18.510  87.505  11.941  0.00  0.00    +0.145 A 
ATOM      3  N   LIG    1      -19.111  88.280  11.045  0.00  0.00    -0.201 NA
ATOM      4  C   LIG    1      -20.015  87.747  10.206  0.00  0.00    +0.323 A 
ATOM      5  N   LIG    1      -20.354  86.456  10.219  0.00  0.00    -0.201 NA
ATOM      6  C   LIG    1      -19.676  85.697  11.125  0.00  0.00    +0.145 A 
ENDROOT
BRANCH   1   8
ATOM      7  C   LIG    1      -18.407  84.151  13.325  0.00  0.00    +0.285 C 
ATOM      8  N   LIG    1      -18.002  85.285  12.842  0.00  0.00    -0.196 NA
BRANCH   7   9
ATOM      9  N   LIG    1      -19.586  83.457  13.274  0.00  0.00    -0.267 N 
ATOM     10  H   LIG    1      -19.511  82.605  12.739  0.00  0.00    +0.157 HD
BRANCH   9  12
ATOM     11  C   LIG    1      -21.707  84.236  14.545  0.00  0.00    +0.092 A 
ATOM     12  C   LIG    1      -20.687  83.330  14.170  0.00  0.00    +0.061 A 
ATOM     13  C   LIG    1      -20.742  82.049  14.795  0.00  0.00    +0.039 A 
ATOM     14  C   LIG    1      -21.661  81.720  15.791  0.00  0.00    +0.075 A 
ATOM     15  C   LIG    1      -22.507  82.723  16.190  0.00  0.00    +0.124 A 
ATOM     16  N   LIG    1      -22.549  83.936  15.593  0.00  0.00    -0.253 NA
BRANCH  11  20
ATOM     17  C   LIG    1      -21.236  89.203  13.703  0.00  0.00    +0.044 C 
ATOM     18  C   LIG    1      -22.020  87.937  13.559  0.00  0.00    -0.050 A 
ATOM     19  C   LIG    1      -21.556  86.751  14.165  0.00  0.00    +0.013 A 
ATOM     20  C   LIG    1      -22.122  85.507  13.872  0.00  0.00    +0.002 A 
ATOM     21  C   LIG    1      -23.013  85.512  12.777  0.00  0.00    +0.010 A 
ATOM     22  C   LIG    1      -23.625  86.682  12.311  0.00  0.00    +0.001 A 
ATOM     23  C   LIG    1      -23.142  87.908  12.728  0.00  0.00    +0.003 A 
ENDBRANCH  11  20
BRANCH  14  24
ATOM     24  C   LIG    1      -21.711  80.339  16.366  0.00  0.00    +0.419 C 
ATOM     25  F   LIG    1      -20.483  79.895  16.754  0.00  0.00    -0.166 F 
ATOM     26  F   LIG    1      -22.161  79.425  15.460  0.00  0.00    -0.166 F 
ATOM     27  F   LIG    1      -22.517  80.216  17.454  0.00  0.00    -0.166 F 
ENDBRANCH  14  24
ENDBRANCH   9  12
ENDBRANCH   7   9
BRANCH   7  28
ATOM     28  O   LIG    1      -17.436  83.576  14.013  0.00  0.00    -0.481 OA
ATOM     29  H   LIG    1      -16.735  84.243  14.080  0.00  0.00    +0.295 HD
ENDBRANCH   7  28
ENDBRANCH   1   8
BRANCH   4  30
ATOM     30  O   LIG    1      -20.573  88.570   9.216  0.00  0.00    -0.424 OA
BRANCH  30  31
ATOM     31  C   LIG    1      -21.785  89.168   9.522  0.00  0.00    +0.132 A 
ATOM     32  C   LIG    1      -21.813  90.345  10.268  0.00  0.00    +0.047 A 
ATOM     33  C   LIG    1      -23.047  90.917  10.619  0.00  0.00    +0.012 A 
ATOM     34  C   LIG    1      -24.253  90.271  10.317  0.00  0.00    -0.010 A 
ATOM     35  C   LIG    1      -24.196  89.088   9.578  0.00  0.00    +0.012 A 
ATOM     36  C   LIG    1      -22.995  88.624   9.094  0.00  0.00    +0.047 A 
BRANCH  34  37
ATOM     37  C   LIG    1      -25.546  90.821  10.717  0.00  0.00    +0.041 A 
ATOM     38  S   LIG    1      -25.605  92.179  11.744  0.00  0.00    -0.052 S 
ATOM     39  C   LIG    1      -27.291  92.114  11.799  0.00  0.00    +0.168 A 
ATOM     40  N   LIG    1      -27.847  91.208  11.025  0.00  0.00    -0.232 NA
ATOM     41  C   LIG    1      -26.845  90.451  10.430  0.00  0.00    +0.129 A 
BRANCH  39  42
ATOM     42  N   LIG    1      -27.967  92.993  12.611  0.00  0.00    -0.250 N 
ATOM     43  C   LIG    1      -28.119  92.783  13.997  0.00  0.00    +0.221 C 
ATOM     44  O   LIG    1      -27.680  91.926  14.726  0.00  0.00    -0.275 OA
ATOM     45  C   LIG    1      -29.097  93.851  14.500  0.00  0.00    +0.098 C 
ATOM     46  C   LIG    1      -29.111  94.850  13.381  0.00  0.00    +0.029 C 
ATOM     47  C   LIG    1      -28.848  94.023  12.138  0.00  0.00    +0.116 C 
ENDBRANCH  39  42
ENDBRANCH  34  37
ENDBRANCH  30  31
ENDBRANCH   4  30
TORSDOF 10
ENDMDL
MODEL 4
REMARK VINA RESULT:      -5.7      5.477     10.301
REMARK  Name = pdb/CHEMBL3924506.pdb
REMARK                            x       y       z     vdW  Elec       q    Type
REMARK                         _______ _______ _______ _____ _____    ______ ____
ROOT
ATOM      1  C   LIG    1      -42.839  69.256  21.147  0.00  0.00    +0.105 A 
ATOM      2  C   LIG    1      -42.110  70.265  20.601  0.00  0.00    +0.145 A 
ATOM      3  N   LIG    1      -42.186  71.526  21.014  0.00  0.00    -0.201 NA
ATOM      4  C   LIG    1      -42.982  71.837  22.051  0.00  0.00    +0.323 A 
ATOM      5  N   LIG    1      -43.718  70.936  22.705  0.00  0.00    -0.201 NA
ATOM      6  C   LIG    1      -43.638  69.668  22.213  0.00  0.00    +0.145 A 
ENDROOT
BRANCH   1   8
ATOM      7  C   LIG    1      -42.025  67.019  20.749  0.00  0.00    +0.285 C 
ATOM      8  N   LIG    1      -42.918  67.954  20.644  0.00  0.00    -0.196 NA
BRANCH   7   9
ATOM      9  N   LIG    1      -40.773  66.949  21.297  0.00  0.00    -0.267 N 
ATOM     10  H   LIG    1      -40.620  66.092  21.806  0.00  0.00    +0.157 HD
BRANCH   9  12
ATOM     11  C   LIG    1      -38.711  68.512  21.463  0.00  0.00    +0.092 A 
ATOM     12  C   LIG    1      -39.505  67.477  20.915  0.00  0.00    +0.061 A 
ATOM     13  C   LIG    1      -38.966  66.832  19.763  0.00  0.00    +0.039 A 
ATOM     14  C   LIG    1      -37.792  67.244  19.133  0.00  0.00    +0.075 A 
ATOM     15  C   LIG    1      -37.182  68.355  19.655  0.00  0.00    +0.124 A 
ATOM     16  N   LIG    1      -37.605  68.971  20.782  0.00  0.00    -0.253 NA
BRANCH  11  20
ATOM     17  C   LIG    1      -36.860  71.379  25.199  0.00  0.00    +0.044 C 
ATOM     18  C   LIG    1      -37.891  70.416  24.699  0.00  0.00    -0.050 A 
ATOM     19  C   LIG    1      -37.774  69.876  23.401  0.00  0.00    +0.013 A 
ATOM     20  C   LIG    1      -38.819  69.161  22.808  0.00  0.00    +0.002 A 
ATOM     21  C   LIG    1      -40.045  69.228  23.505  0.00  0.00    +0.010 A 
ATOM     22  C   LIG    1      -40.121  69.575  24.859  0.00  0.00    +0.001 A 
ATOM     23  C   LIG    1      -39.023  70.151  25.471  0.00  0.00    +0.003 A 
ENDBRANCH  11  20
BRANCH  14  24
ATOM     24  C   LIG    1      -37.242  66.489  17.962  0.00  0.00    +0.419 C 
ATOM     25  F   LIG    1      -37.764  65.235  17.864  0.00  0.00    -0.166 F 
ATOM     26  F   LIG    1      -35.893  66.318  18.055  0.00  0.00    -0.166 F 
ATOM     27  F   LIG    1      -37.462  67.085  16.761  0.00  0.00    -0.166 F 
ENDBRANCH  14  24
ENDBRANCH   9  12
ENDBRANCH   7   9
BRANCH   7  28
ATOM     28  O   LIG    1      -42.463  65.906  20.184  0.00  0.00    -0.481 OA
ATOM     29  H   LIG    1      -41.988  65.187  20.626  0.00  0.00    +0.295 HD
ENDBRANCH   7  28
ENDBRANCH   1   8
BRANCH   4  30
ATOM     30  O   LIG    1      -43.107  73.187  22.413  0.00  0.00    -0.424 OA
BRANCH  30  31
ATOM     31  C   LIG    1      -42.046  73.740  23.111  0.00  0.00    +0.132 A 
ATOM     32  C   LIG    1      -41.899  75.125  23.174  0.00  0.00    +0.047 A 
ATOM     33  C   LIG    1      -40.791  75.677  23.838  0.00  0.00    +0.012 A 
ATOM     34  C   LIG    1      -39.777  74.857  24.355  0.00  0.00    -0.010 A 
ATOM     35  C   LIG    1      -39.946  73.475  24.269  0.00  0.00    +0.012 A 
ATOM     36  C   LIG    1      -41.111  72.942  23.768  0.00  0.00    +0.047 A 
BRANCH  34  37
ATOM     37  C   LIG    1      -38.592  75.412  25.004  0.00  0.00    +0.041 A 
ATOM     38  S   LIG    1      -38.053  74.757  26.481  0.00  0.00    -0.052 S 
ATOM     39  C   LIG    1      -36.828  75.913  26.592  0.00  0.00    +0.168 A 
ATOM     40  N   LIG    1      -36.710  76.713  25.556  0.00  0.00    -0.232 NA
ATOM     41  C   LIG    1      -37.739  76.443  24.662  0.00  0.00    +0.129 A 
BRANCH  39  42
ATOM     42  N   LIG    1      -36.038  75.943  27.717  0.00  0.00    -0.250 N 
ATOM     43  C   LIG    1      -36.260  76.846  28.777  0.00  0.00    +0.221 C 
ATOM     44  O   LIG    1      -37.136  77.657  28.962  0.00  0.00    -0.275 OA
ATOM     45  C   LIG    1      -35.064  76.713  29.726  0.00  0.00    +0.098 C 
ATOM     46  C   LIG    1      -34.437  75.419  29.301  0.00  0.00    +0.029 C 
ATOM     47  C   LIG    1      -34.749  75.320  27.822  0.00  0.00    +0.116 C 
ENDBRANCH  39  42
ENDBRANCH  34  37
ENDBRANCH  30  31
ENDBRANCH   4  30
TORSDOF 10
ENDMDL
MODEL 5
REMARK VINA RESULT:      -5.6     16.470     19.177
REMARK  Name = pdb/CHEMBL3924506.pdb
REMARK                            x       y       z     vdW  Elec       q    Type
REMARK                         _______ _______ _______ _____ _____    ______ ____
ROOT
ATOM      1  C   LIG    1      -22.364  80.619  16.492  0.00  0.00    +0.105 A 
ATOM      2  C   LIG    1      -23.377  79.900  15.937  0.00  0.00    +0.145 A 
ATOM      3  N   LIG    1      -23.178  78.825  15.181  0.00  0.00    -0.201 NA
ATOM      4  C   LIG    1      -21.927  78.380  14.978  0.00  0.00    +0.323 A 
ATOM      5  N   LIG    1      -20.847  78.965  15.499  0.00  0.00    -0.201 NA
ATOM      6  C   LIG    1      -21.102  80.088  16.227  0.00  0.00    +0.145 A 
ENDROOT
BRANCH   1   8
ATOM      7  C   LIG    1      -22.253  83.023  16.681  0.00  0.00    +0.285 C 
ATOM      8  N   LIG    1      -22.512  81.843  17.152  0.00  0.00    -0.196 NA
BRANCH   7   9
ATOM      9  N   LIG    1      -21.752  83.491  15.496  0.00  0.00    -0.267 N 
ATOM     10  H   LIG    1      -21.011  82.912  15.133  0.00  0.00    +0.157 HD
BRANCH   9  12
ATOM     11  C   LIG    1      -22.953  83.807  13.221  0.00  0.00    +0.092 A 
ATOM     12  C   LIG    1      -22.321  84.225  14.415  0.00  0.00    +0.061 A 
ATOM     13  C   LIG    1      -22.213  85.636  14.592  0.00  0.00    +0.039 A 
ATOM     14  C   LIG    1      -22.596  86.563  13.622  0.00  0.00    +0.075 A 
ATOM     15  C   LIG    1      -23.053  86.046  12.438  0.00  0.00    +0.124 A 
ATOM     16  N   LIG    1      -23.242  84.722  12.232  0.00  0.00    -0.253 NA
BRANCH  11  20
ATOM     17  C   LIG    1      -22.455  79.138  11.334  0.00  0.00    +0.044 C 
ATOM     18  C   LIG    1      -23.332  80.244  11.829  0.00  0.00    -0.050 A 
ATOM     19  C   LIG    1      -22.762  81.481  12.196  0.00  0.00    +0.013 A 
ATOM     20  C   LIG    1      -23.498  82.456  12.874  0.00  0.00    +0.002 A 
ATOM     21  C   LIG    1      -24.753  82.017  13.350  0.00  0.00    +0.010 A 
ATOM     22  C   LIG    1      -25.403  80.892  12.828  0.00  0.00    +0.001 A 
ATOM     23  C   LIG    1      -24.692  80.010  12.036  0.00  0.00    +0.003 A 
ENDBRANCH  11  20
BRANCH  14  24
ATOM     24  C   LIG    1      -22.516  88.034  13.890  0.00  0.00    +0.419 C 
ATOM     25  F   LIG    1      -21.246  88.512  13.774  0.00  0.00    -0.166 F 
ATOM     26  F   LIG    1      -22.909  88.343  15.158  0.00  0.00    -0.166 F 
ATOM     27  F   LIG    1      -23.283  88.794  13.064  0.00  0.00    -0.166 F 
ENDBRANCH  14  24
ENDBRANCH   9  12
ENDBRANCH   7   9
BRANCH   7  28
ATOM     28  O   LIG    1      -22.551  83.947  17.579  0.00  0.00    -0.481 OA
ATOM     29  H   LIG    1      -23.343  84.391  17.241  0.00  0.00    +0.295 HD
ENDBRANCH   7  28
ENDBRANCH   1   8
BRANCH   4  30
ATOM     30  O   LIG    1      -21.740  77.294  14.109  0.00  0.00    -0.424 OA
BRANCH  30  31
ATOM     31  C   LIG    1      -22.204  76.065  14.549  0.00  0.00    +0.132 A 
ATOM     32  C   LIG    1      -23.321  75.486  13.948  0.00  0.00    +0.047 A 
ATOM     33  C   LIG    1      -23.819  74.265  14.434  0.00  0.00    +0.012 A 
ATOM     34  C   LIG    1      -23.271  73.667  15.578  0.00  0.00    -0.010 A 
ATOM     35  C   LIG    1      -22.160  74.273  16.165  0.00  0.00    +0.012 A 
ATOM     36  C   LIG    1      -21.576  75.376  15.585  0.00  0.00    +0.047 A 
BRANCH  34  37
ATOM     37  C   LIG    1      -23.805  72.425  16.130  0.00  0.00    +0.041 A 
ATOM     38  S   LIG    1      -25.489  72.228  16.296  0.00  0.00    -0.052 S 
ATOM     39  C   LIG    1      -25.281  70.724  17.032  0.00  0.00    +0.168 A 
ATOM     40  N   LIG    1      -24.042  70.288  17.086  0.00  0.00    -0.232 NA
ATOM     41  C   LIG    1      -23.196  71.276  16.596  0.00  0.00    +0.129 A 
BRANCH  39  42
ATOM     42  N   LIG    1      -26.383  70.053  17.505  0.00  0.00    -0.250 N 
ATOM     43  C   LIG    1      -27.366  69.511  16.652  0.00  0.00    +0.221 C 
ATOM     44  O   LIG    1      -27.429  69.447  15.448  0.00  0.00    -0.275 OA
ATOM     45  C   LIG    1      -28.517  69.041  17.550  0.00  0.00    +0.098 C 
ATOM     46  C   LIG    1      -27.890  69.005  18.912  0.00  0.00    +0.029 C 
ATOM     47  C   LIG    1      -26.835  70.092  18.867  0.00  0.00    +0.116 C 
ENDBRANCH  39  42
ENDBRANCH  34  37
ENDBRANCH  30  31
ENDBRANCH   4  30
TORSDOF 10
ENDMDL
MODEL 6
REMARK VINA RESULT:      -5.6      5.154      7.926
REMARK  Name = pdb/CHEMBL3924506.pdb
REMARK                            x       y       z     vdW  Elec       q    Type
REMARK                         _______ _______ _______ _____ _____    ______ ____
ROOT
ATOM      1  C   LIG    1      -43.797  71.948  22.134  0.00  0.00    +0.105 A 
ATOM      2  C   LIG    1      -43.109  71.952  20.961  0.00  0.00    +0.145 A 
ATOM      3  N   LIG    1      -42.454  70.893  20.497  0.00  0.00    -0.201 NA
ATOM      4  C   LIG    1      -42.495  69.736  21.179  0.00  0.00    +0.323 A 
ATOM      5  N   LIG    1      -43.169  69.583  22.321  0.00  0.00    -0.201 NA
ATOM      6  C   LIG    1      -43.785  70.711  22.776  0.00  0.00    +0.145 A 
ENDROOT
BRANCH   1   8
ATOM      7  C   LIG    1      -43.788  74.218  22.954  0.00  0.00    +0.285 C 
ATOM      8  N   LIG    1      -44.360  73.074  22.742  0.00  0.00    -0.196 NA
BRANCH   7   9
ATOM      9  N   LIG    1      -42.533  74.716  22.728  0.00  0.00    -0.267 N 
ATOM     10  H   LIG    1      -42.547  75.581  22.210  0.00  0.00    +0.157 HD
BRANCH   9  12
ATOM     11  C   LIG    1      -40.459  75.650  23.972  0.00  0.00    +0.092 A 
ATOM     12  C   LIG    1      -41.306  74.644  23.451  0.00  0.00    +0.061 A 
ATOM     13  C   LIG    1      -40.874  73.303  23.666  0.00  0.00    +0.039 A 
ATOM     14  C   LIG    1      -39.651  72.976  24.251  0.00  0.00    +0.075 A 
ATOM     15  C   LIG    1      -38.836  74.028  24.580  0.00  0.00    +0.124 A 
ATOM     16  N   LIG    1      -39.214  75.321  24.463  0.00  0.00    -0.253 NA
BRANCH  11  20
ATOM     17  C   LIG    1      -39.551  80.567  23.198  0.00  0.00    +0.044 C 
ATOM     18  C   LIG    1      -40.247  79.488  23.965  0.00  0.00    -0.050 A 
ATOM     19  C   LIG    1      -39.973  78.134  23.676  0.00  0.00    +0.013 A 
ATOM     20  C   LIG    1      -40.756  77.100  24.197  0.00  0.00    +0.002 A 
ATOM     21  C   LIG    1      -41.946  77.527  24.826  0.00  0.00    +0.010 A 
ATOM     22  C   LIG    1      -42.123  78.835  25.291  0.00  0.00    +0.001 A 
ATOM     23  C   LIG    1      -41.248  79.822  24.878  0.00  0.00    +0.003 A 
ENDBRANCH  11  20
BRANCH  14  24
ATOM     24  C   LIG    1      -39.278  71.548  24.507  0.00  0.00    +0.419 C 
ATOM     25  F   LIG    1      -40.112  70.675  23.879  0.00  0.00    -0.166 F 
ATOM     26  F   LIG    1      -39.348  71.234  25.832  0.00  0.00    -0.166 F 
ATOM     27  F   LIG    1      -38.020  71.220  24.110  0.00  0.00    -0.166 F 
ENDBRANCH  14  24
ENDBRANCH   9  12
ENDBRANCH   7   9
BRANCH   7  28
ATOM     28  O   LIG    1      -44.641  75.057  23.516  0.00  0.00    -0.481 OA
ATOM     29  H   LIG    1      -45.169  75.418  22.787  0.00  0.00    +0.295 HD
ENDBRANCH   7  28
ENDBRANCH   1   8
BRANCH   4  30
ATOM     30  O   LIG    1      -41.728  68.658  20.712  0.00  0.00    -0.424 OA
BRANCH  30  31
ATOM     31  C   LIG    1      -40.508  68.453  21.336  0.00  0.00    +0.132 A 
ATOM     32  C   LIG    1      -40.436  67.659  22.480  0.00  0.00    +0.047 A 
ATOM     33  C   LIG    1      -39.205  67.498  23.138  0.00  0.00    +0.012 A 
ATOM     34  C   LIG    1      -38.067  68.203  22.722  0.00  0.00    -0.010 A 
ATOM     35  C   LIG    1      -38.170  68.998  21.580  0.00  0.00    +0.012 A 
ATOM     36  C   LIG    1      -39.333  69.019  20.845  0.00  0.00    +0.047 A 
BRANCH  34  37
ATOM     37  C   LIG    1      -36.790  68.090  23.423  0.00  0.00    +0.041 A 
ATOM     38  S   LIG    1      -36.732  68.295  25.113  0.00  0.00    -0.052 S 
ATOM     39  C   LIG    1      -35.052  68.132  25.114  0.00  0.00    +0.168 A 
ATOM     40  N   LIG    1      -34.512  67.834  23.953  0.00  0.00    -0.232 NA
ATOM     41  C   LIG    1      -35.505  67.839  22.982  0.00  0.00    +0.129 A 
BRANCH  39  42
ATOM     42  N   LIG    1      -34.365  68.300  26.293  0.00  0.00    -0.250 N 
ATOM     43  C   LIG    1      -34.031  67.222  27.138  0.00  0.00    +0.221 C 
ATOM     44  O   LIG    1      -34.183  66.031  27.008  0.00  0.00    -0.275 OA
ATOM     45  C   LIG    1      -33.471  67.831  28.428  0.00  0.00    +0.098 C 
ATOM     46  C   LIG    1      -33.165  69.243  28.030  0.00  0.00    +0.029 C 
ATOM     47  C   LIG    1      -34.188  69.560  26.958  0.00  0.00    +0.116 C 
ENDBRANCH  39  42
ENDBRANCH  34  37
ENDBRANCH  30  31
ENDBRANCH   4  30
TORSDOF 10
ENDMDL
MODEL 7
REMARK VINA RESULT:      -5.5      3.451      9.107
REMARK  Name = pdb/CHEMBL3924506.pdb
REMARK                            x       y       z     vdW  Elec       q    Type
REMARK                         _______ _______ _______ _____ _____    ______ ____
ROOT
ATOM      1  C   LIG    1      -40.011  67.875  23.469  0.00  0.00    +0.105 A 
ATOM      2  C   LIG    1      -40.811  68.538  24.347  0.00  0.00    +0.145 A 
ATOM      3  N   LIG    1      -41.243  69.778  24.146  0.00  0.00    -0.201 NA
ATOM      4  C   LIG    1      -40.927  70.414  23.005  0.00  0.00    +0.323 A 
ATOM      5  N   LIG    1      -40.186  69.863  22.041  0.00  0.00    -0.201 NA
ATOM      6  C   LIG    1      -39.731  68.609  22.317  0.00  0.00    +0.145 A 
ENDROOT
BRANCH   1   8
ATOM      7  C   LIG    1      -38.469  66.384  24.575  0.00  0.00    +0.285 C 
ATOM      8  N   LIG    1      -39.399  66.642  23.709  0.00  0.00    -0.196 NA
BRANCH   7   9
ATOM      9  N   LIG    1      -37.764  67.138  25.475  0.00  0.00    -0.267 N 
ATOM     10  H   LIG    1      -37.688  66.694  26.377  0.00  0.00    +0.157 HD
BRANCH   9  12
ATOM     11  C   LIG    1      -35.682  68.219  24.373  0.00  0.00    +0.092 A 
ATOM     12  C   LIG    1      -36.701  68.078  25.345  0.00  0.00    +0.061 A 
ATOM     13  C   LIG    1      -36.678  69.033  26.404  0.00  0.00    +0.039 A 
ATOM     14  C   LIG    1      -35.671  69.985  26.557  0.00  0.00    +0.075 A 
ATOM     15  C   LIG    1      -34.647  69.935  25.646  0.00  0.00    +0.124 A 
ATOM     16  N   LIG    1      -34.642  69.099  24.583  0.00  0.00    -0.253 NA
BRANCH  11  20
ATOM     17  C   LIG    1      -37.049  67.952  19.509  0.00  0.00    +0.044 C 
ATOM     18  C   LIG    1      -36.351  67.353  20.689  0.00  0.00    -0.050 A 
ATOM     19  C   LIG    1      -36.413  67.999  21.942  0.00  0.00    +0.013 A 
ATOM     20  C   LIG    1      -35.598  67.609  23.009  0.00  0.00    +0.002 A 
ATOM     21  C   LIG    1      -34.576  66.698  22.663  0.00  0.00    +0.010 A 
ATOM     22  C   LIG    1      -34.630  65.912  21.506  0.00  0.00    +0.001 A 
ATOM     23  C   LIG    1      -35.546  66.226  20.520  0.00  0.00    +0.003 A 
ENDBRANCH  11  20
BRANCH  14  24
ATOM     24  C   LIG    1      -35.734  71.002  27.654  0.00  0.00    +0.419 C 
ATOM     25  F   LIG    1      -35.078  72.151  27.333  0.00  0.00    -0.166 F 
ATOM     26  F   LIG    1      -35.146  70.552  28.799  0.00  0.00    -0.166 F 
ATOM     27  F   LIG    1      -36.995  71.371  28.001  0.00  0.00    -0.166 F 
ENDBRANCH  14  24
ENDBRANCH   9  12
ENDBRANCH   7   9
BRANCH   7  28
ATOM     28  O   LIG    1      -38.162  65.098  24.546  0.00  0.00    -0.481 OA
ATOM     29  H   LIG    1      -38.922  64.642  24.939  0.00  0.00    +0.295 HD
ENDBRANCH   7  28
ENDBRANCH   1   8
BRANCH   4  30
ATOM     30  O   LIG    1      -41.326  71.751  22.854  0.00  0.00    -0.424 OA
BRANCH  30  31
ATOM     31  C   LIG    1      -40.627  72.691  23.593  0.00  0.00    +0.132 A 
ATOM     32  C   LIG    1      -41.046  74.021  23.605  0.00  0.00    +0.047 A 
ATOM     33  C   LIG    1      -40.301  74.978  24.313  0.00  0.00    +0.012 A 
ATOM     34  C   LIG    1      -39.088  74.639  24.927  0.00  0.00    -0.010 A 
ATOM     35  C   LIG    1      -38.687  73.302  24.891  0.00  0.00    +0.012 A 
ATOM     36  C   LIG    1      -39.504  72.342  24.341  0.00  0.00    +0.047 A 
BRANCH  34  37
ATOM     37  C   LIG    1      -38.272  75.629  25.625  0.00  0.00    +0.041 A 
ATOM     38  S   LIG    1      -37.164  75.124  26.817  0.00  0.00    -0.052 S 
ATOM     39  C   LIG    1      -36.751  76.722  27.167  0.00  0.00    +0.168 A 
ATOM     40  N   LIG    1      -37.303  77.631  26.394  0.00  0.00    -0.232 NA
ATOM     41  C   LIG    1      -38.195  77.005  25.532  0.00  0.00    +0.129 A 
BRANCH  39  42
ATOM     42  N   LIG    1      -35.878  76.976  28.198  0.00  0.00    -0.250 N 
ATOM     43  C   LIG    1      -34.571  77.459  27.985  0.00  0.00    +0.221 C 
ATOM     44  O   LIG    1      -34.000  77.794  26.975  0.00  0.00    -0.275 OA
ATOM     45  C   LIG    1      -33.857  77.409  29.341  0.00  0.00    +0.098 C 
ATOM     46  C   LIG    1      -34.989  77.264  30.314  0.00  0.00    +0.029 C 
ATOM     47  C   LIG    1      -36.049  76.503  29.542  0.00  0.00    +0.116 C 
ENDBRANCH  39  42
ENDBRANCH  34  37
ENDBRANCH  30  31
ENDBRANCH   4  30
TORSDOF 10
ENDMDL
MODEL 8
REMARK VINA RESULT:      -5.5      4.335      9.626
REMARK  Name = pdb/CHEMBL3924506.pdb
REMARK                            x       y       z     vdW  Elec       q    Type
REMARK                         _______ _______ _______ _____ _____    ______ ____
ROOT
ATOM      1  C   LIG    1      -42.117  69.286  22.241  0.00  0.00    +0.105 A 
ATOM      2  C   LIG    1      -41.953  69.345  23.590  0.00  0.00    +0.145 A 
ATOM      3  N   LIG    1      -42.212  70.432  24.308  0.00  0.00    -0.201 NA
ATOM      4  C   LIG    1      -42.704  71.526  23.703  0.00  0.00    +0.323 A 
ATOM      5  N   LIG    1      -42.952  71.589  22.392  0.00  0.00    -0.201 NA
ATOM      6  C   LIG    1      -42.626  70.464  21.696  0.00  0.00    +0.145 A 
ENDROOT
BRANCH   1   8
ATOM      7  C   LIG    1      -40.538  68.066  20.883  0.00  0.00    +0.285 C 
ATOM      8  N   LIG    1      -41.705  68.229  21.424  0.00  0.00    -0.196 NA
BRANCH   7   9
ATOM      9  N   LIG    1      -39.381  68.799  20.864  0.00  0.00    -0.267 N 
ATOM     10  H   LIG    1      -39.495  69.690  20.406  0.00  0.00    +0.157 HD
BRANCH   9  12
ATOM     11  C   LIG    1      -37.006  68.230  21.731  0.00  0.00    +0.092 A 
ATOM     12  C   LIG    1      -38.261  68.883  21.741  0.00  0.00    +0.061 A 
ATOM     13  C   LIG    1      -38.474  69.791  22.819  0.00  0.00    +0.039 A 
ATOM     14  C   LIG    1      -37.570  69.964  23.867  0.00  0.00    +0.075 A 
ATOM     15  C   LIG    1      -36.454  69.168  23.841  0.00  0.00    +0.124 A 
ATOM     16  N   LIG    1      -36.162  68.336  22.816  0.00  0.00    -0.253 NA
BRANCH  11  20
ATOM     17  C   LIG    1      -33.899  64.640  19.981  0.00  0.00    +0.044 C 
ATOM     18  C   LIG    1      -34.736  65.856  19.735  0.00  0.00    -0.050 A 
ATOM     19  C   LIG    1      -35.381  66.493  20.816  0.00  0.00    +0.013 A 
ATOM     20  C   LIG    1      -36.349  67.481  20.614  0.00  0.00    +0.002 A 
ATOM     21  C   LIG    1      -36.779  67.614  19.276  0.00  0.00    +0.010 A 
ATOM     22  C   LIG    1      -36.022  67.150  18.193  0.00  0.00    +0.001 A 
ATOM     23  C   LIG    1      -34.972  66.283  18.428  0.00  0.00    +0.003 A 
ENDBRANCH  11  20
BRANCH  14  24
ATOM     24  C   LIG    1      -37.821  70.978  24.940  0.00  0.00    +0.419 C 
ATOM     25  F   LIG    1      -37.290  70.607  26.137  0.00  0.00    -0.166 F 
ATOM     26  F   LIG    1      -39.152  71.157  25.169  0.00  0.00    -0.166 F 
ATOM     27  F   LIG    1      -37.318  72.212  24.670  0.00  0.00    -0.166 F 
ENDBRANCH  14  24
ENDBRANCH   9  12
ENDBRANCH   7   9
BRANCH   7  28
ATOM     28  O   LIG    1      -40.503  66.929  20.208  0.00  0.00    -0.481 OA
ATOM     29  H   LIG    1      -39.999  67.121  19.402  0.00  0.00    +0.295 HD
ENDBRANCH   7  28
ENDBRANCH   1   8
BRANCH   4  30
ATOM     30  O   LIG    1      -42.890  72.686  24.470  0.00  0.00    -0.424 OA
BRANCH  30  31
ATOM     31  C   LIG    1      -41.744  73.367  24.847  0.00  0.00    +0.132 A 
ATOM     32  C   LIG    1      -40.841  73.801  23.877  0.00  0.00    +0.047 A 
ATOM     33  C   LIG    1      -39.655  74.444  24.270  0.00  0.00    +0.012 A 
ATOM     34  C   LIG    1      -39.316  74.569  25.625  0.00  0.00    -0.010 A 
ATOM     35  C   LIG    1      -40.235  74.117  26.574  0.00  0.00    +0.012 A 
ATOM     36  C   LIG    1      -41.466  73.642  26.184  0.00  0.00    +0.047 A 
BRANCH  34  37
ATOM     37  C   LIG    1      -38.065  75.188  26.054  0.00  0.00    +0.041 A 
ATOM     38  S   LIG    1      -37.283  74.627  27.460  0.00  0.00    -0.052 S 
ATOM     39  C   LIG    1      -36.096  75.818  27.323  0.00  0.00    +0.168 A 
ATOM     40  N   LIG    1      -36.166  76.565  26.243  0.00  0.00    -0.232 NA
ATOM     41  C   LIG    1      -37.311  76.221  25.534  0.00  0.00    +0.129 A 
BRANCH  39  42
ATOM     42  N   LIG    1      -35.144  75.929  28.308  0.00  0.00    -0.250 N 
ATOM     43  C   LIG    1      -34.087  75.007  28.451  0.00  0.00    +0.221 C 
ATOM     44  O   LIG    1      -33.761  74.058  27.778  0.00  0.00    -0.275 OA
ATOM     45  C   LIG    1      -33.380  75.348  29.768  0.00  0.00    +0.098 C 
ATOM     46  C   LIG    1      -33.879  76.729  30.072  0.00  0.00    +0.029 C 
ATOM     47  C   LIG    1      -35.268  76.765  29.468  0.00  0.00    +0.116 C 
ENDBRANCH  39  42
ENDBRANCH  34  37
ENDBRANCH  30  31
ENDBRANCH   4  30
TORSDOF 10
ENDMDL
MODEL 9
REMARK VINA RESULT:      -5.5      8.429     12.503
REMARK  Name = pdb/CHEMBL3924506.pdb
REMARK                            x       y       z     vdW  Elec       q    Type
REMARK                         _______ _______ _______ _____ _____    ______ ____
ROOT
ATOM      1  C   LIG    1      -26.229  71.210  31.568  0.00  0.00    +0.105 A 
ATOM      2  C   LIG    1      -27.147  71.294  32.569  0.00  0.00    +0.145 A 
ATOM      3  N   LIG    1      -28.443  71.061  32.390  0.00  0.00    -0.201 NA
ATOM      4  C   LIG    1      -28.887  70.679  31.181  0.00  0.00    +0.323 A 
ATOM      5  N   LIG    1      -28.088  70.515  30.125  0.00  0.00    -0.201 NA
ATOM      6  C   LIG    1      -26.777  70.810  30.350  0.00  0.00    +0.145 A 
ENDROOT
BRANCH   1   8
ATOM      7  C   LIG    1      -24.396  72.771  31.403  0.00  0.00    +0.285 C 
ATOM      8  N   LIG    1      -24.891  71.602  31.667  0.00  0.00    -0.196 NA
BRANCH   7   9
ATOM      9  N   LIG    1      -24.918  73.949  30.938  0.00  0.00    -0.267 N 
ATOM     10  H   LIG    1      -25.576  73.810  30.186  0.00  0.00    +0.157 HD
BRANCH   9  12
ATOM     11  C   LIG    1      -24.363  76.323  31.817  0.00  0.00    +0.092 A 
ATOM     12  C   LIG    1      -25.191  75.208  31.549  0.00  0.00    +0.061 A 
ATOM     13  C   LIG    1      -26.549  75.335  31.961  0.00  0.00    +0.039 A 
ATOM     14  C   LIG    1      -27.033  76.429  32.679  0.00  0.00    +0.075 A 
ATOM     15  C   LIG    1      -26.112  77.384  33.022  0.00  0.00    +0.124 A 
ATOM     16  N   LIG    1      -24.825  77.354  32.606  0.00  0.00    -0.253 NA
BRANCH  11  20
ATOM     17  C   LIG    1      -19.736  78.338  32.184  0.00  0.00    +0.044 C 
ATOM     18  C   LIG    1      -20.823  77.743  31.346  0.00  0.00    -0.050 A 
ATOM     19  C   LIG    1      -22.059  77.406  31.936  0.00  0.00    +0.013 A 
ATOM     20  C   LIG    1      -23.013  76.644  31.255  0.00  0.00    +0.002 A 
ATOM     21  C   LIG    1      -22.550  76.062  30.054  0.00  0.00    +0.010 A 
ATOM     22  C   LIG    1      -21.427  76.543  29.370  0.00  0.00    +0.001 A 
ATOM     23  C   LIG    1      -20.569  77.415  30.013  0.00  0.00    +0.003 A 
ENDBRANCH  11  20
BRANCH  14  24
ATOM     24  C   LIG    1      -28.485  76.537  33.032  0.00  0.00    +0.419 C 
ATOM     25  F   LIG    1      -29.097  77.572  32.393  0.00  0.00    -0.166 F 
ATOM     26  F   LIG    1      -28.670  76.766  34.362  0.00  0.00    -0.166 F 
ATOM     27  F   LIG    1      -29.214  75.427  32.738  0.00  0.00    -0.166 F 
ENDBRANCH  14  24
ENDBRANCH   9  12
ENDBRANCH   7   9
BRANCH   7  28
ATOM     28  O   LIG    1      -23.097  72.782  31.649  0.00  0.00    -0.481 OA
ATOM     29  H   LIG    1      -22.923  71.978  32.162  0.00  0.00    +0.295 HD
ENDBRANCH   7  28
ENDBRANCH   1   8
BRANCH   4  30
ATOM     30  O   LIG    1      -30.270  70.521  30.999  0.00  0.00    -0.424 OA
BRANCH  30  31
ATOM     31  C   LIG    1      -30.961  71.627  30.533  0.00  0.00    +0.132 A 
ATOM     32  C   LIG    1      -32.094  71.458  29.738  0.00  0.00    +0.047 A 
ATOM     33  C   LIG    1      -32.759  72.585  29.227  0.00  0.00    +0.012 A 
ATOM     34  C   LIG    1      -32.245  73.875  29.419  0.00  0.00    -0.010 A 
ATOM     35  C   LIG    1      -31.105  74.014  30.211  0.00  0.00    +0.012 A 
ATOM     36  C   LIG    1      -30.557  72.924  30.846  0.00  0.00    +0.047 A 
BRANCH  34  37
ATOM     37  C   LIG    1      -32.892  75.056  28.853  0.00  0.00    +0.041 A 
ATOM     38  S   LIG    1      -32.830  76.538  29.691  0.00  0.00    -0.052 S 
ATOM     39  C   LIG    1      -33.807  77.279  28.532  0.00  0.00    +0.168 A 
ATOM     40  N   LIG    1      -34.113  76.537  27.491  0.00  0.00    -0.232 NA
ATOM     41  C   LIG    1      -33.612  75.256  27.691  0.00  0.00    +0.129 A 
BRANCH  39  42
ATOM     42  N   LIG    1      -34.204  78.581  28.726  0.00  0.00    -0.250 N 
ATOM     43  C   LIG    1      -33.893  79.614  27.819  0.00  0.00    +0.221 C 
ATOM     44  O   LIG    1      -33.336  79.593  26.748  0.00  0.00    -0.275 OA
ATOM     45  C   LIG    1      -34.318  80.928  28.485  0.00  0.00    +0.098 C 
ATOM     46  C   LIG    1      -35.223  80.469  29.589  0.00  0.00    +0.029 C 
ATOM     47  C   LIG    1      -34.683  79.106  29.973  0.00  0.00    +0.116 C 
ENDBRANCH  39  42
ENDBRANCH  34  37
ENDBRANCH  30  31
ENDBRANCH   4  30
TORSDOF 10
ENDMDL
