MODEL 1
REMARK VINA RESULT:      -5.5      0.000      0.000
REMARK  Name = pdb/CHEMBL3676077.pdb
REMARK                            x       y       z     vdW  Elec       q    Type
REMARK                         _______ _______ _______ _____ _____    ______ ____
ROOT
ATOM      1  N   LIG    1      -21.895  79.147  34.808  0.00  0.00    -0.308 N 
ATOM      2  C   LIG    1      -23.059  80.062  34.656  0.00  0.00    +0.109 C 
ATOM      3  C   LIG    1      -22.521  81.450  35.076  0.00  0.00    +0.029 C 
ATOM      4  C   LIG    1      -21.178  81.184  35.734  0.00  0.00    +0.021 C 
ATOM      5  C   LIG    1      -20.687  79.938  35.030  0.00  0.00    +0.107 C 
ENDROOT
BRANCH   1   9
ATOM      6  C   LIG    1      -21.727  76.041  31.085  0.00  0.00    +0.100 A 
ATOM      7  C   LIG    1      -21.764  76.498  32.387  0.00  0.00    +0.170 A 
ATOM      8  N   LIG    1      -21.745  77.754  32.931  0.00  0.00    -0.212 NA
ATOM      9  C   LIG    1      -21.855  77.877  34.236  0.00  0.00    +0.126 A 
ATOM     10  C   LIG    1      -21.944  76.655  35.135  0.00  0.00    +0.063 A 
ATOM     11  C   LIG    1      -21.945  75.451  34.553  0.00  0.00    +0.118 A 
ATOM     12  N   LIG    1      -21.881  75.347  33.177  0.00  0.00    -0.221 N 
ATOM     13  N   LIG    1      -21.923  74.212  32.441  0.00  0.00    -0.173 NA
ATOM     14  C   LIG    1      -21.868  74.643  31.187  0.00  0.00    +0.150 A 
BRANCH   6  18
ATOM     15  N   LIG    1      -20.867  77.962  29.978  0.00  0.00    -0.325 N 
ATOM     16  H   LIG    1      -20.558  78.281  30.876  0.00  0.00    +0.145 HD
ATOM     17  H   LIG    1      -20.770  78.531  29.156  0.00  0.00    +0.145 HD
ATOM     18  C   LIG    1      -21.594  76.805  29.861  0.00  0.00    +0.247 C 
ATOM     19  O   LIG    1      -22.031  76.438  28.790  0.00  0.00    -0.270 OA
ENDBRANCH   6  18
ENDBRANCH   1   9
BRANCH   2  20
ATOM     20  C   LIG    1      -24.287  79.678  35.469  0.00  0.00    +0.017 A 
ATOM     21  C   LIG    1      -25.305  78.853  34.917  0.00  0.00    +0.126 A 
ATOM     22  C   LIG    1      -26.421  78.512  35.700  0.00  0.00    +0.049 A 
ATOM     23  C   LIG    1      -26.547  78.999  37.005  0.00  0.00    +0.042 A 
ATOM     24  C   LIG    1      -25.565  79.825  37.531  0.00  0.00    +0.124 A 
ATOM     25  F   LIG    1      -25.700  80.306  38.773  0.00  0.00    -0.205 F 
ATOM     26  C   LIG    1      -24.446  80.165  36.781  0.00  0.00    +0.047 A 
BRANCH  21  27
ATOM     27  O   LIG    1      -25.180  78.500  33.589  0.00  0.00    -0.489 OA
BRANCH  27  28
ATOM     28  C   LIG    1      -25.416  77.116  33.247  0.00  0.00    +0.262 C 
BRANCH  28  29
ATOM     29  C   LIG    1      -25.794  77.019  31.756  0.00  0.00    +0.177 C 
BRANCH  29  30
ATOM     30  O   LIG    1      -27.164  77.406  31.555  0.00  0.00    -0.386 OA
ATOM     31  H   LIG    1      -27.448  77.828  32.387  0.00  0.00    +0.210 HD
ENDBRANCH  29  30
BRANCH  29  32
ATOM     32  C   LIG    1      -24.934  77.927  30.868  0.00  0.00    +0.190 C 
BRANCH  32  33
ATOM     33  O   LIG    1      -24.991  77.460  29.517  0.00  0.00    -0.392 OA
ATOM     34  H   LIG    1      -24.075  77.190  29.300  0.00  0.00    +0.210 HD
ENDBRANCH  32  33
ENDBRANCH  29  32
ENDBRANCH  28  29
ENDBRANCH  27  28
ENDBRANCH  21  27
ENDBRANCH   2  20
TORSDOF 9
ENDMDL
MODEL 2
REMARK VINA RESULT:      -5.1     18.370     20.931
REMARK  Name = pdb/CHEMBL3676077.pdb
REMARK                            x       y       z     vdW  Elec       q    Type
REMARK                         _______ _______ _______ _____ _____    ______ ____
ROOT
ATOM      1  N   LIG    1      -19.076  82.381  13.534  0.00  0.00    -0.308 N 
ATOM      2  C   LIG    1      -19.146  81.357  14.611  0.00  0.00    +0.109 C 
ATOM      3  C   LIG    1      -17.672  80.984  14.890  0.00  0.00    +0.029 C 
ATOM      4  C   LIG    1      -16.875  81.588  13.746  0.00  0.00    +0.021 C 
ATOM      5  C   LIG    1      -17.689  82.805  13.360  0.00  0.00    +0.107 C 
ENDROOT
BRANCH   1   9
ATOM      6  C   LIG    1      -21.958  86.234  14.162  0.00  0.00    +0.100 A 
ATOM      7  C   LIG    1      -21.444  85.081  13.604  0.00  0.00    +0.170 A 
ATOM      8  N   LIG    1      -20.352  84.312  13.902  0.00  0.00    -0.212 NA
ATOM      9  C   LIG    1      -20.149  83.210  13.211  0.00  0.00    +0.126 A 
ATOM     10  C   LIG    1      -21.070  82.822  12.067  0.00  0.00    +0.063 A 
ATOM     11  C   LIG    1      -22.115  83.615  11.809  0.00  0.00    +0.118 A 
ATOM     12  N   LIG    1      -22.338  84.739  12.580  0.00  0.00    -0.221 N 
ATOM     13  N   LIG    1      -23.370  85.608  12.478  0.00  0.00    -0.173 NA
ATOM     14  C   LIG    1      -23.152  86.479  13.456  0.00  0.00    +0.150 A 
BRANCH   6  18
ATOM     15  N   LIG    1      -20.111  87.402  15.099  0.00  0.00    -0.325 N 
ATOM     16  H   LIG    1      -19.562  87.044  14.342  0.00  0.00    +0.145 HD
ATOM     17  H   LIG    1      -19.696  87.938  15.842  0.00  0.00    +0.145 HD
ATOM     18  C   LIG    1      -21.422  87.030  15.248  0.00  0.00    +0.247 C 
ATOM     19  O   LIG    1      -22.083  87.403  16.195  0.00  0.00    -0.270 OA
ENDBRANCH   6  18
ENDBRANCH   1   9
BRANCH   2  20
ATOM     20  C   LIG    1      -19.971  80.124  14.272  0.00  0.00    +0.017 A 
ATOM     21  C   LIG    1      -20.974  79.645  15.158  0.00  0.00    +0.126 A 
ATOM     22  C   LIG    1      -21.723  78.509  14.808  0.00  0.00    +0.049 A 
ATOM     23  C   LIG    1      -21.469  77.834  13.609  0.00  0.00    +0.042 A 
ATOM     24  C   LIG    1      -20.472  78.290  12.759  0.00  0.00    +0.124 A 
ATOM     25  F   LIG    1      -20.219  77.629  11.622  0.00  0.00    -0.205 F 
ATOM     26  C   LIG    1      -19.729  79.418  13.077  0.00  0.00    +0.047 A 
BRANCH  21  27
ATOM     27  O   LIG    1      -21.099  80.283  16.376  0.00  0.00    -0.489 OA
BRANCH  27  28
ATOM     28  C   LIG    1      -22.432  80.630  16.808  0.00  0.00    +0.262 C 
BRANCH  28  29
ATOM     29  C   LIG    1      -22.691  82.119  16.507  0.00  0.00    +0.177 C 
BRANCH  29  30
ATOM     30  O   LIG    1      -21.461  82.863  16.535  0.00  0.00    -0.386 OA
ATOM     31  H   LIG    1      -21.563  83.573  15.874  0.00  0.00    +0.210 HD
ENDBRANCH  29  30
BRANCH  29  32
ATOM     32  C   LIG    1      -23.321  82.341  15.127  0.00  0.00    +0.190 C 
BRANCH  32  33
ATOM     33  O   LIG    1      -24.384  81.403  14.934  0.00  0.00    -0.392 OA
ATOM     34  H   LIG    1      -24.498  81.339  13.964  0.00  0.00    +0.210 HD
ENDBRANCH  32  33
ENDBRANCH  29  32
ENDBRANCH  28  29
ENDBRANCH  27  28
ENDBRANCH  21  27
ENDBRANCH   2  20
TORSDOF 9
ENDMDL
MODEL 3
REMARK VINA RESULT:      -5.1     13.952     16.712
REMARK  Name = pdb/CHEMBL3676077.pdb
REMARK                            x       y       z     vdW  Elec       q    Type
REMARK                         _______ _______ _______ _____ _____    ______ ____
ROOT
ATOM      1  N   LIG    1      -39.299  78.449  25.764  0.00  0.00    -0.308 N 
ATOM      2  C   LIG    1      -38.699  77.709  24.621  0.00  0.00    +0.109 C 
ATOM      3  C   LIG    1      -39.513  78.170  23.389  0.00  0.00    +0.029 C 
ATOM      4  C   LIG    1      -40.720  78.904  23.948  0.00  0.00    +0.021 C 
ATOM      5  C   LIG    1      -40.205  79.475  25.252  0.00  0.00    +0.107 C 
ENDROOT
BRANCH   1   9
ATOM      6  C   LIG    1      -35.684  79.812  28.699  0.00  0.00    +0.100 A 
ATOM      7  C   LIG    1      -36.890  79.275  28.296  0.00  0.00    +0.170 A 
ATOM      8  N   LIG    1      -37.522  79.217  27.084  0.00  0.00    -0.212 NA
ATOM      9  C   LIG    1      -38.665  78.570  26.999  0.00  0.00    +0.126 A 
ATOM     10  C   LIG    1      -39.307  77.947  28.227  0.00  0.00    +0.063 A 
ATOM     11  C   LIG    1      -38.653  78.044  29.390  0.00  0.00    +0.118 A 
ATOM     12  N   LIG    1      -37.430  78.682  29.446  0.00  0.00    -0.221 N 
ATOM     13  N   LIG    1      -36.628  78.819  30.527  0.00  0.00    -0.173 NA
ATOM     14  C   LIG    1      -35.567  79.465  30.058  0.00  0.00    +0.150 A 
BRANCH   6  18
ATOM     15  N   LIG    1      -34.773  81.918  28.074  0.00  0.00    -0.325 N 
ATOM     16  H   LIG    1      -35.505  82.340  28.612  0.00  0.00    +0.145 HD
ATOM     17  H   LIG    1      -34.133  82.472  27.532  0.00  0.00    +0.145 HD
ATOM     18  C   LIG    1      -34.719  80.557  27.915  0.00  0.00    +0.247 C 
ATOM     19  O   LIG    1      -33.877  80.035  27.215  0.00  0.00    -0.270 OA
ENDBRANCH   6  18
ENDBRANCH   1   9
BRANCH   2  20
ATOM     20  C   LIG    1      -38.718  76.193  24.757  0.00  0.00    +0.017 A 
ATOM     21  C   LIG    1      -37.695  75.507  25.467  0.00  0.00    +0.126 A 
ATOM     22  C   LIG    1      -37.750  74.108  25.581  0.00  0.00    +0.049 A 
ATOM     23  C   LIG    1      -38.786  73.387  24.978  0.00  0.00    +0.042 A 
ATOM     24  C   LIG    1      -39.767  74.058  24.264  0.00  0.00    +0.124 A 
ATOM     25  F   LIG    1      -40.747  73.362  23.671  0.00  0.00    -0.205 F 
ATOM     26  C   LIG    1      -39.743  75.442  24.150  0.00  0.00    +0.047 A 
BRANCH  21  27
ATOM     27  O   LIG    1      -36.639  76.261  25.940  0.00  0.00    -0.489 OA
BRANCH  27  28
ATOM     28  C   LIG    1      -36.161  75.969  27.271  0.00  0.00    +0.262 C 
BRANCH  28  29
ATOM     29  C   LIG    1      -34.632  76.155  27.312  0.00  0.00    +0.177 C 
BRANCH  29  30
ATOM     30  O   LIG    1      -34.245  77.336  26.587  0.00  0.00    -0.386 OA
ATOM     31  H   LIG    1      -33.477  77.077  26.046  0.00  0.00    +0.210 HD
ENDBRANCH  29  30
BRANCH  29  32
ATOM     32  C   LIG    1      -34.094  76.306  28.740  0.00  0.00    +0.190 C 
BRANCH  32  33
ATOM     33  O   LIG    1      -33.117  77.352  28.770  0.00  0.00    -0.392 OA
ATOM     34  H   LIG    1      -32.777  77.413  27.855  0.00  0.00    +0.210 HD
ENDBRANCH  32  33
ENDBRANCH  29  32
ENDBRANCH  28  29
ENDBRANCH  27  28
ENDBRANCH  21  27
ENDBRANCH   2  20
TORSDOF 9
ENDMDL
MODEL 4
REMARK VINA RESULT:      -5.0     18.845     22.150
REMARK  Name = pdb/CHEMBL3676077.pdb
REMARK                            x       y       z     vdW  Elec       q    Type
REMARK                         _______ _______ _______ _____ _____    ______ ____
ROOT
ATOM      1  N   LIG    1      -25.015  83.514  11.801  0.00  0.00    -0.308 N 
ATOM      2  C   LIG    1      -24.144  84.721  11.808  0.00  0.00    +0.109 C 
ATOM      3  C   LIG    1      -24.921  85.766  10.975  0.00  0.00    +0.029 C 
ATOM      4  C   LIG    1      -26.035  84.994  10.289  0.00  0.00    +0.021 C 
ATOM      5  C   LIG    1      -26.324  83.866  11.256  0.00  0.00    +0.107 C 
ENDROOT
BRANCH   1   9
ATOM      6  C   LIG    1      -23.142  81.383  15.737  0.00  0.00    +0.100 A 
ATOM      7  C   LIG    1      -23.897  81.552  14.594  0.00  0.00    +0.170 A 
ATOM      8  N   LIG    1      -24.096  82.621  13.763  0.00  0.00    -0.212 NA
ATOM      9  C   LIG    1      -24.843  82.456  12.692  0.00  0.00    +0.126 A 
ATOM     10  C   LIG    1      -25.522  81.127  12.406  0.00  0.00    +0.063 A 
ATOM     11  C   LIG    1      -25.304  80.119  13.257  0.00  0.00    +0.118 A 
ATOM     12  N   LIG    1      -24.475  80.299  14.347  0.00  0.00    -0.221 N 
ATOM     13  N   LIG    1      -24.118  79.371  15.265  0.00  0.00    -0.173 NA
ATOM     14  C   LIG    1      -23.289  80.023  16.072  0.00  0.00    +0.150 A 
BRANCH   6  18
ATOM     15  N   LIG    1      -21.493  83.095  15.665  0.00  0.00    -0.325 N 
ATOM     16  H   LIG    1      -21.373  82.870  14.696  0.00  0.00    +0.145 HD
ATOM     17  H   LIG    1      -20.909  83.771  16.125  0.00  0.00    +0.145 HD
ATOM     18  C   LIG    1      -22.347  82.363  16.450  0.00  0.00    +0.247 C 
ATOM     19  O   LIG    1      -22.457  82.580  17.638  0.00  0.00    -0.270 OA
ENDBRANCH   6  18
ENDBRANCH   1   9
BRANCH   2  20
ATOM     20  C   LIG    1      -22.743  84.505  11.253  0.00  0.00    +0.017 A 
ATOM     21  C   LIG    1      -21.595  84.679  12.072  0.00  0.00    +0.126 A 
ATOM     22  C   LIG    1      -20.317  84.462  11.529  0.00  0.00    +0.049 A 
ATOM     23  C   LIG    1      -20.170  84.105  10.184  0.00  0.00    +0.042 A 
ATOM     24  C   LIG    1      -21.292  83.963   9.382  0.00  0.00    +0.124 A 
ATOM     25  F   LIG    1      -21.145  83.641   8.090  0.00  0.00    -0.205 F 
ATOM     26  C   LIG    1      -22.565  84.157   9.900  0.00  0.00    +0.047 A 
BRANCH  21  27
ATOM     27  O   LIG    1      -21.798  85.144  13.356  0.00  0.00    -0.489 OA
BRANCH  27  28
ATOM     28  C   LIG    1      -21.224  86.425  13.695  0.00  0.00    +0.262 C 
BRANCH  28  29
ATOM     29  C   LIG    1      -21.940  86.988  14.938  0.00  0.00    +0.177 C 
BRANCH  29  30
ATOM     30  O   LIG    1      -21.014  87.143  16.029  0.00  0.00    -0.386 OA
ATOM     31  H   LIG    1      -20.962  88.101  16.200  0.00  0.00    +0.210 HD
ENDBRANCH  29  30
BRANCH  29  32
ATOM     32  C   LIG    1      -22.571  88.362  14.684  0.00  0.00    +0.190 C 
BRANCH  32  33
ATOM     33  O   LIG    1      -22.486  89.151  15.875  0.00  0.00    -0.392 OA
ATOM     34  H   LIG    1      -21.731  89.756  15.730  0.00  0.00    +0.210 HD
ENDBRANCH  32  33
ENDBRANCH  29  32
ENDBRANCH  28  29
ENDBRANCH  27  28
ENDBRANCH  21  27
ENDBRANCH   2  20
TORSDOF 9
ENDMDL
MODEL 5
REMARK VINA RESULT:      -5.0      2.811      6.429
REMARK  Name = pdb/CHEMBL3676077.pdb
REMARK                            x       y       z     vdW  Elec       q    Type
REMARK                         _______ _______ _______ _____ _____    ______ ____
ROOT
ATOM      1  N   LIG    1      -21.009  76.356  34.347  0.00  0.00    -0.308 N 
ATOM      2  C   LIG    1      -21.704  75.777  33.166  0.00  0.00    +0.109 C 
ATOM      3  C   LIG    1      -21.678  74.251  33.409  0.00  0.00    +0.029 C 
ATOM      4  C   LIG    1      -20.703  74.036  34.554  0.00  0.00    +0.021 C 
ATOM      5  C   LIG    1      -20.821  75.315  35.355  0.00  0.00    +0.107 C 
ENDROOT
BRANCH   1   9
ATOM      6  C   LIG    1      -23.362  80.384  35.682  0.00  0.00    +0.100 A 
ATOM      7  C   LIG    1      -22.317  79.554  35.330  0.00  0.00    +0.170 A 
ATOM      8  N   LIG    1      -22.247  78.214  35.058  0.00  0.00    -0.212 NA
ATOM      9  C   LIG    1      -21.092  77.707  34.684  0.00  0.00    +0.126 A 
ATOM     10  C   LIG    1      -19.844  78.569  34.608  0.00  0.00    +0.063 A 
ATOM     11  C   LIG    1      -19.965  79.869  34.896  0.00  0.00    +0.118 A 
ATOM     12  N   LIG    1      -21.198  80.391  35.236  0.00  0.00    -0.221 N 
ATOM     13  N   LIG    1      -21.491  81.685  35.505  0.00  0.00    -0.173 NA
ATOM     14  C   LIG    1      -22.800  81.674  35.734  0.00  0.00    +0.150 A 
BRANCH   6  18
ATOM     15  N   LIG    1      -25.032  78.700  35.858  0.00  0.00    -0.325 N 
ATOM     16  H   LIG    1      -24.338  78.048  35.547  0.00  0.00    +0.145 HD
ATOM     17  H   LIG    1      -25.986  78.422  36.004  0.00  0.00    +0.145 HD
ATOM     18  C   LIG    1      -24.748  80.040  35.931  0.00  0.00    +0.247 C 
ATOM     19  O   LIG    1      -25.595  80.850  36.243  0.00  0.00    -0.270 OA
ENDBRANCH   6  18
ENDBRANCH   1   9
BRANCH   2  20
ATOM     20  C   LIG    1      -21.086  76.131  31.820  0.00  0.00    +0.017 A 
ATOM     21  C   LIG    1      -21.899  76.376  30.680  0.00  0.00    +0.126 A 
ATOM     22  C   LIG    1      -21.294  76.709  29.457  0.00  0.00    +0.049 A 
ATOM     23  C   LIG    1      -19.901  76.775  29.349  0.00  0.00    +0.042 A 
ATOM     24  C   LIG    1      -19.110  76.510  30.457  0.00  0.00    +0.124 A 
ATOM     25  F   LIG    1      -17.776  76.554  30.344  0.00  0.00    -0.205 F 
ATOM     26  C   LIG    1      -19.685  76.192  31.680  0.00  0.00    +0.047 A 
BRANCH  21  27
ATOM     27  O   LIG    1      -23.258  76.182  30.821  0.00  0.00    -0.489 OA
BRANCH  27  28
ATOM     28  C   LIG    1      -24.129  76.968  29.978  0.00  0.00    +0.262 C 
BRANCH  28  29
ATOM     29  C   LIG    1      -24.808  78.060  30.827  0.00  0.00    +0.177 C 
BRANCH  29  30
ATOM     30  O   LIG    1      -25.883  78.674  30.095  0.00  0.00    -0.386 OA
ATOM     31  H   LIG    1      -25.486  79.014  29.272  0.00  0.00    +0.210 HD
ENDBRANCH  29  30
BRANCH  29  32
ATOM     32  C   LIG    1      -25.405  77.510  32.128  0.00  0.00    +0.190 C 
BRANCH  32  33
ATOM     33  O   LIG    1      -24.497  77.755  33.207  0.00  0.00    -0.392 OA
ATOM     34  H   LIG    1      -23.798  77.076  33.114  0.00  0.00    +0.210 HD
ENDBRANCH  32  33
ENDBRANCH  29  32
ENDBRANCH  28  29
ENDBRANCH  27  28
ENDBRANCH  21  27
ENDBRANCH   2  20
TORSDOF 9
ENDMDL
MODEL 6
REMARK VINA RESULT:      -5.0     17.971     21.133
REMARK  Name = pdb/CHEMBL3676077.pdb
REMARK                            x       y       z     vdW  Elec       q    Type
REMARK                         _______ _______ _______ _____ _____    ______ ____
ROOT
ATOM      1  N   LIG    1      -22.454  82.136  14.990  0.00  0.00    -0.308 N 
ATOM      2  C   LIG    1      -22.983  80.792  14.633  0.00  0.00    +0.109 C 
ATOM      3  C   LIG    1      -23.055  80.031  15.977  0.00  0.00    +0.029 C 
ATOM      4  C   LIG    1      -22.275  80.880  16.967  0.00  0.00    +0.021 C 
ATOM      5  C   LIG    1      -22.463  82.287  16.443  0.00  0.00    +0.107 C 
ENDROOT
BRANCH   1   9
ATOM      6  C   LIG    1      -21.365  86.637  13.541  0.00  0.00    +0.100 A 
ATOM      7  C   LIG    1      -21.935  85.379  13.537  0.00  0.00    +0.170 A 
ATOM      8  N   LIG    1      -21.798  84.296  14.362  0.00  0.00    -0.212 NA
ATOM      9  C   LIG    1      -22.536  83.231  14.131  0.00  0.00    +0.126 A 
ATOM     10  C   LIG    1      -23.481  83.174  12.943  0.00  0.00    +0.063 A 
ATOM     11  C   LIG    1      -23.568  84.255  12.162  0.00  0.00    +0.118 A 
ATOM     12  N   LIG    1      -22.822  85.381  12.453  0.00  0.00    -0.221 N 
ATOM     13  N   LIG    1      -22.836  86.563  11.793  0.00  0.00    -0.173 NA
ATOM     14  C   LIG    1      -21.986  87.320  12.477  0.00  0.00    +0.150 A 
BRANCH   6  18
ATOM     15  N   LIG    1      -20.767  87.309  15.742  0.00  0.00    -0.325 N 
ATOM     16  H   LIG    1      -21.721  87.144  15.999  0.00  0.00    +0.145 HD
ATOM     17  H   LIG    1      -20.107  87.697  16.392  0.00  0.00    +0.145 HD
ATOM     18  C   LIG    1      -20.363  87.173  14.439  0.00  0.00    +0.247 C 
ATOM     19  O   LIG    1      -19.227  87.431  14.099  0.00  0.00    -0.270 OA
ENDBRANCH   6  18
ENDBRANCH   1   9
BRANCH   2  20
ATOM     20  C   LIG    1      -22.154  80.027  13.611  0.00  0.00    +0.017 A 
ATOM     21  C   LIG    1      -22.774  79.298  12.559  0.00  0.00    +0.126 A 
ATOM     22  C   LIG    1      -21.977  78.612  11.629  0.00  0.00    +0.049 A 
ATOM     23  C   LIG    1      -20.583  78.619  11.747  0.00  0.00    +0.042 A 
ATOM     24  C   LIG    1      -19.983  79.309  12.789  0.00  0.00    +0.124 A 
ATOM     25  F   LIG    1      -18.649  79.296  12.911  0.00  0.00    -0.205 F 
ATOM     26  C   LIG    1      -20.749  80.007  13.713  0.00  0.00    +0.047 A 
BRANCH  21  27
ATOM     27  O   LIG    1      -24.153  79.234  12.563  0.00  0.00    -0.489 OA
BRANCH  27  28
ATOM     28  C   LIG    1      -24.755  77.923  12.484  0.00  0.00    +0.262 C 
BRANCH  28  29
ATOM     29  C   LIG    1      -25.479  77.617  13.809  0.00  0.00    +0.177 C 
BRANCH  29  30
ATOM     30  O   LIG    1      -24.551  77.125  14.791  0.00  0.00    -0.386 OA
ATOM     31  H   LIG    1      -23.727  77.628  14.655  0.00  0.00    +0.210 HD
ENDBRANCH  29  30
BRANCH  29  32
ATOM     32  C   LIG    1      -26.160  78.852  14.409  0.00  0.00    +0.190 C 
BRANCH  32  33
ATOM     33  O   LIG    1      -26.454  78.608  15.789  0.00  0.00    -0.392 OA
ATOM     34  H   LIG    1      -26.132  79.401  16.264  0.00  0.00    +0.210 HD
ENDBRANCH  32  33
ENDBRANCH  29  32
ENDBRANCH  28  29
ENDBRANCH  27  28
ENDBRANCH  21  27
ENDBRANCH   2  20
TORSDOF 9
ENDMDL
MODEL 7
REMARK VINA RESULT:      -4.9     16.155     18.436
REMARK  Name = pdb/CHEMBL3676077.pdb
REMARK                            x       y       z     vdW  Elec       q    Type
REMARK                         _______ _______ _______ _____ _____    ______ ____
ROOT
ATOM      1  N   LIG    1      -20.875  75.628  14.850  0.00  0.00    -0.308 N 
ATOM      2  C   LIG    1      -21.777  76.540  14.095  0.00  0.00    +0.109 C 
ATOM      3  C   LIG    1      -20.978  76.912  12.824  0.00  0.00    +0.029 C 
ATOM      4  C   LIG    1      -19.558  76.439  13.082  0.00  0.00    +0.021 C 
ATOM      5  C   LIG    1      -19.749  75.251  14.000  0.00  0.00    +0.107 C 
ENDROOT
BRANCH   1   9
ATOM      6  C   LIG    1      -20.281  72.783  18.735  0.00  0.00    +0.100 A 
ATOM      7  C   LIG    1      -20.918  73.488  17.733  0.00  0.00    +0.170 A 
ATOM      8  N   LIG    1      -20.462  74.329  16.755  0.00  0.00    -0.212 NA
ATOM      9  C   LIG    1      -21.325  74.815  15.889  0.00  0.00    +0.126 A 
ATOM     10  C   LIG    1      -22.807  74.500  15.997  0.00  0.00    +0.063 A 
ATOM     11  C   LIG    1      -23.201  73.683  16.979  0.00  0.00    +0.118 A 
ATOM     12  N   LIG    1      -22.272  73.143  17.846  0.00  0.00    -0.221 N 
ATOM     13  N   LIG    1      -22.505  72.268  18.852  0.00  0.00    -0.173 NA
ATOM     14  C   LIG    1      -21.298  72.031  19.354  0.00  0.00    +0.150 A 
BRANCH   6  18
ATOM     15  N   LIG    1      -18.612  72.579  20.417  0.00  0.00    -0.325 N 
ATOM     16  H   LIG    1      -19.358  72.549  21.085  0.00  0.00    +0.145 HD
ATOM     17  H   LIG    1      -17.649  72.592  20.704  0.00  0.00    +0.145 HD
ATOM     18  C   LIG    1      -18.875  72.781  19.086  0.00  0.00    +0.247 C 
ATOM     19  O   LIG    1      -17.981  72.885  18.273  0.00  0.00    -0.270 OA
ENDBRANCH   6  18
ENDBRANCH   1   9
BRANCH   2  20
ATOM     20  C   LIG    1      -22.214  77.784  14.855  0.00  0.00    +0.017 A 
ATOM     21  C   LIG    1      -23.588  78.046  15.106  0.00  0.00    +0.126 A 
ATOM     22  C   LIG    1      -23.954  79.200  15.819  0.00  0.00    +0.049 A 
ATOM     23  C   LIG    1      -22.979  80.103  16.257  0.00  0.00    +0.042 A 
ATOM     24  C   LIG    1      -21.641  79.857  15.986  0.00  0.00    +0.124 A 
ATOM     25  F   LIG    1      -20.713  80.734  16.389  0.00  0.00    -0.205 F 
ATOM     26  C   LIG    1      -21.254  78.716  15.296  0.00  0.00    +0.047 A 
BRANCH  21  27
ATOM     27  O   LIG    1      -24.508  77.181  14.550  0.00  0.00    -0.489 OA
BRANCH  27  28
ATOM     28  C   LIG    1      -25.264  77.657  13.415  0.00  0.00    +0.262 C 
BRANCH  28  29
ATOM     29  C   LIG    1      -26.742  77.257  13.585  0.00  0.00    +0.177 C 
BRANCH  29  30
ATOM     30  O   LIG    1      -27.178  77.491  14.935  0.00  0.00    -0.386 OA
ATOM     31  H   LIG    1      -26.623  78.219  15.273  0.00  0.00    +0.210 HD
ENDBRANCH  29  30
BRANCH  29  32
ATOM     32  C   LIG    1      -27.678  78.051  12.665  0.00  0.00    +0.190 C 
BRANCH  32  33
ATOM     33  O   LIG    1      -29.036  77.721  12.972  0.00  0.00    -0.392 OA
ATOM     34  H   LIG    1      -29.575  78.401  12.519  0.00  0.00    +0.210 HD
ENDBRANCH  32  33
ENDBRANCH  29  32
ENDBRANCH  28  29
ENDBRANCH  27  28
ENDBRANCH  21  27
ENDBRANCH   2  20
TORSDOF 9
ENDMDL
MODEL 8
REMARK VINA RESULT:      -4.9     12.755     15.578
REMARK  Name = pdb/CHEMBL3676077.pdb
REMARK                            x       y       z     vdW  Elec       q    Type
REMARK                         _______ _______ _______ _____ _____    ______ ____
ROOT
ATOM      1  N   LIG    1      -38.041  77.413  26.718  0.00  0.00    -0.308 N 
ATOM      2  C   LIG    1      -36.926  76.656  26.089  0.00  0.00    +0.109 C 
ATOM      3  C   LIG    1      -37.586  75.886  24.922  0.00  0.00    +0.029 C 
ATOM      4  C   LIG    1      -39.084  76.009  25.149  0.00  0.00    +0.021 C 
ATOM      5  C   LIG    1      -39.219  77.340  25.857  0.00  0.00    +0.107 C 
ENDROOT
BRANCH   1   9
ATOM      6  C   LIG    1      -37.015  82.024  27.825  0.00  0.00    +0.100 A 
ATOM      7  C   LIG    1      -37.342  80.694  28.000  0.00  0.00    +0.170 A 
ATOM      8  N   LIG    1      -37.601  79.679  27.119  0.00  0.00    -0.212 NA
ATOM      9  C   LIG    1      -37.831  78.475  27.596  0.00  0.00    +0.126 A 
ATOM     10  C   LIG    1      -37.866  78.217  29.093  0.00  0.00    +0.063 A 
ATOM     11  C   LIG    1      -37.618  79.247  29.910  0.00  0.00    +0.118 A 
ATOM     12  N   LIG    1      -37.329  80.492  29.386  0.00  0.00    -0.221 N 
ATOM     13  N   LIG    1      -37.010  81.613  30.074  0.00  0.00    -0.173 NA
ATOM     14  C   LIG    1      -36.787  82.516  29.125  0.00  0.00    +0.150 A 
BRANCH   6  18
ATOM     15  N   LIG    1      -35.741  83.490  26.453  0.00  0.00    -0.325 N 
ATOM     16  H   LIG    1      -35.091  83.556  27.212  0.00  0.00    +0.145 HD
ATOM     17  H   LIG    1      -35.635  84.040  25.619  0.00  0.00    +0.145 HD
ATOM     18  C   LIG    1      -36.903  82.774  26.591  0.00  0.00    +0.247 C 
ATOM     19  O   LIG    1      -37.732  82.737  25.705  0.00  0.00    -0.270 OA
ENDBRANCH   6  18
ENDBRANCH   1   9
BRANCH   2  20
ATOM     20  C   LIG    1      -36.185  75.710  27.024  0.00  0.00    +0.017 A 
ATOM     21  C   LIG    1      -34.863  75.995  27.461  0.00  0.00    +0.126 A 
ATOM     22  C   LIG    1      -34.214  75.103  28.332  0.00  0.00    +0.049 A 
ATOM     23  C   LIG    1      -34.850  73.928  28.747  0.00  0.00    +0.042 A 
ATOM     24  C   LIG    1      -36.129  73.641  28.297  0.00  0.00    +0.124 A 
ATOM     25  F   LIG    1      -36.726  72.504  28.680  0.00  0.00    -0.205 F 
ATOM     26  C   LIG    1      -36.797  74.513  27.448  0.00  0.00    +0.047 A 
BRANCH  21  27
ATOM     27  O   LIG    1      -34.247  77.108  26.927  0.00  0.00    -0.489 OA
BRANCH  27  28
ATOM     28  C   LIG    1      -32.899  77.391  27.360  0.00  0.00    +0.262 C 
BRANCH  28  29
ATOM     29  C   LIG    1      -32.544  78.846  26.998  0.00  0.00    +0.177 C 
BRANCH  29  30
ATOM     30  O   LIG    1      -32.382  78.989  25.575  0.00  0.00    -0.386 OA
ATOM     31  H   LIG    1      -32.797  78.201  25.179  0.00  0.00    +0.210 HD
ENDBRANCH  29  30
BRANCH  29  32
ATOM     32  C   LIG    1      -33.625  79.843  27.431  0.00  0.00    +0.190 C 
BRANCH  32  33
ATOM     33  O   LIG    1      -34.139  79.459  28.710  0.00  0.00    -0.392 OA
ATOM     34  H   LIG    1      -35.096  79.666  28.675  0.00  0.00    +0.210 HD
ENDBRANCH  32  33
ENDBRANCH  29  32
ENDBRANCH  28  29
ENDBRANCH  27  28
ENDBRANCH  21  27
ENDBRANCH   2  20
TORSDOF 9
ENDMDL
MODEL 9
REMARK VINA RESULT:      -4.9     15.752     18.157
REMARK  Name = pdb/CHEMBL3676077.pdb
REMARK                            x       y       z     vdW  Elec       q    Type
REMARK                         _______ _______ _______ _____ _____    ______ ____
ROOT
ATOM      1  N   LIG    1      -37.840  74.425  26.437  0.00  0.00    -0.308 N 
ATOM      2  C   LIG    1      -37.974  74.729  24.986  0.00  0.00    +0.109 C 
ATOM      3  C   LIG    1      -37.565  76.215  24.860  0.00  0.00    +0.029 C 
ATOM      4  C   LIG    1      -37.523  76.748  26.282  0.00  0.00    +0.021 C 
ATOM      5  C   LIG    1      -37.150  75.530  27.099  0.00  0.00    +0.107 C 
ENDROOT
BRANCH   1   9
ATOM      6  C   LIG    1      -35.876  70.025  27.005  0.00  0.00    +0.100 A 
ATOM      7  C   LIG    1      -36.768  71.071  27.140  0.00  0.00    +0.170 A 
ATOM      8  N   LIG    1      -36.758  72.363  26.689  0.00  0.00    -0.212 NA
ATOM      9  C   LIG    1      -37.803  73.124  26.934  0.00  0.00    +0.126 A 
ATOM     10  C   LIG    1      -38.976  72.606  27.749  0.00  0.00    +0.063 A 
ATOM     11  C   LIG    1      -38.930  71.340  28.176  0.00  0.00    +0.118 A 
ATOM     12  N   LIG    1      -37.846  70.543  27.863  0.00  0.00    -0.221 N 
ATOM     13  N   LIG    1      -37.674  69.238  28.177  0.00  0.00    -0.173 NA
ATOM     14  C   LIG    1      -36.507  68.929  27.624  0.00  0.00    +0.150 A 
BRANCH   6  18
ATOM     15  N   LIG    1      -34.449  70.905  25.319  0.00  0.00    -0.325 N 
ATOM     16  H   LIG    1      -35.239  71.424  24.989  0.00  0.00    +0.145 HD
ATOM     17  H   LIG    1      -33.571  70.916  24.831  0.00  0.00    +0.145 HD
ATOM     18  C   LIG    1      -34.580  70.019  26.358  0.00  0.00    +0.247 C 
ATOM     19  O   LIG    1      -33.648  69.336  26.729  0.00  0.00    -0.270 OA
ENDBRANCH   6  18
ENDBRANCH   1   9
BRANCH   2  20
ATOM     20  C   LIG    1      -39.360  74.488  24.406  0.00  0.00    +0.017 A 
ATOM     21  C   LIG    1      -39.790  73.180  24.050  0.00  0.00    +0.126 A 
ATOM     22  C   LIG    1      -41.080  72.994  23.525  0.00  0.00    +0.049 A 
ATOM     23  C   LIG    1      -41.929  74.087  23.326  0.00  0.00    +0.042 A 
ATOM     24  C   LIG    1      -41.497  75.364  23.650  0.00  0.00    +0.124 A 
ATOM     25  F   LIG    1      -42.306  76.411  23.438  0.00  0.00    -0.205 F 
ATOM     26  C   LIG    1      -40.232  75.572  24.183  0.00  0.00    +0.047 A 
BRANCH  21  27
ATOM     27  O   LIG    1      -38.867  72.159  24.161  0.00  0.00    -0.489 OA
BRANCH  27  28
ATOM     28  C   LIG    1      -39.370  70.806  24.130  0.00  0.00    +0.262 C 
BRANCH  28  29
ATOM     29  C   LIG    1      -38.278  69.872  23.574  0.00  0.00    +0.177 C 
BRANCH  29  30
ATOM     30  O   LIG    1      -36.987  70.500  23.649  0.00  0.00    -0.386 OA
ATOM     31  H   LIG    1      -36.999  71.217  22.989  0.00  0.00    +0.210 HD
ENDBRANCH  29  30
BRANCH  29  32
ATOM     32  C   LIG    1      -38.182  68.550  24.345  0.00  0.00    +0.190 C 
BRANCH  32  33
ATOM     33  O   LIG    1      -39.133  68.555  25.415  0.00  0.00    -0.392 OA
ATOM     34  H   LIG    1      -38.664  68.956  26.174  0.00  0.00    +0.210 HD
ENDBRANCH  32  33
ENDBRANCH  29  32
ENDBRANCH  28  29
ENDBRANCH  27  28
ENDBRANCH  21  27
ENDBRANCH   2  20
TORSDOF 9
ENDMDL
