MODEL 1
REMARK VINA RESULT:      -5.9      0.000      0.000
REMARK  Name = pdb/CHEMBL2151321.pdb
REMARK                            x       y       z     vdW  Elec       q    Type
REMARK                         _______ _______ _______ _____ _____    ______ ____
ROOT
ATOM      1  N   LIG    1      -21.898  77.296  30.590  0.00  0.00    -0.266 N 
ATOM      2  C   LIG    1      -20.888  77.733  31.446  0.00  0.00    +0.168 A 
ATOM      3  N   LIG    1      -20.964  78.485  32.582  0.00  0.00    -0.213 NA
ATOM      4  C   LIG    1      -19.759  78.770  33.145  0.00  0.00    +0.122 A 
ATOM      5  C   LIG    1      -18.546  78.310  32.621  0.00  0.00    +0.046 A 
ATOM      6  C   LIG    1      -18.505  77.544  31.461  0.00  0.00    +0.035 A 
ATOM      7  C   LIG    1      -19.722  77.243  30.861  0.00  0.00    +0.108 A 
ATOM      8  N   LIG    1      -19.968  76.513  29.734  0.00  0.00    -0.234 NA
ATOM      9  C   LIG    1      -21.273  76.557  29.603  0.00  0.00    +0.207 A 
ENDROOT
BRANCH   1  14
ATOM     10  C   LIG    1      -25.445  77.547  31.187  0.00  0.00    +0.213 A 
ATOM     11  N   LIG    1      -25.180  78.292  30.062  0.00  0.00    -0.245 N 
ATOM     12  H   LIG    1      -25.843  78.810  29.504  0.00  0.00    +0.192 HD
ATOM     13  N   LIG    1      -23.886  78.275  29.698  0.00  0.00    -0.153 NA
ATOM     14  C   LIG    1      -23.297  77.529  30.649  0.00  0.00    +0.165 A 
ATOM     15  C   LIG    1      -24.218  77.073  31.603  0.00  0.00    +0.115 A 
BRANCH  10  16
ATOM     16  O   LIG    1      -26.698  77.421  31.629  0.00  0.00    -0.474 OA
BRANCH  16  18
ATOM     17  C   LIG    1      -27.812  77.063  33.732  0.00  0.00    +0.051 C 
ATOM     18  C   LIG    1      -26.892  76.459  32.677  0.00  0.00    +0.169 C 
ATOM     19  C   LIG    1      -27.508  75.181  32.113  0.00  0.00    +0.051 C 
ENDBRANCH  16  18
ENDBRANCH  10  16
ENDBRANCH   1  14
BRANCH   4  20
ATOM     20  N   LIG    1      -19.761  79.525  34.319  0.00  0.00    -0.321 N 
ATOM     21  H   LIG    1      -18.825  79.848  34.551  0.00  0.00    +0.148 HD
BRANCH  20  22
ATOM     22  C   LIG    1      -20.584  79.134  35.475  0.00  0.00    +0.117 C 
ATOM     23  C   LIG    1      -19.739  78.803  36.713  0.00  0.00    +0.034 C 
BRANCH  22  24
ATOM     24  C   LIG    1      -21.591  80.241  35.799  0.00  0.00    +0.061 A 
ATOM     25  N   LIG    1      -22.914  79.968  35.632  0.00  0.00    -0.255 NA
ATOM     26  C   LIG    1      -23.795  80.963  35.890  0.00  0.00    +0.149 A 
ATOM     27  C   LIG    1      -23.422  82.219  36.328  0.00  0.00    +0.141 A 
ATOM     28  F   LIG    1      -24.344  83.161  36.563  0.00  0.00    -0.204 F 
ATOM     29  C   LIG    1      -22.078  82.488  36.521  0.00  0.00    +0.042 A 
ATOM     30  C   LIG    1      -21.143  81.487  36.254  0.00  0.00    +0.028 A 
ENDBRANCH  22  24
ENDBRANCH  20  22
ENDBRANCH   4  20
TORSDOF 6
ENDMDL
MODEL 2
REMARK VINA RESULT:      -5.9      1.895      2.395
REMARK  Name = pdb/CHEMBL2151321.pdb
REMARK                            x       y       z     vdW  Elec       q    Type
REMARK                         _______ _______ _______ _____ _____    ______ ____
ROOT
ATOM      1  N   LIG    1      -21.623  77.412  30.978  0.00  0.00    -0.266 N 
ATOM      2  C   LIG    1      -20.919  77.952  32.053  0.00  0.00    +0.168 A 
ATOM      3  N   LIG    1      -21.377  78.498  33.217  0.00  0.00    -0.213 NA
ATOM      4  C   LIG    1      -20.399  78.981  34.030  0.00  0.00    +0.122 A 
ATOM      5  C   LIG    1      -19.039  78.901  33.714  0.00  0.00    +0.046 A 
ATOM      6  C   LIG    1      -18.606  78.338  32.519  0.00  0.00    +0.035 A 
ATOM      7  C   LIG    1      -19.585  77.842  31.666  0.00  0.00    +0.108 A 
ATOM      8  N   LIG    1      -19.441  77.240  30.449  0.00  0.00    -0.234 NA
ATOM      9  C   LIG    1      -20.671  76.989  30.068  0.00  0.00    +0.207 A 
ENDROOT
BRANCH   1  14
ATOM     10  C   LIG    1      -25.164  76.736  30.896  0.00  0.00    +0.213 A 
ATOM     11  N   LIG    1      -24.912  77.643  29.894  0.00  0.00    -0.245 N 
ATOM     12  H   LIG    1      -25.581  78.045  29.254  0.00  0.00    +0.192 HD
ATOM     13  N   LIG    1      -23.614  77.978  29.785  0.00  0.00    -0.153 NA
ATOM     14  C   LIG    1      -23.024  77.295  30.782  0.00  0.00    +0.165 A 
ATOM     15  C   LIG    1      -23.945  76.528  31.510  0.00  0.00    +0.115 A 
BRANCH  10  16
ATOM     16  O   LIG    1      -26.399  76.265  31.081  0.00  0.00    -0.474 OA
BRANCH  16  18
ATOM     17  C   LIG    1      -28.637  76.773  31.805  0.00  0.00    +0.051 C 
ATOM     18  C   LIG    1      -27.152  76.896  32.128  0.00  0.00    +0.169 C 
ATOM     19  C   LIG    1      -26.851  76.232  33.469  0.00  0.00    +0.051 C 
ENDBRANCH  16  18
ENDBRANCH  10  16
ENDBRANCH   1  14
BRANCH   4  20
ATOM     20  N   LIG    1      -20.793  79.542  35.246  0.00  0.00    -0.321 N 
ATOM     21  H   LIG    1      -21.384  78.904  35.772  0.00  0.00    +0.148 HD
BRANCH  20  22
ATOM     22  C   LIG    1      -21.173  80.961  35.343  0.00  0.00    +0.117 C 
ATOM     23  C   LIG    1      -22.695  81.162  35.337  0.00  0.00    +0.034 C 
BRANCH  22  24
ATOM     24  C   LIG    1      -20.560  81.582  36.601  0.00  0.00    +0.061 A 
ATOM     25  N   LIG    1      -19.755  80.799  37.372  0.00  0.00    -0.255 NA
ATOM     26  C   LIG    1      -19.244  81.347  38.499  0.00  0.00    +0.149 A 
ATOM     27  C   LIG    1      -19.478  82.651  38.888  0.00  0.00    +0.141 A 
ATOM     28  F   LIG    1      -18.944  83.133  40.018  0.00  0.00    -0.204 F 
ATOM     29  C   LIG    1      -20.276  83.454  38.091  0.00  0.00    +0.042 A 
ATOM     30  C   LIG    1      -20.828  82.916  36.928  0.00  0.00    +0.028 A 
ENDBRANCH  22  24
ENDBRANCH  20  22
ENDBRANCH   4  20
TORSDOF 6
ENDMDL
MODEL 3
REMARK VINA RESULT:      -5.8     13.493     17.576
REMARK  Name = pdb/CHEMBL2151321.pdb
REMARK                            x       y       z     vdW  Elec       q    Type
REMARK                         _______ _______ _______ _____ _____    ______ ____
ROOT
ATOM      1  N   LIG    1      -39.887  78.458  24.063  0.00  0.00    -0.266 N 
ATOM      2  C   LIG    1      -39.123  77.397  24.546  0.00  0.00    +0.168 A 
ATOM      3  N   LIG    1      -37.894  77.398  25.140  0.00  0.00    -0.213 NA
ATOM      4  C   LIG    1      -37.418  76.161  25.443  0.00  0.00    +0.122 A 
ATOM      5  C   LIG    1      -38.138  74.987  25.194  0.00  0.00    +0.046 A 
ATOM      6  C   LIG    1      -39.389  75.021  24.588  0.00  0.00    +0.035 A 
ATOM      7  C   LIG    1      -39.896  76.273  24.261  0.00  0.00    +0.108 A 
ATOM      8  N   LIG    1      -41.086  76.592  23.673  0.00  0.00    -0.234 NA
ATOM      9  C   LIG    1      -41.054  77.900  23.574  0.00  0.00    +0.207 A 
ENDROOT
BRANCH   1  14
ATOM     10  C   LIG    1      -39.169  81.958  24.550  0.00  0.00    +0.213 A 
ATOM     11  N   LIG    1      -39.191  81.744  23.191  0.00  0.00    -0.245 N 
ATOM     12  H   LIG    1      -39.040  82.429  22.465  0.00  0.00    +0.192 HD
ATOM     13  N   LIG    1      -39.473  80.475  22.850  0.00  0.00    -0.153 NA
ATOM     14  C   LIG    1      -39.590  79.845  24.033  0.00  0.00    +0.165 A 
ATOM     15  C   LIG    1      -39.390  80.717  25.113  0.00  0.00    +0.115 A 
BRANCH  10  16
ATOM     16  O   LIG    1      -38.963  83.184  25.033  0.00  0.00    -0.474 OA
BRANCH  16  18
ATOM     17  C   LIG    1      -37.929  85.323  24.647  0.00  0.00    +0.051 C 
ATOM     18  C   LIG    1      -37.735  83.811  24.631  0.00  0.00    +0.169 C 
ATOM     19  C   LIG    1      -36.606  83.417  25.581  0.00  0.00    +0.051 C 
ENDBRANCH  16  18
ENDBRANCH  10  16
ENDBRANCH   1  14
BRANCH   4  20
ATOM     20  N   LIG    1      -36.172  76.086  26.066  0.00  0.00    -0.321 N 
ATOM     21  H   LIG    1      -35.627  75.306  25.708  0.00  0.00    +0.148 HD
BRANCH  20  22
ATOM     22  C   LIG    1      -36.026  76.331  27.510  0.00  0.00    +0.117 C 
ATOM     23  C   LIG    1      -35.018  75.378  28.168  0.00  0.00    +0.034 C 
BRANCH  22  24
ATOM     24  C   LIG    1      -35.621  77.786  27.756  0.00  0.00    +0.061 A 
ATOM     25  N   LIG    1      -34.322  78.132  27.540  0.00  0.00    -0.255 NA
ATOM     26  C   LIG    1      -33.965  79.413  27.792  0.00  0.00    +0.149 A 
ATOM     27  C   LIG    1      -34.849  80.379  28.231  0.00  0.00    +0.141 A 
ATOM     28  F   LIG    1      -34.433  81.630  28.464  0.00  0.00    -0.204 F 
ATOM     29  C   LIG    1      -36.175  80.033  28.427  0.00  0.00    +0.042 A 
ATOM     30  C   LIG    1      -36.573  78.717  28.187  0.00  0.00    +0.028 A 
ENDBRANCH  22  24
ENDBRANCH  20  22
ENDBRANCH   4  20
TORSDOF 6
ENDMDL
MODEL 4
REMARK VINA RESULT:      -5.7     13.707     17.614
REMARK  Name = pdb/CHEMBL2151321.pdb
REMARK                            x       y       z     vdW  Elec       q    Type
REMARK                         _______ _______ _______ _____ _____    ______ ____
ROOT
ATOM      1  N   LIG    1      -38.753  72.190  24.511  0.00  0.00    -0.266 N 
ATOM      2  C   LIG    1      -38.809  73.583  24.533  0.00  0.00    +0.168 A 
ATOM      3  N   LIG    1      -37.887  74.492  24.965  0.00  0.00    -0.213 NA
ATOM      4  C   LIG    1      -38.300  75.785  24.887  0.00  0.00    +0.122 A 
ATOM      5  C   LIG    1      -39.551  76.156  24.380  0.00  0.00    +0.046 A 
ATOM      6  C   LIG    1      -40.466  75.203  23.947  0.00  0.00    +0.035 A 
ATOM      7  C   LIG    1      -40.073  73.872  24.023  0.00  0.00    +0.108 A 
ATOM      8  N   LIG    1      -40.762  72.750  23.663  0.00  0.00    -0.234 NA
ATOM      9  C   LIG    1      -39.948  71.765  23.960  0.00  0.00    +0.207 A 
ENDROOT
BRANCH   1  14
ATOM     10  C   LIG    1      -36.398  69.994  26.135  0.00  0.00    +0.213 A 
ATOM     11  N   LIG    1      -35.945  70.177  24.849  0.00  0.00    -0.245 N 
ATOM     12  H   LIG    1      -35.116  69.781  24.433  0.00  0.00    +0.192 HD
ATOM     13  N   LIG    1      -36.717  71.001  24.119  0.00  0.00    -0.153 NA
ATOM     14  C   LIG    1      -37.723  71.320  24.954  0.00  0.00    +0.165 A 
ATOM     15  C   LIG    1      -37.579  70.705  26.206  0.00  0.00    +0.115 A 
BRANCH  10  16
ATOM     16  O   LIG    1      -35.698  69.250  26.993  0.00  0.00    -0.474 OA
BRANCH  16  18
ATOM     17  C   LIG    1      -33.389  69.280  27.671  0.00  0.00    +0.051 C 
ATOM     18  C   LIG    1      -34.371  68.899  26.570  0.00  0.00    +0.169 C 
ATOM     19  C   LIG    1      -34.287  67.401  26.287  0.00  0.00    +0.051 C 
ENDBRANCH  16  18
ENDBRANCH  10  16
ENDBRANCH   1  14
BRANCH   4  20
ATOM     20  N   LIG    1      -37.403  76.773  25.298  0.00  0.00    -0.321 N 
ATOM     21  H   LIG    1      -36.555  76.757  24.739  0.00  0.00    +0.148 HD
BRANCH  20  22
ATOM     22  C   LIG    1      -37.198  77.068  26.726  0.00  0.00    +0.117 C 
ATOM     23  C   LIG    1      -38.435  76.744  27.576  0.00  0.00    +0.034 C 
BRANCH  22  24
ATOM     24  C   LIG    1      -35.979  76.304  27.249  0.00  0.00    +0.061 A 
ATOM     25  N   LIG    1      -34.744  76.791  26.946  0.00  0.00    -0.255 NA
ATOM     26  C   LIG    1      -33.671  76.091  27.385  0.00  0.00    +0.149 A 
ATOM     27  C   LIG    1      -33.768  74.935  28.133  0.00  0.00    +0.141 A 
ATOM     28  F   LIG    1      -32.667  74.287  28.535  0.00  0.00    -0.204 F 
ATOM     29  C   LIG    1      -35.024  74.454  28.462  0.00  0.00    +0.042 A 
ATOM     30  C   LIG    1      -36.151  75.146  28.015  0.00  0.00    +0.028 A 
ENDBRANCH  22  24
ENDBRANCH  20  22
ENDBRANCH   4  20
TORSDOF 6
ENDMDL
MODEL 5
REMARK VINA RESULT:      -5.6     10.877     14.358
REMARK  Name = pdb/CHEMBL2151321.pdb
REMARK                            x       y       z     vdW  Elec       q    Type
REMARK                         _______ _______ _______ _____ _____    ______ ____
ROOT
ATOM      1  N   LIG    1      -34.753  83.713  29.563  0.00  0.00    -0.266 N 
ATOM      2  C   LIG    1      -34.984  82.365  29.294  0.00  0.00    +0.168 A 
ATOM      3  N   LIG    1      -34.156  81.288  29.424  0.00  0.00    -0.213 NA
ATOM      4  C   LIG    1      -34.701  80.111  29.015  0.00  0.00    +0.122 A 
ATOM      5  C   LIG    1      -36.009  80.007  28.529  0.00  0.00    +0.046 A 
ATOM      6  C   LIG    1      -36.827  81.125  28.410  0.00  0.00    +0.035 A 
ATOM      7  C   LIG    1      -36.293  82.342  28.815  0.00  0.00    +0.108 A 
ATOM      8  N   LIG    1      -36.872  83.578  28.813  0.00  0.00    -0.234 NA
ATOM      9  C   LIG    1      -35.932  84.372  29.270  0.00  0.00    +0.207 A 
ENDROOT
BRANCH   1  14
ATOM     10  C   LIG    1      -31.729  85.559  30.238  0.00  0.00    +0.213 A 
ATOM     11  N   LIG    1      -32.018  84.844  31.377  0.00  0.00    -0.245 N 
ATOM     12  H   LIG    1      -31.491  84.830  32.237  0.00  0.00    +0.192 HD
ATOM     13  N   LIG    1      -33.119  84.080  31.268  0.00  0.00    -0.153 NA
ATOM     14  C   LIG    1      -33.575  84.351  30.031  0.00  0.00    +0.165 A 
ATOM     15  C   LIG    1      -32.759  85.276  29.364  0.00  0.00    +0.115 A 
BRANCH  10  16
ATOM     16  O   LIG    1      -30.631  86.313  30.180  0.00  0.00    -0.474 OA
BRANCH  16  18
ATOM     17  C   LIG    1      -29.250  87.927  31.311  0.00  0.00    +0.051 C 
ATOM     18  C   LIG    1      -30.674  87.531  30.940  0.00  0.00    +0.169 C 
ATOM     19  C   LIG    1      -31.331  88.640  30.122  0.00  0.00    +0.051 C 
ENDBRANCH  16  18
ENDBRANCH  10  16
ENDBRANCH   1  14
BRANCH   4  20
ATOM     20  N   LIG    1      -33.916  78.964  29.132  0.00  0.00    -0.321 N 
ATOM     21  H   LIG    1      -33.179  79.090  29.820  0.00  0.00    +0.148 HD
BRANCH  20  22
ATOM     22  C   LIG    1      -33.528  78.182  27.946  0.00  0.00    +0.117 C 
ATOM     23  C   LIG    1      -32.359  78.818  27.180  0.00  0.00    +0.034 C 
BRANCH  22  24
ATOM     24  C   LIG    1      -33.179  76.748  28.355  0.00  0.00    +0.061 A 
ATOM     25  N   LIG    1      -32.113  76.563  29.182  0.00  0.00    -0.255 NA
ATOM     26  C   LIG    1      -31.791  75.290  29.512  0.00  0.00    +0.149 A 
ATOM     27  C   LIG    1      -32.496  74.187  29.074  0.00  0.00    +0.141 A 
ATOM     28  F   LIG    1      -32.125  72.952  29.435  0.00  0.00    -0.204 F 
ATOM     29  C   LIG    1      -33.595  74.377  28.253  0.00  0.00    +0.042 A 
ATOM     30  C   LIG    1      -33.946  75.677  27.885  0.00  0.00    +0.028 A 
ENDBRANCH  22  24
ENDBRANCH  20  22
ENDBRANCH   4  20
TORSDOF 6
ENDMDL
MODEL 6
REMARK VINA RESULT:      -5.5     13.293     17.485
REMARK  Name = pdb/CHEMBL2151321.pdb
REMARK                            x       y       z     vdW  Elec       q    Type
REMARK                         _______ _______ _______ _____ _____    ______ ____
ROOT
ATOM      1  N   LIG    1      -39.859  78.331  24.075  0.00  0.00    -0.266 N 
ATOM      2  C   LIG    1      -39.070  77.298  24.580  0.00  0.00    +0.168 A 
ATOM      3  N   LIG    1      -37.872  77.347  25.231  0.00  0.00    -0.213 NA
ATOM      4  C   LIG    1      -37.355  76.127  25.539  0.00  0.00    +0.122 A 
ATOM      5  C   LIG    1      -38.007  74.926  25.240  0.00  0.00    +0.046 A 
ATOM      6  C   LIG    1      -39.228  74.913  24.576  0.00  0.00    +0.035 A 
ATOM      7  C   LIG    1      -39.777  76.146  24.243  0.00  0.00    +0.108 A 
ATOM      8  N   LIG    1      -40.952  76.419  23.603  0.00  0.00    -0.234 NA
ATOM      9  C   LIG    1      -40.975  77.729  23.524  0.00  0.00    +0.207 A 
ENDROOT
BRANCH   1  14
ATOM     10  C   LIG    1      -39.390  81.862  24.633  0.00  0.00    +0.213 A 
ATOM     11  N   LIG    1      -39.186  81.644  23.290  0.00  0.00    -0.245 N 
ATOM     12  H   LIG    1      -38.954  82.332  22.590  0.00  0.00    +0.192 HD
ATOM     13  N   LIG    1      -39.352  80.362  22.922  0.00  0.00    -0.153 NA
ATOM     14  C   LIG    1      -39.626  79.731  24.079  0.00  0.00    +0.165 A 
ATOM     15  C   LIG    1      -39.640  80.615  25.167  0.00  0.00    +0.115 A 
BRANCH  10  16
ATOM     16  O   LIG    1      -39.320  83.098  25.130  0.00  0.00    -0.474 OA
BRANCH  16  18
ATOM     17  C   LIG    1      -39.929  85.173  24.072  0.00  0.00    +0.051 C 
ATOM     18  C   LIG    1      -38.850  84.106  24.222  0.00  0.00    +0.169 C 
ATOM     19  C   LIG    1      -37.562  84.733  24.750  0.00  0.00    +0.051 C 
ENDBRANCH  16  18
ENDBRANCH  10  16
ENDBRANCH   1  14
BRANCH   4  20
ATOM     20  N   LIG    1      -36.136  76.099  26.219  0.00  0.00    -0.321 N 
ATOM     21  H   LIG    1      -35.720  75.172  26.193  0.00  0.00    +0.148 HD
BRANCH  20  22
ATOM     22  C   LIG    1      -35.955  76.822  27.489  0.00  0.00    +0.117 C 
ATOM     23  C   LIG    1      -36.934  76.354  28.575  0.00  0.00    +0.034 C 
BRANCH  22  24
ATOM     24  C   LIG    1      -34.511  76.675  27.975  0.00  0.00    +0.061 A 
ATOM     25  N   LIG    1      -34.259  75.771  28.960  0.00  0.00    -0.255 NA
ATOM     26  C   LIG    1      -32.984  75.671  29.407  0.00  0.00    +0.149 A 
ATOM     27  C   LIG    1      -31.938  76.417  28.901  0.00  0.00    +0.141 A 
ATOM     28  F   LIG    1      -30.700  76.273  29.388  0.00  0.00    -0.204 F 
ATOM     29  C   LIG    1      -32.191  77.318  27.881  0.00  0.00    +0.042 A 
ATOM     30  C   LIG    1      -33.496  77.453  27.406  0.00  0.00    +0.028 A 
ENDBRANCH  22  24
ENDBRANCH  20  22
ENDBRANCH   4  20
TORSDOF 6
ENDMDL
MODEL 7
REMARK VINA RESULT:      -5.4      5.262     10.125
REMARK  Name = pdb/CHEMBL2151321.pdb
REMARK                            x       y       z     vdW  Elec       q    Type
REMARK                         _______ _______ _______ _____ _____    ______ ____
ROOT
ATOM      1  N   LIG    1      -26.107  76.775  32.552  0.00  0.00    -0.266 N 
ATOM      2  C   LIG    1      -27.497  76.754  32.447  0.00  0.00    +0.168 A 
ATOM      3  N   LIG    1      -28.295  76.767  31.340  0.00  0.00    -0.213 NA
ATOM      4  C   LIG    1      -29.627  76.793  31.611  0.00  0.00    +0.122 A 
ATOM      5  C   LIG    1      -30.139  76.779  32.914  0.00  0.00    +0.046 A 
ATOM      6  C   LIG    1      -29.297  76.765  34.020  0.00  0.00    +0.035 A 
ATOM      7  C   LIG    1      -27.930  76.746  33.771  0.00  0.00    +0.108 A 
ATOM      8  N   LIG    1      -26.894  76.723  34.661  0.00  0.00    -0.234 NA
ATOM      9  C   LIG    1      -25.822  76.734  33.904  0.00  0.00    +0.207 A 
ENDROOT
BRANCH   1  14
ATOM     10  C   LIG    1      -23.360  76.508  30.230  0.00  0.00    +0.213 A 
ATOM     11  N   LIG    1      -24.146  77.549  29.795  0.00  0.00    -0.245 N 
ATOM     12  H   LIG    1      -23.991  78.133  28.986  0.00  0.00    +0.192 HD
ATOM     13  N   LIG    1      -25.210  77.787  30.582  0.00  0.00    -0.153 NA
ATOM     14  C   LIG    1      -25.125  76.835  31.529  0.00  0.00    +0.165 A 
ATOM     15  C   LIG    1      -24.008  76.008  31.342  0.00  0.00    +0.115 A 
BRANCH  10  16
ATOM     16  O   LIG    1      -22.237  76.199  29.582  0.00  0.00    -0.474 OA
BRANCH  16  18
ATOM     17  C   LIG    1      -20.518  75.308  31.012  0.00  0.00    +0.051 C 
ATOM     18  C   LIG    1      -21.016  76.536  30.259  0.00  0.00    +0.169 C 
ATOM     19  C   LIG    1      -19.964  76.997  29.254  0.00  0.00    +0.051 C 
ENDBRANCH  16  18
ENDBRANCH  10  16
ENDBRANCH   1  14
BRANCH   4  20
ATOM     20  N   LIG    1      -30.505  76.792  30.526  0.00  0.00    -0.321 N 
ATOM     21  H   LIG    1      -31.253  77.468  30.657  0.00  0.00    +0.148 HD
BRANCH  20  22
ATOM     22  C   LIG    1      -30.913  75.536  29.877  0.00  0.00    +0.117 C 
ATOM     23  C   LIG    1      -31.196  74.417  30.889  0.00  0.00    +0.034 C 
BRANCH  22  24
ATOM     24  C   LIG    1      -32.140  75.777  28.994  0.00  0.00    +0.061 A 
ATOM     25  N   LIG    1      -33.049  74.770  28.877  0.00  0.00    -0.255 NA
ATOM     26  C   LIG    1      -34.114  74.980  28.068  0.00  0.00    +0.149 A 
ATOM     27  C   LIG    1      -34.331  76.158  27.382  0.00  0.00    +0.141 A 
ATOM     28  F   LIG    1      -35.404  76.302  26.595  0.00  0.00    -0.204 F 
ATOM     29  C   LIG    1      -33.419  77.191  27.521  0.00  0.00    +0.042 A 
ATOM     30  C   LIG    1      -32.304  77.002  28.339  0.00  0.00    +0.028 A 
ENDBRANCH  22  24
ENDBRANCH  20  22
ENDBRANCH   4  20
TORSDOF 6
ENDMDL
MODEL 8
REMARK VINA RESULT:      -5.4     10.534     12.884
REMARK  Name = pdb/CHEMBL2151321.pdb
REMARK                            x       y       z     vdW  Elec       q    Type
REMARK                         _______ _______ _______ _____ _____    ______ ____
ROOT
ATOM      1  N   LIG    1      -35.476  81.156  28.921  0.00  0.00    -0.266 N 
ATOM      2  C   LIG    1      -35.225  82.303  29.673  0.00  0.00    +0.168 A 
ATOM      3  N   LIG    1      -34.040  82.860  30.056  0.00  0.00    -0.213 NA
ATOM      4  C   LIG    1      -34.169  83.964  30.839  0.00  0.00    +0.122 A 
ATOM      5  C   LIG    1      -35.410  84.501  31.199  0.00  0.00    +0.046 A 
ATOM      6  C   LIG    1      -36.600  83.908  30.790  0.00  0.00    +0.035 A 
ATOM      7  C   LIG    1      -36.497  82.773  29.995  0.00  0.00    +0.108 A 
ATOM      8  N   LIG    1      -37.491  82.008  29.456  0.00  0.00    -0.234 NA
ATOM      9  C   LIG    1      -36.851  81.057  28.817  0.00  0.00    +0.207 A 
ENDROOT
BRANCH   1  14
ATOM     10  C   LIG    1      -33.159  78.554  27.991  0.00  0.00    +0.213 A 
ATOM     11  N   LIG    1      -33.298  79.370  26.893  0.00  0.00    -0.245 N 
ATOM     12  H   LIG    1      -32.842  79.271  25.998  0.00  0.00    +0.192 HD
ATOM     13  N   LIG    1      -34.123  80.412  27.098  0.00  0.00    -0.153 NA
ATOM     14  C   LIG    1      -34.562  80.228  28.356  0.00  0.00    +0.165 A 
ATOM     15  C   LIG    1      -34.010  79.081  28.942  0.00  0.00    +0.115 A 
BRANCH  10  16
ATOM     16  O   LIG    1      -32.323  77.515  27.953  0.00  0.00    -0.474 OA
BRANCH  16  18
ATOM     17  C   LIG    1      -33.355  75.363  28.265  0.00  0.00    +0.051 C 
ATOM     18  C   LIG    1      -32.567  76.488  28.927  0.00  0.00    +0.169 C 
ATOM     19  C   LIG    1      -31.245  75.952  29.470  0.00  0.00    +0.051 C 
ENDBRANCH  16  18
ENDBRANCH  10  16
ENDBRANCH   1  14
BRANCH   4  20
ATOM     20  N   LIG    1      -32.998  84.597  31.257  0.00  0.00    -0.321 N 
ATOM     21  H   LIG    1      -33.143  85.106  32.124  0.00  0.00    +0.148 HD
BRANCH  20  22
ATOM     22  C   LIG    1      -32.103  85.259  30.294  0.00  0.00    +0.117 C 
ATOM     23  C   LIG    1      -32.870  85.927  29.144  0.00  0.00    +0.034 C 
BRANCH  22  24
ATOM     24  C   LIG    1      -31.224  86.285  31.014  0.00  0.00    +0.061 A 
ATOM     25  N   LIG    1      -30.226  86.879  30.304  0.00  0.00    -0.255 NA
ATOM     26  C   LIG    1      -29.433  87.761  30.957  0.00  0.00    +0.149 A 
ATOM     27  C   LIG    1      -29.600  88.098  32.286  0.00  0.00    +0.141 A 
ATOM     28  F   LIG    1      -28.779  88.976  32.875  0.00  0.00    -0.204 F 
ATOM     29  C   LIG    1      -30.631  87.513  33.000  0.00  0.00    +0.042 A 
ATOM     30  C   LIG    1      -31.459  86.591  32.359  0.00  0.00    +0.028 A 
ENDBRANCH  22  24
ENDBRANCH  20  22
ENDBRANCH   4  20
TORSDOF 6
ENDMDL
MODEL 9
REMARK VINA RESULT:      -5.4     18.446     20.775
REMARK  Name = pdb/CHEMBL2151321.pdb
REMARK                            x       y       z     vdW  Elec       q    Type
REMARK                         _______ _______ _______ _____ _____    ______ ____
ROOT
ATOM      1  N   LIG    1      -26.385  78.910  13.518  0.00  0.00    -0.266 N 
ATOM      2  C   LIG    1      -25.540  79.975  13.827  0.00  0.00    +0.168 A 
ATOM      3  N   LIG    1      -25.346  81.160  13.178  0.00  0.00    -0.213 NA
ATOM      4  C   LIG    1      -24.395  81.954  13.738  0.00  0.00    +0.122 A 
ATOM      5  C   LIG    1      -23.694  81.602  14.896  0.00  0.00    +0.046 A 
ATOM      6  C   LIG    1      -23.918  80.386  15.534  0.00  0.00    +0.035 A 
ATOM      7  C   LIG    1      -24.880  79.551  14.979  0.00  0.00    +0.108 A 
ATOM      8  N   LIG    1      -25.298  78.322  15.400  0.00  0.00    -0.234 NA
ATOM      9  C   LIG    1      -26.199  77.969  14.513  0.00  0.00    +0.207 A 
ENDROOT
BRANCH   1  14
ATOM     10  C   LIG    1      -28.956  78.205  11.089  0.00  0.00    +0.213 A 
ATOM     11  N   LIG    1      -27.978  78.917  10.434  0.00  0.00    -0.245 N 
ATOM     12  H   LIG    1      -27.971  79.190   9.462  0.00  0.00    +0.192 HD
ATOM     13  N   LIG    1      -26.930  79.235  11.214  0.00  0.00    -0.153 NA
ATOM     14  C   LIG    1      -27.272  78.749  12.421  0.00  0.00    +0.165 A 
ATOM     15  C   LIG    1      -28.525  78.121  12.398  0.00  0.00    +0.115 A 
BRANCH  10  16
ATOM     16  O   LIG    1      -30.026  77.767  10.424  0.00  0.00    -0.474 OA
BRANCH  16  18
ATOM     17  C   LIG    1      -31.548  79.580   9.989  0.00  0.00    +0.051 C 
ATOM     18  C   LIG    1      -31.282  78.335  10.827  0.00  0.00    +0.169 C 
ATOM     19  C   LIG    1      -32.406  77.322  10.633  0.00  0.00    +0.051 C 
ENDBRANCH  16  18
ENDBRANCH  10  16
ENDBRANCH   1  14
BRANCH   4  20
ATOM     20  N   LIG    1      -24.152  83.189  13.135  0.00  0.00    -0.321 N 
ATOM     21  H   LIG    1      -24.765  83.337  12.337  0.00  0.00    +0.148 HD
BRANCH  20  22
ATOM     22  C   LIG    1      -22.781  83.697  12.964  0.00  0.00    +0.117 C 
ATOM     23  C   LIG    1      -22.320  83.661  11.500  0.00  0.00    +0.034 C 
BRANCH  22  24
ATOM     24  C   LIG    1      -22.676  85.120  13.519  0.00  0.00    +0.061 A 
ATOM     25  N   LIG    1      -22.305  85.271  14.820  0.00  0.00    -0.255 NA
ATOM     26  C   LIG    1      -22.247  86.530  15.312  0.00  0.00    +0.149 A 
ATOM     27  C   LIG    1      -22.521  87.656  14.561  0.00  0.00    +0.141 A 
ATOM     28  F   LIG    1      -22.448  88.876  15.108  0.00  0.00    -0.204 F 
ATOM     29  C   LIG    1      -22.874  87.504  13.231  0.00  0.00    +0.042 A 
ATOM     30  C   LIG    1      -22.954  86.217  12.697  0.00  0.00    +0.028 A 
ENDBRANCH  22  24
ENDBRANCH  20  22
ENDBRANCH   4  20
TORSDOF 6
ENDMDL
