MODEL 1
REMARK VINA RESULT:      -6.4      0.000      0.000
REMARK  Name = pdb/CHEMBL3935446.pdb
REMARK                            x       y       z     vdW  Elec       q    Type
REMARK                         _______ _______ _______ _____ _____    ______ ____
ROOT
ATOM      1  C   LIG    1      -31.942  74.049  29.431  0.00  0.00    +0.149 A 
ATOM      2  N   LIG    1      -31.857  75.381  29.312  0.00  0.00    -0.160 NA
ATOM      3  N   LIG    1      -32.928  75.760  28.581  0.00  0.00    -0.218 N 
ATOM      4  C   LIG    1      -33.699  74.658  28.201  0.00  0.00    +0.129 A 
ATOM      5  C   LIG    1      -33.061  73.557  28.727  0.00  0.00    +0.078 A 
ENDROOT
BRANCH   3   6
ATOM      6  C   LIG    1      -33.101  77.146  28.292  0.00  0.00    +0.067 A 
ATOM      7  C   LIG    1      -33.964  77.967  29.024  0.00  0.00    +0.028 A 
ATOM      8  C   LIG    1      -34.133  79.306  28.656  0.00  0.00    +0.002 A 
ATOM      9  C   LIG    1      -33.431  79.839  27.576  0.00  0.00    +0.000 A 
ATOM     10  C   LIG    1      -32.537  79.041  26.869  0.00  0.00    +0.002 A 
ATOM     11  C   LIG    1      -32.364  77.704  27.229  0.00  0.00    +0.028 A 
ENDBRANCH   3   6
BRANCH   4  12
ATOM     12  N   LIG    1      -34.827  74.635  27.380  0.00  0.00    -0.266 N 
ATOM     13  H   LIG    1      -34.701  74.331  26.425  0.00  0.00    +0.157 HD
ATOM     14  C   LIG    1      -36.148  74.988  27.834  0.00  0.00    +0.251 C 
ATOM     15  O   LIG    1      -36.355  75.326  28.973  0.00  0.00    -0.270 OA
BRANCH  14  16
ATOM     16  C   LIG    1      -37.225  75.036  26.815  0.00  0.00    +0.056 A 
ATOM     17  C   LIG    1      -37.905  76.194  26.442  0.00  0.00    +0.054 A 
ATOM     18 CL   LIG    1      -37.521  77.764  27.046  0.00  0.00    -0.083 Cl
ATOM     19  C   LIG    1      -38.937  76.110  25.507  0.00  0.00    +0.041 A 
ATOM     20  C   LIG    1      -39.285  74.885  24.910  0.00  0.00    +0.052 A 
ATOM     21 CL   LIG    1      -40.565  74.985  23.751  0.00  0.00    -0.083 Cl
ATOM     22  C   LIG    1      -38.591  73.701  25.220  0.00  0.00    +0.019 A 
ATOM     23  C   LIG    1      -37.567  73.817  26.198  0.00  0.00    +0.026 A 
BRANCH  22  24
ATOM     24  C   LIG    1      -38.784  72.377  24.569  0.00  0.00    +0.072 A 
ATOM     25  N   LIG    1      -37.645  71.638  24.472  0.00  0.00    -0.255 NA
ATOM     26  C   LIG    1      -37.706  70.429  23.864  0.00  0.00    +0.111 A 
ATOM     27  C   LIG    1      -38.862  69.896  23.332  0.00  0.00    +0.020 A 
ATOM     28  C   LIG    1      -40.028  70.637  23.452  0.00  0.00    +0.004 A 
ATOM     29  C   LIG    1      -39.994  71.880  24.091  0.00  0.00    +0.028 A 
ENDBRANCH  22  24
ENDBRANCH  14  16
ENDBRANCH   4  12
BRANCH   1  31
ATOM     30  N   LIG    1      -30.678  73.588  31.390  0.00  0.00    -0.240 NA
ATOM     31  C   LIG    1      -30.947  73.273  30.166  0.00  0.00    +0.236 C 
BRANCH  30  32
ATOM     32  C   LIG    1      -29.741  72.899  32.242  0.00  0.00    +0.089 C 
ATOM     33  C   LIG    1      -30.169  72.820  33.701  0.00  0.00    +0.035 C 
ATOM     34  C   LIG    1      -30.324  71.625  32.819  0.00  0.00    +0.035 C 
BRANCH  32  35
ATOM     35  C   LIG    1      -28.248  72.947  31.973  0.00  0.00    +0.186 C 
BRANCH  35  36
ATOM     36  O   LIG    1      -27.908  71.921  31.035  0.00  0.00    -0.393 OA
ATOM     37  H   LIG    1      -27.392  72.349  30.327  0.00  0.00    +0.209 HD
ENDBRANCH  35  36
ENDBRANCH  32  35
ENDBRANCH  30  32
BRANCH  31  38
ATOM     38  O   LIG    1      -30.427  72.245  29.469  0.00  0.00    -0.491 OA
ATOM     39  H   LIG    1      -29.510  72.061  29.730  0.00  0.00    +0.294 HD
ENDBRANCH  31  38
ENDBRANCH   1  31
TORSDOF 9
ENDMDL
MODEL 2
REMARK VINA RESULT:      -6.3     17.284     20.015
REMARK  Name = pdb/CHEMBL3935446.pdb
REMARK                            x       y       z     vdW  Elec       q    Type
REMARK                         _______ _______ _______ _____ _____    ______ ____
ROOT
ATOM      1  C   LIG    1      -22.562  83.015  15.199  0.00  0.00    +0.149 A 
ATOM      2  N   LIG    1      -23.683  82.453  14.726  0.00  0.00    -0.160 NA
ATOM      3  N   LIG    1      -23.537  81.121  14.903  0.00  0.00    -0.218 N 
ATOM      4  C   LIG    1      -22.298  80.818  15.474  0.00  0.00    +0.129 A 
ATOM      5  C   LIG    1      -21.661  82.027  15.647  0.00  0.00    +0.078 A 
ENDROOT
BRANCH   3   6
ATOM      6  C   LIG    1      -24.593  80.258  14.487  0.00  0.00    +0.067 A 
ATOM      7  C   LIG    1      -25.182  79.320  15.341  0.00  0.00    +0.028 A 
ATOM      8  C   LIG    1      -26.175  78.462  14.857  0.00  0.00    +0.002 A 
ATOM      9  C   LIG    1      -26.601  78.547  13.532  0.00  0.00    +0.000 A 
ATOM     10  C   LIG    1      -26.052  79.506  12.687  0.00  0.00    +0.002 A 
ATOM     11  C   LIG    1      -25.060  80.365  13.162  0.00  0.00    +0.028 A 
ENDBRANCH   3   6
BRANCH   4  12
ATOM     12  N   LIG    1      -21.751  79.561  15.733  0.00  0.00    -0.266 N 
ATOM     13  H   LIG    1      -21.700  79.265  16.698  0.00  0.00    +0.157 HD
ATOM     14  C   LIG    1      -21.295  78.665  14.702  0.00  0.00    +0.251 C 
ATOM     15  O   LIG    1      -21.366  78.958  13.533  0.00  0.00    -0.270 OA
BRANCH  14  16
ATOM     16  C   LIG    1      -20.623  77.415  15.136  0.00  0.00    +0.056 A 
ATOM     17  C   LIG    1      -19.242  77.253  15.221  0.00  0.00    +0.054 A 
ATOM     18 CL   LIG    1      -18.110  78.521  14.923  0.00  0.00    -0.083 Cl
ATOM     19  C   LIG    1      -18.721  76.014  15.593  0.00  0.00    +0.041 A 
ATOM     20  C   LIG    1      -19.562  74.934  15.916  0.00  0.00    +0.052 A 
ATOM     21 CL   LIG    1      -18.734  73.490  16.388  0.00  0.00    -0.083 Cl
ATOM     22  C   LIG    1      -20.963  75.070  15.894  0.00  0.00    +0.019 A 
ATOM     23  C   LIG    1      -21.459  76.335  15.479  0.00  0.00    +0.026 A 
BRANCH  22  24
ATOM     24  C   LIG    1      -21.949  74.044  16.329  0.00  0.00    +0.072 A 
ATOM     25  N   LIG    1      -22.800  73.645  15.345  0.00  0.00    -0.255 NA
ATOM     26  C   LIG    1      -23.760  72.738  15.644  0.00  0.00    +0.111 A 
ATOM     27  C   LIG    1      -23.929  72.188  16.899  0.00  0.00    +0.020 A 
ATOM     28  C   LIG    1      -23.047  72.576  17.897  0.00  0.00    +0.004 A 
ATOM     29  C   LIG    1      -22.038  73.497  17.606  0.00  0.00    +0.028 A 
ENDBRANCH  22  24
ENDBRANCH  14  16
ENDBRANCH   4  12
BRANCH   1  31
ATOM     30  N   LIG    1      -21.820  85.006  14.135  0.00  0.00    -0.240 NA
ATOM     31  C   LIG    1      -22.353  84.460  15.177  0.00  0.00    +0.236 C 
BRANCH  30  32
ATOM     32  C   LIG    1      -21.577  86.417  13.964  0.00  0.00    +0.089 C 
ATOM     33  C   LIG    1      -21.882  86.935  12.566  0.00  0.00    +0.035 C 
ATOM     34  C   LIG    1      -22.852  87.185  13.673  0.00  0.00    +0.035 C 
BRANCH  32  35
ATOM     35  C   LIG    1      -20.472  87.125  14.726  0.00  0.00    +0.186 C 
BRANCH  35  36
ATOM     36  O   LIG    1      -20.936  87.434  16.044  0.00  0.00    -0.393 OA
ATOM     37  H   LIG    1      -20.864  88.402  16.146  0.00  0.00    +0.209 HD
ENDBRANCH  35  36
ENDBRANCH  32  35
ENDBRANCH  30  32
BRANCH  31  38
ATOM     38  O   LIG    1      -22.794  85.095  16.279  0.00  0.00    -0.491 OA
ATOM     39  H   LIG    1      -22.922  86.045  16.120  0.00  0.00    +0.294 HD
ENDBRANCH  31  38
ENDBRANCH   1  31
TORSDOF 9
ENDMDL
MODEL 3
REMARK VINA RESULT:      -6.2      1.838      3.635
REMARK  Name = pdb/CHEMBL3935446.pdb
REMARK                            x       y       z     vdW  Elec       q    Type
REMARK                         _______ _______ _______ _____ _____    ______ ____
ROOT
ATOM      1  C   LIG    1      -31.827  74.057  29.467  0.00  0.00    +0.149 A 
ATOM      2  N   LIG    1      -31.728  75.372  29.226  0.00  0.00    -0.160 NA
ATOM      3  N   LIG    1      -32.810  75.699  28.487  0.00  0.00    -0.218 N 
ATOM      4  C   LIG    1      -33.605  74.579  28.228  0.00  0.00    +0.129 A 
ATOM      5  C   LIG    1      -32.968  73.520  28.837  0.00  0.00    +0.078 A 
ENDROOT
BRANCH   3   6
ATOM      6  C   LIG    1      -32.972  77.055  28.077  0.00  0.00    +0.067 A 
ATOM      7  C   LIG    1      -32.304  77.594  26.972  0.00  0.00    +0.028 A 
ATOM      8  C   LIG    1      -32.460  78.947  26.654  0.00  0.00    +0.002 A 
ATOM      9  C   LIG    1      -33.296  79.762  27.416  0.00  0.00    +0.000 A 
ATOM     10  C   LIG    1      -33.998  79.225  28.490  0.00  0.00    +0.002 A 
ATOM     11  C   LIG    1      -33.846  77.876  28.814  0.00  0.00    +0.028 A 
ENDBRANCH   3   6
BRANCH   4  12
ATOM     12  N   LIG    1      -34.752  74.499  27.437  0.00  0.00    -0.266 N 
ATOM     13  H   LIG    1      -34.644  74.150  26.495  0.00  0.00    +0.157 HD
ATOM     14  C   LIG    1      -36.067  74.853  27.907  0.00  0.00    +0.251 C 
ATOM     15  O   LIG    1      -36.251  75.243  29.034  0.00  0.00    -0.270 OA
BRANCH  14  16
ATOM     16  C   LIG    1      -37.170  74.834  26.915  0.00  0.00    +0.056 A 
ATOM     17  C   LIG    1      -37.812  73.680  26.474  0.00  0.00    +0.054 A 
ATOM     18 CL   LIG    1      -37.478  72.104  27.095  0.00  0.00    -0.083 Cl
ATOM     19  C   LIG    1      -38.804  73.778  25.498  0.00  0.00    +0.041 A 
ATOM     20  C   LIG    1      -39.192  75.025  24.974  0.00  0.00    +0.052 A 
ATOM     21 CL   LIG    1      -40.460  74.951  23.800  0.00  0.00    -0.083 Cl
ATOM     22  C   LIG    1      -38.605  76.221  25.429  0.00  0.00    +0.019 A 
ATOM     23  C   LIG    1      -37.577  76.080  26.399  0.00  0.00    +0.026 A 
BRANCH  22  24
ATOM     24  C   LIG    1      -39.013  77.598  25.042  0.00  0.00    +0.072 A 
ATOM     25  N   LIG    1      -39.067  78.471  26.084  0.00  0.00    -0.255 NA
ATOM     26  C   LIG    1      -39.460  79.744  25.845  0.00  0.00    +0.111 A 
ATOM     27  C   LIG    1      -39.814  80.215  24.597  0.00  0.00    +0.020 A 
ATOM     28  C   LIG    1      -39.737  79.333  23.530  0.00  0.00    +0.004 A 
ATOM     29  C   LIG    1      -39.316  78.019  23.749  0.00  0.00    +0.028 A 
ENDBRANCH  22  24
ENDBRANCH  14  16
ENDBRANCH   4  12
BRANCH   1  31
ATOM     30  N   LIG    1      -30.516  73.762  31.429  0.00  0.00    -0.240 NA
ATOM     31  C   LIG    1      -30.825  73.336  30.248  0.00  0.00    +0.236 C 
BRANCH  30  32
ATOM     32  C   LIG    1      -29.567  73.141  32.318  0.00  0.00    +0.089 C 
ATOM     33  C   LIG    1      -29.950  73.221  33.789  0.00  0.00    +0.035 C 
ATOM     34  C   LIG    1      -30.159  71.946  33.040  0.00  0.00    +0.035 C 
BRANCH  32  35
ATOM     35  C   LIG    1      -28.083  73.124  32.001  0.00  0.00    +0.186 C 
BRANCH  35  36
ATOM     36  O   LIG    1      -27.799  72.009  31.151  0.00  0.00    -0.393 OA
ATOM     37  H   LIG    1      -27.134  71.465  31.616  0.00  0.00    +0.209 HD
ENDBRANCH  35  36
ENDBRANCH  32  35
ENDBRANCH  30  32
BRANCH  31  38
ATOM     38  O   LIG    1      -30.341  72.237  29.640  0.00  0.00    -0.491 OA
ATOM     39  H   LIG    1      -30.542  72.233  28.690  0.00  0.00    +0.294 HD
ENDBRANCH  31  38
ENDBRANCH   1  31
TORSDOF 9
ENDMDL
MODEL 4
REMARK VINA RESULT:      -6.1      8.223     11.274
REMARK  Name = pdb/CHEMBL3935446.pdb
REMARK                            x       y       z     vdW  Elec       q    Type
REMARK                         _______ _______ _______ _____ _____    ______ ____
ROOT
ATOM      1  C   LIG    1      -31.492  86.949  30.842  0.00  0.00    +0.149 A 
ATOM      2  N   LIG    1      -32.421  87.734  30.281  0.00  0.00    -0.160 NA
ATOM      3  N   LIG    1      -33.328  86.902  29.725  0.00  0.00    -0.218 N 
ATOM      4  C   LIG    1      -32.968  85.564  29.908  0.00  0.00    +0.129 A 
ATOM      5  C   LIG    1      -31.781  85.589  30.606  0.00  0.00    +0.078 A 
ENDROOT
BRANCH   3   6
ATOM      6  C   LIG    1      -34.448  87.468  29.047  0.00  0.00    +0.067 A 
ATOM      7  C   LIG    1      -35.702  86.847  29.014  0.00  0.00    +0.028 A 
ATOM      8  C   LIG    1      -36.747  87.424  28.284  0.00  0.00    +0.002 A 
ATOM      9  C   LIG    1      -36.558  88.627  27.606  0.00  0.00    +0.000 A 
ATOM     10  C   LIG    1      -35.328  89.274  27.670  0.00  0.00    +0.002 A 
ATOM     11  C   LIG    1      -34.280  88.704  28.395  0.00  0.00    +0.028 A 
ENDBRANCH   3   6
BRANCH   4  12
ATOM     12  N   LIG    1      -33.603  84.424  29.414  0.00  0.00    -0.266 N 
ATOM     13  H   LIG    1      -33.413  84.164  28.457  0.00  0.00    +0.157 HD
ATOM     14  C   LIG    1      -34.476  83.595  30.205  0.00  0.00    +0.251 C 
ATOM     15  O   LIG    1      -34.709  83.845  31.362  0.00  0.00    -0.270 OA
BRANCH  14  16
ATOM     16  C   LIG    1      -35.176  82.488  29.508  0.00  0.00    +0.056 A 
ATOM     17  C   LIG    1      -36.548  82.450  29.268  0.00  0.00    +0.054 A 
ATOM     18 CL   LIG    1      -37.623  83.741  29.666  0.00  0.00    -0.083 Cl
ATOM     19  C   LIG    1      -37.104  81.332  28.648  0.00  0.00    +0.041 A 
ATOM     20  C   LIG    1      -36.303  80.254  28.229  0.00  0.00    +0.052 A 
ATOM     21 CL   LIG    1      -37.166  78.975  27.448  0.00  0.00    -0.083 Cl
ATOM     22  C   LIG    1      -34.907  80.274  28.405  0.00  0.00    +0.019 A 
ATOM     23  C   LIG    1      -34.378  81.413  29.069  0.00  0.00    +0.026 A 
BRANCH  22  24
ATOM     24  C   LIG    1      -33.947  79.255  27.899  0.00  0.00    +0.072 A 
ATOM     25  N   LIG    1      -33.238  79.659  26.810  0.00  0.00    -0.255 NA
ATOM     26  C   LIG    1      -32.359  78.794  26.250  0.00  0.00    +0.111 A 
ATOM     27  C   LIG    1      -32.139  77.515  26.720  0.00  0.00    +0.020 A 
ATOM     28  C   LIG    1      -32.843  77.111  27.843  0.00  0.00    +0.004 A 
ATOM     29  C   LIG    1      -33.742  77.993  28.450  0.00  0.00    +0.028 A 
ENDBRANCH  22  24
ENDBRANCH  14  16
ENDBRANCH   4  12
BRANCH   1  31
ATOM     30  N   LIG    1      -30.399  87.668  32.826  0.00  0.00    -0.240 NA
ATOM     31  C   LIG    1      -30.337  87.499  31.547  0.00  0.00    +0.236 C 
BRANCH  30  32
ATOM     32  C   LIG    1      -29.333  88.176  33.653  0.00  0.00    +0.089 C 
ATOM     33  C   LIG    1      -29.024  87.313  34.868  0.00  0.00    +0.035 C 
ATOM     34  C   LIG    1      -28.133  87.250  33.672  0.00  0.00    +0.035 C 
BRANCH  32  35
ATOM     35  C   LIG    1      -29.090  89.667  33.798  0.00  0.00    +0.186 C 
BRANCH  35  36
ATOM     36  O   LIG    1      -29.086  90.269  32.501  0.00  0.00    -0.393 OA
ATOM     37  H   LIG    1      -28.875  89.561  31.864  0.00  0.00    +0.209 HD
ENDBRANCH  35  36
ENDBRANCH  32  35
ENDBRANCH  30  32
BRANCH  31  38
ATOM     38  O   LIG    1      -29.275  87.743  30.756  0.00  0.00    -0.491 OA
ATOM     39  H   LIG    1      -29.460  87.525  29.828  0.00  0.00    +0.294 HD
ENDBRANCH  31  38
ENDBRANCH   1  31
TORSDOF 9
ENDMDL
MODEL 5
REMARK VINA RESULT:      -6.1      3.718      6.469
REMARK  Name = pdb/CHEMBL3935446.pdb
REMARK                            x       y       z     vdW  Elec       q    Type
REMARK                         _______ _______ _______ _____ _____    ______ ____
ROOT
ATOM      1  C   LIG    1      -36.662  76.653  26.734  0.00  0.00    +0.149 A 
ATOM      2  N   LIG    1      -37.762  77.375  26.482  0.00  0.00    -0.160 NA
ATOM      3  N   LIG    1      -38.578  76.575  25.762  0.00  0.00    -0.218 N 
ATOM      4  C   LIG    1      -37.988  75.330  25.525  0.00  0.00    +0.129 A 
ATOM      5  C   LIG    1      -36.751  75.383  26.128  0.00  0.00    +0.078 A 
ENDROOT
BRANCH   3   6
ATOM      6  C   LIG    1      -39.843  77.086  25.346  0.00  0.00    +0.067 A 
ATOM      7  C   LIG    1      -40.805  77.548  26.250  0.00  0.00    +0.028 A 
ATOM      8  C   LIG    1      -42.049  77.985  25.784  0.00  0.00    +0.002 A 
ATOM      9  C   LIG    1      -42.333  77.986  24.419  0.00  0.00    +0.000 A 
ATOM     10  C   LIG    1      -41.367  77.570  23.509  0.00  0.00    +0.002 A 
ATOM     11  C   LIG    1      -40.124  77.131  23.967  0.00  0.00    +0.028 A 
ENDBRANCH   3   6
BRANCH   4  12
ATOM     12  N   LIG    1      -38.479  74.274  24.757  0.00  0.00    -0.266 N 
ATOM     13  H   LIG    1      -38.019  74.083  23.878  0.00  0.00    +0.157 HD
ATOM     14  C   LIG    1      -39.575  73.434  25.170  0.00  0.00    +0.251 C 
ATOM     15  O   LIG    1      -40.136  73.601  26.225  0.00  0.00    -0.270 OA
BRANCH  14  16
ATOM     16  C   LIG    1      -40.067  72.431  24.193  0.00  0.00    +0.056 A 
ATOM     17  C   LIG    1      -41.244  72.559  23.459  0.00  0.00    +0.054 A 
ATOM     18 CL   LIG    1      -42.255  73.957  23.509  0.00  0.00    -0.083 Cl
ATOM     19  C   LIG    1      -41.633  71.526  22.605  0.00  0.00    +0.041 A 
ATOM     20  C   LIG    1      -40.845  70.372  22.447  0.00  0.00    +0.052 A 
ATOM     21 CL   LIG    1      -41.472  69.219  21.321  0.00  0.00    -0.083 Cl
ATOM     22  C   LIG    1      -39.623  70.225  23.131  0.00  0.00    +0.019 A 
ATOM     23  C   LIG    1      -39.274  71.281  24.015  0.00  0.00    +0.026 A 
BRANCH  22  24
ATOM     24  C   LIG    1      -38.650  69.114  22.955  0.00  0.00    +0.072 A 
ATOM     25  N   LIG    1      -39.015  67.958  23.573  0.00  0.00    -0.255 NA
ATOM     26  C   LIG    1      -38.182  66.893  23.503  0.00  0.00    +0.111 A 
ATOM     27  C   LIG    1      -36.973  66.908  22.837  0.00  0.00    +0.020 A 
ATOM     28  C   LIG    1      -36.611  68.078  22.187  0.00  0.00    +0.004 A 
ATOM     29  C   LIG    1      -37.464  69.184  22.230  0.00  0.00    +0.028 A 
ENDBRANCH  22  24
ENDBRANCH  14  16
ENDBRANCH   4  12
BRANCH   1  31
ATOM     30  N   LIG    1      -34.387  77.312  26.932  0.00  0.00    -0.240 NA
ATOM     31  C   LIG    1      -35.542  77.193  27.500  0.00  0.00    +0.236 C 
BRANCH  30  32
ATOM     32  C   LIG    1      -33.203  77.848  27.556  0.00  0.00    +0.089 C 
ATOM     33  C   LIG    1      -32.344  78.699  26.630  0.00  0.00    +0.035 C 
ATOM     34  C   LIG    1      -33.233  79.362  27.630  0.00  0.00    +0.035 C 
BRANCH  32  35
ATOM     35  C   LIG    1      -32.476  77.090  28.652  0.00  0.00    +0.186 C 
BRANCH  35  36
ATOM     36  O   LIG    1      -33.062  77.418  29.915  0.00  0.00    -0.393 OA
ATOM     37  H   LIG    1      -32.975  78.384  30.022  0.00  0.00    +0.209 HD
ENDBRANCH  35  36
ENDBRANCH  32  35
ENDBRANCH  30  32
BRANCH  31  38
ATOM     38  O   LIG    1      -35.860  77.558  28.756  0.00  0.00    -0.491 OA
ATOM     39  H   LIG    1      -36.090  76.793  29.306  0.00  0.00    +0.294 HD
ENDBRANCH  31  38
ENDBRANCH   1  31
TORSDOF 9
ENDMDL
MODEL 6
REMARK VINA RESULT:      -6.0      4.204      6.608
REMARK  Name = pdb/CHEMBL3935446.pdb
REMARK                            x       y       z     vdW  Elec       q    Type
REMARK                         _______ _______ _______ _____ _____    ______ ____
ROOT
ATOM      1  C   LIG    1      -36.866  76.436  26.169  0.00  0.00    +0.149 A 
ATOM      2  N   LIG    1      -37.700  77.478  26.053  0.00  0.00    -0.160 NA
ATOM      3  N   LIG    1      -38.752  77.038  25.330  0.00  0.00    -0.218 N 
ATOM      4  C   LIG    1      -38.585  75.702  24.953  0.00  0.00    +0.129 A 
ATOM      5  C   LIG    1      -37.369  75.318  25.471  0.00  0.00    +0.078 A 
ENDROOT
BRANCH   3   6
ATOM      6  C   LIG    1      -39.814  77.947  25.046  0.00  0.00    +0.067 A 
ATOM      7  C   LIG    1      -39.685  78.994  24.127  0.00  0.00    +0.028 A 
ATOM      8  C   LIG    1      -40.744  79.887  23.934  0.00  0.00    +0.002 A 
ATOM      9  C   LIG    1      -41.940  79.731  24.633  0.00  0.00    +0.000 A 
ATOM     10  C   LIG    1      -42.092  78.667  25.517  0.00  0.00    +0.002 A 
ATOM     11  C   LIG    1      -41.040  77.773  25.716  0.00  0.00    +0.028 A 
ENDBRANCH   3   6
BRANCH   4  12
ATOM     12  N   LIG    1      -39.410  74.926  24.139  0.00  0.00    -0.266 N 
ATOM     13  H   LIG    1      -39.221  74.929  23.146  0.00  0.00    +0.157 HD
ATOM     14  C   LIG    1      -40.481  74.106  24.645  0.00  0.00    +0.251 C 
ATOM     15  O   LIG    1      -40.725  74.042  25.825  0.00  0.00    -0.270 OA
BRANCH  14  16
ATOM     16  C   LIG    1      -41.351  73.434  23.648  0.00  0.00    +0.056 A 
ATOM     17  C   LIG    1      -42.378  74.064  22.948  0.00  0.00    +0.054 A 
ATOM     18 CL   LIG    1      -42.723  75.750  23.071  0.00  0.00    -0.083 Cl
ATOM     19  C   LIG    1      -43.166  73.318  22.071  0.00  0.00    +0.041 A 
ATOM     20  C   LIG    1      -42.924  71.950  21.855  0.00  0.00    +0.052 A 
ATOM     21 CL   LIG    1      -43.981  71.203  20.707  0.00  0.00    -0.083 Cl
ATOM     22  C   LIG    1      -41.865  71.286  22.502  0.00  0.00    +0.019 A 
ATOM     23  C   LIG    1      -41.104  72.068  23.412  0.00  0.00    +0.026 A 
BRANCH  22  24
ATOM     24  C   LIG    1      -41.437  69.881  22.265  0.00  0.00    +0.072 A 
ATOM     25  N   LIG    1      -40.365  69.764  21.435  0.00  0.00    -0.255 NA
ATOM     26  C   LIG    1      -39.916  68.524  21.126  0.00  0.00    +0.111 A 
ATOM     27  C   LIG    1      -40.484  67.362  21.605  0.00  0.00    +0.020 A 
ATOM     28  C   LIG    1      -41.562  67.480  22.470  0.00  0.00    +0.004 A 
ATOM     29  C   LIG    1      -42.031  68.750  22.818  0.00  0.00    +0.028 A 
ENDBRANCH  22  24
ENDBRANCH  14  16
ENDBRANCH   4  12
BRANCH   1  31
ATOM     30  N   LIG    1      -35.129  77.698  27.189  0.00  0.00    -0.240 NA
ATOM     31  C   LIG    1      -35.603  76.532  26.895  0.00  0.00    +0.236 C 
BRANCH  30  32
ATOM     32  C   LIG    1      -33.912  77.944  27.920  0.00  0.00    +0.089 C 
ATOM     33  C   LIG    1      -34.030  79.035  28.975  0.00  0.00    +0.035 C 
ATOM     34  C   LIG    1      -34.050  77.601  29.391  0.00  0.00    +0.035 C 
BRANCH  32  35
ATOM     35  C   LIG    1      -32.552  77.771  27.269  0.00  0.00    +0.186 C 
BRANCH  35  36
ATOM     36  O   LIG    1      -32.629  78.193  25.904  0.00  0.00    -0.393 OA
ATOM     37  H   LIG    1      -32.525  77.392  25.357  0.00  0.00    +0.209 HD
ENDBRANCH  35  36
ENDBRANCH  32  35
ENDBRANCH  30  32
BRANCH  31  38
ATOM     38  O   LIG    1      -35.069  75.342  27.228  0.00  0.00    -0.491 OA
ATOM     39  H   LIG    1      -35.713  74.621  27.141  0.00  0.00    +0.294 HD
ENDBRANCH  31  38
ENDBRANCH   1  31
TORSDOF 9
ENDMDL
MODEL 7
REMARK VINA RESULT:      -6.0      4.229     10.266
REMARK  Name = pdb/CHEMBL3935446.pdb
REMARK                            x       y       z     vdW  Elec       q    Type
REMARK                         _______ _______ _______ _____ _____    ______ ____
ROOT
ATOM      1  C   LIG    1      -41.176  73.573  23.440  0.00  0.00    +0.149 A 
ATOM      2  N   LIG    1      -41.366  74.892  23.576  0.00  0.00    -0.160 NA
ATOM      3  N   LIG    1      -40.273  75.364  24.213  0.00  0.00    -0.218 N 
ATOM      4  C   LIG    1      -39.377  74.333  24.514  0.00  0.00    +0.129 A 
ATOM      5  C   LIG    1      -39.961  73.180  24.039  0.00  0.00    +0.078 A 
ENDROOT
BRANCH   3   6
ATOM      6  C   LIG    1      -40.196  76.759  24.496  0.00  0.00    +0.067 A 
ATOM      7  C   LIG    1      -40.416  77.283  25.775  0.00  0.00    +0.028 A 
ATOM      8  C   LIG    1      -40.383  78.666  25.978  0.00  0.00    +0.002 A 
ATOM      9  C   LIG    1      -40.110  79.531  24.920  0.00  0.00    +0.000 A 
ATOM     10  C   LIG    1      -39.847  79.018  23.654  0.00  0.00    +0.002 A 
ATOM     11  C   LIG    1      -39.880  77.638  23.443  0.00  0.00    +0.028 A 
ENDBRANCH   3   6
BRANCH   4  12
ATOM     12  N   LIG    1      -38.183  74.410  25.233  0.00  0.00    -0.266 N 
ATOM     13  H   LIG    1      -37.326  74.485  24.704  0.00  0.00    +0.157 HD
ATOM     14  C   LIG    1      -38.122  74.419  26.672  0.00  0.00    +0.251 C 
ATOM     15  O   LIG    1      -39.120  74.364  27.348  0.00  0.00    -0.270 OA
BRANCH  14  16
ATOM     16  C   LIG    1      -36.775  74.378  27.294  0.00  0.00    +0.056 A 
ATOM     17  C   LIG    1      -36.228  73.256  27.913  0.00  0.00    +0.054 A 
ATOM     18 CL   LIG    1      -37.006  71.716  27.960  0.00  0.00    -0.083 Cl
ATOM     19  C   LIG    1      -34.971  73.349  28.510  0.00  0.00    +0.041 A 
ATOM     20  C   LIG    1      -34.230  74.544  28.472  0.00  0.00    +0.052 A 
ATOM     21 CL   LIG    1      -32.680  74.457  29.235  0.00  0.00    -0.083 Cl
ATOM     22  C   LIG    1      -34.723  75.686  27.812  0.00  0.00    +0.019 A 
ATOM     23  C   LIG    1      -36.019  75.565  27.244  0.00  0.00    +0.026 A 
BRANCH  22  24
ATOM     24  C   LIG    1      -33.986  76.961  27.601  0.00  0.00    +0.072 A 
ATOM     25  N   LIG    1      -33.004  76.880  26.662  0.00  0.00    -0.255 NA
ATOM     26  C   LIG    1      -32.249  77.978  26.417  0.00  0.00    +0.111 A 
ATOM     27  C   LIG    1      -32.416  79.184  27.067  0.00  0.00    +0.020 A 
ATOM     28  C   LIG    1      -33.432  79.274  28.006  0.00  0.00    +0.004 A 
ATOM     29  C   LIG    1      -34.236  78.160  28.263  0.00  0.00    +0.028 A 
ENDBRANCH  22  24
ENDBRANCH  14  16
ENDBRANCH   4  12
BRANCH   1  31
ATOM     30  N   LIG    1      -41.830  71.506  22.464  0.00  0.00    -0.240 NA
ATOM     31  C   LIG    1      -42.161  72.712  22.789  0.00  0.00    +0.236 C 
BRANCH  30  32
ATOM     32  C   LIG    1      -42.702  70.542  21.841  0.00  0.00    +0.089 C 
ATOM     33  C   LIG    1      -42.408  69.099  22.226  0.00  0.00    +0.035 C 
ATOM     34  C   LIG    1      -43.561  69.811  22.853  0.00  0.00    +0.035 C 
BRANCH  32  35
ATOM     35  C   LIG    1      -43.269  70.773  20.452  0.00  0.00    +0.186 C 
BRANCH  35  36
ATOM     36  O   LIG    1      -42.287  71.431  19.648  0.00  0.00    -0.393 OA
ATOM     37  H   LIG    1      -41.762  71.992  20.250  0.00  0.00    +0.209 HD
ENDBRANCH  35  36
ENDBRANCH  32  35
ENDBRANCH  30  32
BRANCH  31  38
ATOM     38  O   LIG    1      -43.370  73.284  22.629  0.00  0.00    -0.491 OA
ATOM     39  H   LIG    1      -43.337  74.242  22.779  0.00  0.00    +0.294 HD
ENDBRANCH  31  38
ENDBRANCH   1  31
TORSDOF 9
ENDMDL
MODEL 8
REMARK VINA RESULT:      -6.0      8.804     15.371
REMARK  Name = pdb/CHEMBL3935446.pdb
REMARK                            x       y       z     vdW  Elec       q    Type
REMARK                         _______ _______ _______ _____ _____    ______ ____
ROOT
ATOM      1  C   LIG    1      -27.690  76.316  32.182  0.00  0.00    +0.149 A 
ATOM      2  N   LIG    1      -26.697  76.082  31.312  0.00  0.00    -0.160 NA
ATOM      3  N   LIG    1      -25.621  76.746  31.786  0.00  0.00    -0.218 N 
ATOM      4  C   LIG    1      -25.927  77.436  32.963  0.00  0.00    +0.129 A 
ATOM      5  C   LIG    1      -27.258  77.180  33.210  0.00  0.00    +0.078 A 
ENDROOT
BRANCH   3   6
ATOM      6  C   LIG    1      -24.399  76.677  31.054  0.00  0.00    +0.067 A 
ATOM      7  C   LIG    1      -23.948  77.720  30.238  0.00  0.00    +0.028 A 
ATOM      8  C   LIG    1      -22.770  77.569  29.500  0.00  0.00    +0.002 A 
ATOM      9  C   LIG    1      -22.024  76.395  29.587  0.00  0.00    +0.000 A 
ATOM     10  C   LIG    1      -22.441  75.369  30.430  0.00  0.00    +0.002 A 
ATOM     11  C   LIG    1      -23.617  75.511  31.168  0.00  0.00    +0.028 A 
ENDBRANCH   3   6
BRANCH   4  12
ATOM     12  N   LIG    1      -25.109  78.293  33.700  0.00  0.00    -0.266 N 
ATOM     13  H   LIG    1      -25.197  79.284  33.525  0.00  0.00    +0.157 HD
ATOM     14  C   LIG    1      -24.184  77.838  34.706  0.00  0.00    +0.251 C 
ATOM     15  O   LIG    1      -24.067  76.667  34.974  0.00  0.00    -0.270 OA
BRANCH  14  16
ATOM     16  C   LIG    1      -23.292  78.854  35.317  0.00  0.00    +0.056 A 
ATOM     17  C   LIG    1      -23.732  79.916  36.105  0.00  0.00    +0.054 A 
ATOM     18 CL   LIG    1      -25.380  80.146  36.565  0.00  0.00    -0.083 Cl
ATOM     19  C   LIG    1      -22.806  80.841  36.586  0.00  0.00    +0.041 A 
ATOM     20  C   LIG    1      -21.432  80.706  36.318  0.00  0.00    +0.052 A 
ATOM     21 CL   LIG    1      -20.435  81.929  37.027  0.00  0.00    -0.083 Cl
ATOM     22  C   LIG    1      -20.939  79.620  35.570  0.00  0.00    +0.019 A 
ATOM     23  C   LIG    1      -21.913  78.716  35.069  0.00  0.00    +0.026 A 
BRANCH  22  24
ATOM     24  C   LIG    1      -19.505  79.306  35.325  0.00  0.00    +0.072 A 
ATOM     25  N   LIG    1      -19.226  78.977  34.034  0.00  0.00    -0.255 NA
ATOM     26  C   LIG    1      -17.955  78.640  33.711  0.00  0.00    +0.111 A 
ATOM     27  C   LIG    1      -16.916  78.608  34.619  0.00  0.00    +0.020 A 
ATOM     28  C   LIG    1      -17.194  78.965  35.929  0.00  0.00    +0.004 A 
ATOM     29  C   LIG    1      -18.495  79.335  36.282  0.00  0.00    +0.028 A 
ENDBRANCH  22  24
ENDBRANCH  14  16
ENDBRANCH   4  12
BRANCH   1  31
ATOM     30  N   LIG    1      -29.802  76.251  31.094  0.00  0.00    -0.240 NA
ATOM     31  C   LIG    1      -29.026  75.754  32.000  0.00  0.00    +0.236 C 
BRANCH  30  32
ATOM     32  C   LIG    1      -31.131  75.784  30.788  0.00  0.00    +0.089 C 
ATOM     33  C   LIG    1      -31.508  75.903  29.318  0.00  0.00    +0.035 C 
ATOM     34  C   LIG    1      -31.115  74.574  29.875  0.00  0.00    +0.035 C 
BRANCH  32  35
ATOM     35  C   LIG    1      -32.262  75.909  31.792  0.00  0.00    +0.186 C 
BRANCH  35  36
ATOM     36  O   LIG    1      -32.160  77.171  32.458  0.00  0.00    -0.393 OA
ATOM     37  H   LIG    1      -31.591  77.031  33.238  0.00  0.00    +0.209 HD
ENDBRANCH  35  36
ENDBRANCH  32  35
ENDBRANCH  30  32
BRANCH  31  38
ATOM     38  O   LIG    1      -29.297  74.710  32.805  0.00  0.00    -0.491 OA
ATOM     39  H   LIG    1      -30.208  74.740  33.139  0.00  0.00    +0.294 HD
ENDBRANCH  31  38
ENDBRANCH   1  31
TORSDOF 9
ENDMDL
MODEL 9
REMARK VINA RESULT:      -5.9      8.894     15.043
REMARK  Name = pdb/CHEMBL3935446.pdb
REMARK                            x       y       z     vdW  Elec       q    Type
REMARK                         _______ _______ _______ _____ _____    ______ ____
ROOT
ATOM      1  C   LIG    1      -27.388  76.116  32.052  0.00  0.00    +0.149 A 
ATOM      2  N   LIG    1      -26.318  75.751  31.333  0.00  0.00    -0.160 NA
ATOM      3  N   LIG    1      -25.290  76.502  31.784  0.00  0.00    -0.218 N 
ATOM      4  C   LIG    1      -25.706  77.380  32.790  0.00  0.00    +0.129 A 
ATOM      5  C   LIG    1      -27.054  77.150  32.951  0.00  0.00    +0.078 A 
ENDROOT
BRANCH   3   6
ATOM      6  C   LIG    1      -24.004  76.326  31.193  0.00  0.00    +0.067 A 
ATOM      7  C   LIG    1      -23.070  75.404  31.679  0.00  0.00    +0.028 A 
ATOM      8  C   LIG    1      -21.804  75.318  31.090  0.00  0.00    +0.002 A 
ATOM      9  C   LIG    1      -21.470  76.128  30.006  0.00  0.00    +0.000 A 
ATOM     10  C   LIG    1      -22.407  77.016  29.489  0.00  0.00    +0.002 A 
ATOM     11  C   LIG    1      -23.672  77.109  30.071  0.00  0.00    +0.028 A 
ENDBRANCH   3   6
BRANCH   4  12
ATOM     12  N   LIG    1      -24.960  78.363  33.441  0.00  0.00    -0.266 N 
ATOM     13  H   LIG    1      -25.167  79.326  33.220  0.00  0.00    +0.157 HD
ATOM     14  C   LIG    1      -23.948  78.071  34.423  0.00  0.00    +0.251 C 
ATOM     15  O   LIG    1      -23.688  76.938  34.746  0.00  0.00    -0.270 OA
BRANCH  14  16
ATOM     16  C   LIG    1      -23.152  79.213  34.938  0.00  0.00    +0.056 A 
ATOM     17  C   LIG    1      -21.813  79.441  34.630  0.00  0.00    +0.054 A 
ATOM     18 CL   LIG    1      -20.909  78.474  33.522  0.00  0.00    -0.083 Cl
ATOM     19  C   LIG    1      -21.151  80.521  35.214  0.00  0.00    +0.041 A 
ATOM     20  C   LIG    1      -21.817  81.404  36.082  0.00  0.00    +0.052 A 
ATOM     21 CL   LIG    1      -20.843  82.702  36.679  0.00  0.00    -0.083 Cl
ATOM     22  C   LIG    1      -23.183  81.241  36.379  0.00  0.00    +0.019 A 
ATOM     23  C   LIG    1      -23.817  80.113  35.794  0.00  0.00    +0.026 A 
BRANCH  22  24
ATOM     24  C   LIG    1      -24.022  82.172  37.181  0.00  0.00    +0.072 A 
ATOM     25  N   LIG    1      -25.182  82.535  36.569  0.00  0.00    -0.255 NA
ATOM     26  C   LIG    1      -26.004  83.408  37.200  0.00  0.00    +0.111 A 
ATOM     27  C   LIG    1      -25.733  83.957  38.437  0.00  0.00    +0.020 A 
ATOM     28  C   LIG    1      -24.563  83.569  39.072  0.00  0.00    +0.004 A 
ATOM     29  C   LIG    1      -23.709  82.656  38.449  0.00  0.00    +0.028 A 
ENDBRANCH  22  24
ENDBRANCH  14  16
ENDBRANCH   4  12
BRANCH   1  31
ATOM     30  N   LIG    1      -29.584  76.143  31.144  0.00  0.00    -0.240 NA
ATOM     31  C   LIG    1      -28.702  75.512  31.845  0.00  0.00    +0.236 C 
BRANCH  30  32
ATOM     32  C   LIG    1      -30.908  75.660  30.838  0.00  0.00    +0.089 C 
ATOM     33  C   LIG    1      -31.370  75.970  29.421  0.00  0.00    +0.035 C 
ATOM     34  C   LIG    1      -30.892  74.596  29.758  0.00  0.00    +0.035 C 
BRANCH  32  35
ATOM     35  C   LIG    1      -31.985  75.583  31.904  0.00  0.00    +0.186 C 
BRANCH  35  36
ATOM     36  O   LIG    1      -31.883  74.328  32.584  0.00  0.00    -0.393 OA
ATOM     37  H   LIG    1      -31.773  73.645  31.896  0.00  0.00    +0.209 HD
ENDBRANCH  35  36
ENDBRANCH  32  35
ENDBRANCH  30  32
BRANCH  31  38
ATOM     38  O   LIG    1      -28.839  74.293  32.400  0.00  0.00    -0.491 OA
ATOM     39  H   LIG    1      -27.980  73.903  32.631  0.00  0.00    +0.294 HD
ENDBRANCH  31  38
ENDBRANCH   1  31
TORSDOF 9
ENDMDL
