MODEL 1
REMARK VINA RESULT:      -6.5      0.000      0.000
REMARK  Name = pdb/CHEMBL3970836.pdb
REMARK                            x       y       z     vdW  Elec       q    Type
REMARK                         _______ _______ _______ _____ _____    ______ ____
ROOT
ATOM      1  C   LIG    1      -31.277  86.905  31.315  0.00  0.00    +0.131 C 
ATOM      2  N   LIG    1      -32.381  87.663  31.164  0.00  0.00    -0.141 NA
ATOM      3  N   LIG    1      -33.136  86.990  30.247  0.00  0.00    -0.201 N 
ATOM      4  C   LIG    1      -32.666  85.686  30.044  0.00  0.00    +0.185 C 
ATOM      5  C   LIG    1      -31.418  85.663  30.636  0.00  0.00    +0.056 C 
ENDROOT
BRANCH   3   6
ATOM      6  C   LIG    1      -34.265  87.616  29.647  0.00  0.00    +0.052 A 
ATOM      7  C   LIG    1      -35.549  87.391  30.161  0.00  0.00    +0.025 A 
ATOM      8  C   LIG    1      -36.658  88.000  29.564  0.00  0.00    +0.002 A 
ATOM      9  C   LIG    1      -36.491  88.852  28.473  0.00  0.00    +0.000 A 
ATOM     10  C   LIG    1      -35.215  89.101  27.977  0.00  0.00    +0.002 A 
ATOM     11  C   LIG    1      -34.103  88.493  28.566  0.00  0.00    +0.025 A 
ENDBRANCH   3   6
BRANCH   4  12
ATOM     12  N   LIG    1      -33.367  84.615  29.449  0.00  0.00    -0.282 N 
ATOM     13  H   LIG    1      -33.352  84.569  28.434  0.00  0.00    +0.152 HD
ATOM     14  C   LIG    1      -34.117  83.616  30.171  0.00  0.00    +0.247 C 
ATOM     15  O   LIG    1      -34.143  83.642  31.402  0.00  0.00    -0.270 OA
BRANCH  14  16
ATOM     16  C   LIG    1      -34.879  82.575  29.416  0.00  0.00    +0.056 A 
ATOM     17  C   LIG    1      -36.214  82.696  29.045  0.00  0.00    +0.054 A 
ATOM     18 CL   LIG    1      -37.139  84.127  29.253  0.00  0.00    -0.083 Cl
ATOM     19  C   LIG    1      -36.872  81.621  28.445  0.00  0.00    +0.041 A 
ATOM     20  C   LIG    1      -36.201  80.429  28.137  0.00  0.00    +0.052 A 
ATOM     21 CL   LIG    1      -37.252  79.123  27.707  0.00  0.00    -0.083 Cl
ATOM     22  C   LIG    1      -34.808  80.322  28.305  0.00  0.00    +0.022 A 
ATOM     23  C   LIG    1      -34.195  81.402  29.016  0.00  0.00    +0.026 A 
BRANCH  22  24
ATOM     24  C   LIG    1      -33.944  79.199  27.811  0.00  0.00    +0.107 A 
ATOM     25  C   LIG    1      -33.960  77.872  28.255  0.00  0.00    +0.149 A 
ATOM     26  F   LIG    1      -34.871  77.409  29.119  0.00  0.00    -0.203 F 
ATOM     27  C   LIG    1      -33.076  76.935  27.726  0.00  0.00    +0.042 A 
ATOM     28  C   LIG    1      -32.261  77.293  26.665  0.00  0.00    +0.023 A 
ATOM     29  C   LIG    1      -32.362  78.587  26.192  0.00  0.00    +0.111 A 
ATOM     30  N   LIG    1      -33.145  79.540  26.756  0.00  0.00    -0.252 NA
ENDBRANCH  22  24
ENDBRANCH  14  16
ENDBRANCH   4  12
BRANCH   1  32
ATOM     31  N   LIG    1      -30.317  87.409  33.472  0.00  0.00    -0.238 NA
ATOM     32  C   LIG    1      -30.183  87.341  32.188  0.00  0.00    +0.233 C 
BRANCH  31  34
ATOM     33  C   LIG    1      -27.926  86.968  34.148  0.00  0.00    +0.041 C 
ATOM     34  C   LIG    1      -29.132  87.895  34.226  0.00  0.00    +0.109 C 
ATOM     35  C   LIG    1      -28.871  89.403  34.029  0.00  0.00    +0.192 C 
ATOM     36  O   LIG    1      -29.279  89.719  35.379  0.00  0.00    -0.375 OA
ATOM     37  C   LIG    1      -29.525  88.321  35.663  0.00  0.00    +0.192 C 
ENDBRANCH  31  34
BRANCH  32  38
ATOM     38  O   LIG    1      -29.038  87.689  31.550  0.00  0.00    -0.491 OA
ATOM     39  H   LIG    1      -28.284  87.643  32.164  0.00  0.00    +0.294 HD
ENDBRANCH  32  38
ENDBRANCH   1  32
TORSDOF 7
ENDMDL
MODEL 2
REMARK VINA RESULT:      -6.4      6.342     10.610
REMARK  Name = pdb/CHEMBL3970836.pdb
REMARK                            x       y       z     vdW  Elec       q    Type
REMARK                         _______ _______ _______ _____ _____    ______ ____
ROOT
ATOM      1  C   LIG    1      -36.687  79.890  27.603  0.00  0.00    +0.131 C 
ATOM      2  N   LIG    1      -35.651  79.056  27.816  0.00  0.00    -0.141 NA
ATOM      3  N   LIG    1      -36.190  77.806  27.705  0.00  0.00    -0.201 N 
ATOM      4  C   LIG    1      -37.470  77.842  27.136  0.00  0.00    +0.185 C 
ATOM      5  C   LIG    1      -37.837  79.173  27.173  0.00  0.00    +0.056 C 
ENDROOT
BRANCH   3   6
ATOM      6  C   LIG    1      -35.448  76.663  28.115  0.00  0.00    +0.052 A 
ATOM      7  C   LIG    1      -34.306  76.272  27.403  0.00  0.00    +0.025 A 
ATOM      8  C   LIG    1      -33.583  75.144  27.803  0.00  0.00    +0.002 A 
ATOM      9  C   LIG    1      -33.978  74.417  28.926  0.00  0.00    +0.000 A 
ATOM     10  C   LIG    1      -35.095  74.818  29.654  0.00  0.00    +0.002 A 
ATOM     11  C   LIG    1      -35.823  75.942  29.257  0.00  0.00    +0.025 A 
ENDBRANCH   3   6
BRANCH   4  12
ATOM     12  N   LIG    1      -38.175  76.760  26.566  0.00  0.00    -0.282 N 
ATOM     13  H   LIG    1      -38.874  76.313  27.152  0.00  0.00    +0.152 HD
ATOM     14  C   LIG    1      -37.952  76.235  25.241  0.00  0.00    +0.247 C 
ATOM     15  O   LIG    1      -37.118  76.764  24.505  0.00  0.00    -0.270 OA
BRANCH  14  16
ATOM     16  C   LIG    1      -38.716  75.034  24.784  0.00  0.00    +0.056 A 
ATOM     17  C   LIG    1      -39.952  75.086  24.149  0.00  0.00    +0.054 A 
ATOM     18 CL   LIG    1      -40.709  76.543  23.646  0.00  0.00    -0.083 Cl
ATOM     19  C   LIG    1      -40.642  73.907  23.865  0.00  0.00    +0.041 A 
ATOM     20  C   LIG    1      -40.089  72.648  24.141  0.00  0.00    +0.052 A 
ATOM     21 CL   LIG    1      -41.219  71.343  24.021  0.00  0.00    -0.083 Cl
ATOM     22  C   LIG    1      -38.762  72.528  24.597  0.00  0.00    +0.022 A 
ATOM     23  C   LIG    1      -38.133  73.758  24.972  0.00  0.00    +0.026 A 
BRANCH  22  24
ATOM     24  C   LIG    1      -37.982  71.252  24.715  0.00  0.00    +0.107 A 
ATOM     25  C   LIG    1      -37.996  70.176  23.819  0.00  0.00    +0.149 A 
ATOM     26  F   LIG    1      -38.638  70.219  22.646  0.00  0.00    -0.203 F 
ATOM     27  C   LIG    1      -37.241  69.033  24.071  0.00  0.00    +0.042 A 
ATOM     28  C   LIG    1      -36.376  69.015  25.151  0.00  0.00    +0.023 A 
ATOM     29  C   LIG    1      -36.319  70.145  25.942  0.00  0.00    +0.111 A 
ATOM     30  N   LIG    1      -37.117  71.229  25.772  0.00  0.00    -0.252 NA
ENDBRANCH  22  24
ENDBRANCH  14  16
ENDBRANCH   4  12
BRANCH   1  32
ATOM     31  N   LIG    1      -37.452  82.117  28.141  0.00  0.00    -0.238 NA
ATOM     32  C   LIG    1      -36.511  81.342  27.708  0.00  0.00    +0.233 C 
BRANCH  31  34
ATOM     33  C   LIG    1      -36.196  83.980  29.288  0.00  0.00    +0.041 C 
ATOM     34  C   LIG    1      -37.141  83.569  28.166  0.00  0.00    +0.109 C 
ATOM     35  C   LIG    1      -36.860  84.148  26.763  0.00  0.00    +0.192 C 
ATOM     36  O   LIG    1      -38.101  84.888  26.746  0.00  0.00    -0.375 OA
ATOM     37  C   LIG    1      -38.436  84.415  28.072  0.00  0.00    +0.192 C 
ENDBRANCH  31  34
BRANCH  32  38
ATOM     38  O   LIG    1      -35.308  81.811  27.296  0.00  0.00    -0.491 OA
ATOM     39  H   LIG    1      -34.612  81.156  27.479  0.00  0.00    +0.294 HD
ENDBRANCH  32  38
ENDBRANCH   1  32
TORSDOF 7
ENDMDL
MODEL 3
REMARK VINA RESULT:      -6.3      8.666     15.747
REMARK  Name = pdb/CHEMBL3970836.pdb
REMARK                            x       y       z     vdW  Elec       q    Type
REMARK                         _______ _______ _______ _____ _____    ______ ____
ROOT
ATOM      1  C   LIG    1      -36.270  69.401  25.036  0.00  0.00    +0.131 C 
ATOM      2  N   LIG    1      -37.161  70.397  24.872  0.00  0.00    -0.141 NA
ATOM      3  N   LIG    1      -36.717  71.392  25.695  0.00  0.00    -0.201 N 
ATOM      4  C   LIG    1      -35.411  71.152  26.142  0.00  0.00    +0.185 C 
ATOM      5  C   LIG    1      -35.163  69.833  25.817  0.00  0.00    +0.056 C 
ENDROOT
BRANCH   3   6
ATOM      6  C   LIG    1      -37.545  72.514  25.980  0.00  0.00    +0.052 A 
ATOM      7  C   LIG    1      -37.998  72.741  27.286  0.00  0.00    +0.025 A 
ATOM      8  C   LIG    1      -38.819  73.840  27.562  0.00  0.00    +0.002 A 
ATOM      9  C   LIG    1      -39.170  74.729  26.546  0.00  0.00    +0.000 A 
ATOM     10  C   LIG    1      -38.700  74.523  25.252  0.00  0.00    +0.002 A 
ATOM     11  C   LIG    1      -37.882  73.426  24.970  0.00  0.00    +0.025 A 
ENDBRANCH   3   6
BRANCH   4  12
ATOM     12  N   LIG    1      -34.523  72.091  26.709  0.00  0.00    -0.282 N 
ATOM     13  H   LIG    1      -33.925  72.599  26.064  0.00  0.00    +0.152 HD
ATOM     14  C   LIG    1      -34.385  72.351  28.121  0.00  0.00    +0.247 C 
ATOM     15  O   LIG    1      -35.105  71.757  28.926  0.00  0.00    -0.270 OA
BRANCH  14  16
ATOM     16  C   LIG    1      -33.351  73.319  28.597  0.00  0.00    +0.056 A 
ATOM     17  C   LIG    1      -32.183  72.956  29.259  0.00  0.00    +0.054 A 
ATOM     18 CL   LIG    1      -31.674  71.331  29.480  0.00  0.00    -0.083 Cl
ATOM     19  C   LIG    1      -31.334  73.939  29.770  0.00  0.00    +0.041 A 
ATOM     20  C   LIG    1      -31.591  75.303  29.574  0.00  0.00    +0.052 A 
ATOM     21 CL   LIG    1      -30.616  76.348  30.550  0.00  0.00    -0.083 Cl
ATOM     22  C   LIG    1      -32.646  75.727  28.743  0.00  0.00    +0.022 A 
ATOM     23  C   LIG    1      -33.547  74.695  28.330  0.00  0.00    +0.026 A 
BRANCH  22  24
ATOM     24  C   LIG    1      -32.889  77.131  28.274  0.00  0.00    +0.107 A 
ATOM     25  C   LIG    1      -32.333  77.744  27.145  0.00  0.00    +0.149 A 
ATOM     26  F   LIG    1      -31.589  77.081  26.252  0.00  0.00    -0.203 F 
ATOM     27  C   LIG    1      -32.625  79.072  26.842  0.00  0.00    +0.042 A 
ATOM     28  C   LIG    1      -33.569  79.749  27.596  0.00  0.00    +0.023 A 
ATOM     29  C   LIG    1      -34.168  79.062  28.633  0.00  0.00    +0.111 A 
ATOM     30  N   LIG    1      -33.827  77.802  29.004  0.00  0.00    -0.252 NA
ENDBRANCH  22  24
ENDBRANCH  14  16
ENDBRANCH   4  12
BRANCH   1  32
ATOM     31  N   LIG    1      -35.722  67.770  23.341  0.00  0.00    -0.238 NA
ATOM     32  C   LIG    1      -36.450  68.116  24.352  0.00  0.00    +0.233 C 
BRANCH  31  34
ATOM     33  C   LIG    1      -35.627  65.261  23.589  0.00  0.00    +0.041 C 
ATOM     34  C   LIG    1      -36.037  66.451  22.732  0.00  0.00    +0.109 C 
ATOM     35  C   LIG    1      -37.440  66.405  22.091  0.00  0.00    +0.192 C 
ATOM     36  O   LIG    1      -36.900  66.373  20.750  0.00  0.00    -0.375 OA
ATOM     37  C   LIG    1      -35.546  66.388  21.264  0.00  0.00    +0.192 C 
ENDBRANCH  31  34
BRANCH  32  38
ATOM     38  O   LIG    1      -37.445  67.336  24.841  0.00  0.00    -0.491 OA
ATOM     39  H   LIG    1      -37.434  66.465  24.405  0.00  0.00    +0.294 HD
ENDBRANCH  32  38
ENDBRANCH   1  32
TORSDOF 7
ENDMDL
MODEL 4
REMARK VINA RESULT:      -6.3     18.686     20.475
REMARK  Name = pdb/CHEMBL3970836.pdb
REMARK                            x       y       z     vdW  Elec       q    Type
REMARK                         _______ _______ _______ _____ _____    ______ ____
ROOT
ATOM      1  C   LIG    1      -21.882  83.447  14.258  0.00  0.00    +0.131 C 
ATOM      2  N   LIG    1      -22.972  82.839  14.764  0.00  0.00    -0.141 NA
ATOM      3  N   LIG    1      -22.775  81.512  14.509  0.00  0.00    -0.201 N 
ATOM      4  C   LIG    1      -21.455  81.250  14.120  0.00  0.00    +0.185 C 
ATOM      5  C   LIG    1      -20.912  82.490  13.850  0.00  0.00    +0.056 C 
ENDROOT
BRANCH   3   6
ATOM      6  C   LIG    1      -23.838  80.581  14.677  0.00  0.00    +0.052 A 
ATOM      7  C   LIG    1      -23.865  79.739  15.797  0.00  0.00    +0.025 A 
ATOM      8  C   LIG    1      -24.907  78.819  15.956  0.00  0.00    +0.002 A 
ATOM      9  C   LIG    1      -25.936  78.751  15.017  0.00  0.00    +0.000 A 
ATOM     10  C   LIG    1      -25.928  79.604  13.917  0.00  0.00    +0.002 A 
ATOM     11  C   LIG    1      -24.889  80.524  13.752  0.00  0.00    +0.025 A 
ENDBRANCH   3   6
BRANCH   4  12
ATOM     12  N   LIG    1      -20.808  79.995  14.108  0.00  0.00    -0.282 N 
ATOM     13  H   LIG    1      -20.825  79.483  13.231  0.00  0.00    +0.152 HD
ATOM     14  C   LIG    1      -20.163  79.387  15.246  0.00  0.00    +0.247 C 
ATOM     15  O   LIG    1      -20.119  79.990  16.320  0.00  0.00    -0.270 OA
BRANCH  14  16
ATOM     16  C   LIG    1      -19.579  78.016  15.120  0.00  0.00    +0.056 A 
ATOM     17  C   LIG    1      -18.393  77.728  14.455  0.00  0.00    +0.054 A 
ATOM     18 CL   LIG    1      -17.336  78.924  13.821  0.00  0.00    -0.083 Cl
ATOM     19  C   LIG    1      -17.989  76.402  14.289  0.00  0.00    +0.041 A 
ATOM     20  C   LIG    1      -18.718  75.339  14.840  0.00  0.00    +0.052 A 
ATOM     21 CL   LIG    1      -18.242  73.782  14.253  0.00  0.00    -0.083 Cl
ATOM     22  C   LIG    1      -19.813  75.580  15.691  0.00  0.00    +0.022 A 
ATOM     23  C   LIG    1      -20.253  76.941  15.747  0.00  0.00    +0.026 A 
BRANCH  22  24
ATOM     24  C   LIG    1      -20.531  74.554  16.517  0.00  0.00    +0.107 A 
ATOM     25  C   LIG    1      -19.964  73.702  17.472  0.00  0.00    +0.149 A 
ATOM     26  F   LIG    1      -18.687  73.796  17.861  0.00  0.00    -0.203 F 
ATOM     27  C   LIG    1      -20.748  72.770  18.147  0.00  0.00    +0.042 A 
ATOM     28  C   LIG    1      -22.120  72.774  17.960  0.00  0.00    +0.023 A 
ATOM     29  C   LIG    1      -22.642  73.709  17.088  0.00  0.00    +0.111 A 
ATOM     30  N   LIG    1      -21.886  74.559  16.348  0.00  0.00    -0.252 NA
ENDBRANCH  22  24
ENDBRANCH  14  16
ENDBRANCH   4  12
BRANCH   1  32
ATOM     31  N   LIG    1      -21.338  85.578  13.261  0.00  0.00    -0.238 NA
ATOM     32  C   LIG    1      -21.760  84.908  14.284  0.00  0.00    +0.233 C 
BRANCH  31  34
ATOM     33  C   LIG    1      -22.587  87.752  13.543  0.00  0.00    +0.041 C 
ATOM     34  C   LIG    1      -21.240  87.049  13.443  0.00  0.00    +0.109 C 
ATOM     35  C   LIG    1      -20.157  87.458  14.464  0.00  0.00    +0.192 C 
ATOM     36  O   LIG    1      -19.294  87.994  13.436  0.00  0.00    -0.375 OA
ATOM     37  C   LIG    1      -20.264  87.671  12.411  0.00  0.00    +0.192 C 
ENDBRANCH  31  34
BRANCH  32  38
ATOM     38  O   LIG    1      -22.095  85.495  15.458  0.00  0.00    -0.491 OA
ATOM     39  H   LIG    1      -21.321  85.536  16.047  0.00  0.00    +0.294 HD
ENDBRANCH  32  38
ENDBRANCH   1  32
TORSDOF 7
ENDMDL
MODEL 5
REMARK VINA RESULT:      -6.2     18.559     20.056
REMARK  Name = pdb/CHEMBL3970836.pdb
REMARK                            x       y       z     vdW  Elec       q    Type
REMARK                         _______ _______ _______ _____ _____    ______ ____
ROOT
ATOM      1  C   LIG    1      -22.102  83.181  14.578  0.00  0.00    +0.131 C 
ATOM      2  N   LIG    1      -23.351  82.676  14.549  0.00  0.00    -0.141 NA
ATOM      3  N   LIG    1      -23.175  81.324  14.600  0.00  0.00    -0.201 N 
ATOM      4  C   LIG    1      -21.864  80.984  14.958  0.00  0.00    +0.185 C 
ATOM      5  C   LIG    1      -21.148  82.159  14.835  0.00  0.00    +0.056 C 
ENDROOT
BRANCH   3   6
ATOM      6  C   LIG    1      -24.264  80.445  14.336  0.00  0.00    +0.052 A 
ATOM      7  C   LIG    1      -24.845  79.712  15.379  0.00  0.00    +0.025 A 
ATOM      8  C   LIG    1      -25.909  78.843  15.116  0.00  0.00    +0.002 A 
ATOM      9  C   LIG    1      -26.415  78.721  13.821  0.00  0.00    +0.000 A 
ATOM     10  C   LIG    1      -25.859  79.469  12.787  0.00  0.00    +0.002 A 
ATOM     11  C   LIG    1      -24.794  80.336  13.043  0.00  0.00    +0.025 A 
ENDBRANCH   3   6
BRANCH   4  12
ATOM     12  N   LIG    1      -21.411  79.734  15.432  0.00  0.00    -0.282 N 
ATOM     13  H   LIG    1      -21.252  79.657  16.433  0.00  0.00    +0.152 HD
ATOM     14  C   LIG    1      -21.133  78.587  14.604  0.00  0.00    +0.247 C 
ATOM     15  O   LIG    1      -21.327  78.648  13.388  0.00  0.00    -0.270 OA
BRANCH  14  16
ATOM     16  C   LIG    1      -20.584  77.342  15.223  0.00  0.00    +0.056 A 
ATOM     17  C   LIG    1      -19.269  77.193  15.649  0.00  0.00    +0.054 A 
ATOM     18 CL   LIG    1      -18.121  78.470  15.678  0.00  0.00    -0.083 Cl
ATOM     19  C   LIG    1      -18.819  75.953  16.107  0.00  0.00    +0.041 A 
ATOM     20  C   LIG    1      -19.684  74.855  16.219  0.00  0.00    +0.052 A 
ATOM     21 CL   LIG    1      -18.874  73.349  16.487  0.00  0.00    -0.083 Cl
ATOM     22  C   LIG    1      -21.066  75.000  15.994  0.00  0.00    +0.022 A 
ATOM     23  C   LIG    1      -21.463  76.252  15.428  0.00  0.00    +0.026 A 
BRANCH  22  24
ATOM     24  C   LIG    1      -22.120  73.975  16.294  0.00  0.00    +0.107 A 
ATOM     25  C   LIG    1      -22.247  73.223  17.468  0.00  0.00    +0.149 A 
ATOM     26  F   LIG    1      -21.484  73.432  18.548  0.00  0.00    -0.203 F 
ATOM     27  C   LIG    1      -23.262  72.278  17.601  0.00  0.00    +0.042 A 
ATOM     28  C   LIG    1      -24.225  72.174  16.611  0.00  0.00    +0.023 A 
ATOM     29  C   LIG    1      -24.115  73.016  15.522  0.00  0.00    +0.111 A 
ATOM     30  N   LIG    1      -23.081  73.873  15.329  0.00  0.00    -0.252 NA
ENDBRANCH  22  24
ENDBRANCH  14  16
ENDBRANCH   4  12
BRANCH   1  32
ATOM     31  N   LIG    1      -21.340  85.160  13.423  0.00  0.00    -0.238 NA
ATOM     32  C   LIG    1      -21.877  84.626  14.472  0.00  0.00    +0.233 C 
BRANCH  31  34
ATOM     33  C   LIG    1      -22.439  87.430  13.336  0.00  0.00    +0.041 C 
ATOM     34  C   LIG    1      -21.148  86.633  13.468  0.00  0.00    +0.109 C 
ATOM     35  C   LIG    1      -20.158  87.076  14.566  0.00  0.00    +0.192 C 
ATOM     36  O   LIG    1      -19.146  87.441  13.601  0.00  0.00    -0.375 OA
ATOM     37  C   LIG    1      -20.018  87.074  12.505  0.00  0.00    +0.192 C 
ENDBRANCH  31  34
BRANCH  32  38
ATOM     38  O   LIG    1      -22.247  85.350  15.556  0.00  0.00    -0.491 OA
ATOM     39  H   LIG    1      -22.030  86.290  15.422  0.00  0.00    +0.294 HD
ENDBRANCH  32  38
ENDBRANCH   1  32
TORSDOF 7
ENDMDL
MODEL 6
REMARK VINA RESULT:      -6.2      8.572     15.077
REMARK  Name = pdb/CHEMBL3970836.pdb
REMARK                            x       y       z     vdW  Elec       q    Type
REMARK                         _______ _______ _______ _____ _____    ______ ____
ROOT
ATOM      1  C   LIG    1      -40.729  72.809  23.641  0.00  0.00    +0.131 C 
ATOM      2  N   LIG    1      -40.895  74.134  23.456  0.00  0.00    -0.141 NA
ATOM      3  N   LIG    1      -40.006  74.713  24.316  0.00  0.00    -0.201 N 
ATOM      4  C   LIG    1      -39.085  73.783  24.815  0.00  0.00    +0.185 C 
ATOM      5  C   LIG    1      -39.609  72.550  24.478  0.00  0.00    +0.056 C 
ENDROOT
BRANCH   3   6
ATOM      6  C   LIG    1      -40.070  76.110  24.584  0.00  0.00    +0.052 A 
ATOM      7  C   LIG    1      -40.127  76.570  25.906  0.00  0.00    +0.025 A 
ATOM      8  C   LIG    1      -40.198  77.943  26.166  0.00  0.00    +0.002 A 
ATOM      9  C   LIG    1      -40.188  78.861  25.116  0.00  0.00    +0.000 A 
ATOM     10  C   LIG    1      -40.104  78.409  23.802  0.00  0.00    +0.002 A 
ATOM     11  C   LIG    1      -40.035  77.039  23.535  0.00  0.00    +0.025 A 
ENDBRANCH   3   6
BRANCH   4  12
ATOM     12  N   LIG    1      -37.850  74.063  25.437  0.00  0.00    -0.282 N 
ATOM     13  H   LIG    1      -37.091  74.359  24.830  0.00  0.00    +0.152 HD
ATOM     14  C   LIG    1      -37.587  73.931  26.849  0.00  0.00    +0.247 C 
ATOM     15  O   LIG    1      -38.491  73.585  27.611  0.00  0.00    -0.270 OA
BRANCH  14  16
ATOM     16  C   LIG    1      -36.210  74.188  27.372  0.00  0.00    +0.056 A 
ATOM     17  C   LIG    1      -35.341  73.195  27.813  0.00  0.00    +0.054 A 
ATOM     18 CL   LIG    1      -35.657  71.514  27.668  0.00  0.00    -0.083 Cl
ATOM     19  C   LIG    1      -34.121  73.543  28.394  0.00  0.00    +0.041 A 
ATOM     20  C   LIG    1      -33.706  74.878  28.486  0.00  0.00    +0.052 A 
ATOM     21 CL   LIG    1      -32.337  75.119  29.518  0.00  0.00    -0.083 Cl
ATOM     22  C   LIG    1      -34.449  75.908  27.878  0.00  0.00    +0.022 A 
ATOM     23  C   LIG    1      -35.737  75.522  27.389  0.00  0.00    +0.026 A 
BRANCH  22  24
ATOM     24  C   LIG    1      -34.008  77.332  27.709  0.00  0.00    +0.107 A 
ATOM     25  C   LIG    1      -32.881  77.783  27.011  0.00  0.00    +0.149 A 
ATOM     26  F   LIG    1      -32.107  76.969  26.282  0.00  0.00    -0.203 F 
ATOM     27  C   LIG    1      -32.573  79.140  26.960  0.00  0.00    +0.042 A 
ATOM     28  C   LIG    1      -33.459  80.058  27.499  0.00  0.00    +0.023 A 
ATOM     29  C   LIG    1      -34.611  79.567  28.081  0.00  0.00    +0.111 A 
ATOM     30  N   LIG    1      -34.882  78.245  28.227  0.00  0.00    -0.252 NA
ENDBRANCH  22  24
ENDBRANCH  14  16
ENDBRANCH   4  12
BRANCH   1  32
ATOM     31  N   LIG    1      -41.447  70.568  23.102  0.00  0.00    -0.238 NA
ATOM     32  C   LIG    1      -41.570  71.843  22.927  0.00  0.00    +0.233 C 
BRANCH  31  34
ATOM     33  C   LIG    1      -43.798  69.719  22.758  0.00  0.00    +0.041 C 
ATOM     34  C   LIG    1      -42.348  69.709  22.291  0.00  0.00    +0.109 C 
ATOM     35  C   LIG    1      -42.098  69.841  20.774  0.00  0.00    +0.192 C 
ATOM     36  O   LIG    1      -41.522  68.518  20.686  0.00  0.00    -0.375 OA
ATOM     37  C   LIG    1      -41.743  68.296  22.099  0.00  0.00    +0.192 C 
ENDBRANCH  31  34
BRANCH  32  38
ATOM     38  O   LIG    1      -42.461  72.382  22.060  0.00  0.00    -0.491 OA
ATOM     39  H   LIG    1      -43.315  72.528  22.503  0.00  0.00    +0.294 HD
ENDBRANCH  32  38
ENDBRANCH   1  32
TORSDOF 7
ENDMDL
MODEL 7
REMARK VINA RESULT:      -6.2     18.831     21.653
REMARK  Name = pdb/CHEMBL3970836.pdb
REMARK                            x       y       z     vdW  Elec       q    Type
REMARK                         _______ _______ _______ _____ _____    ______ ____
ROOT
ATOM      1  C   LIG    1      -26.054  77.841  13.686  0.00  0.00    +0.131 C 
ATOM      2  N   LIG    1      -25.121  77.951  14.652  0.00  0.00    -0.141 NA
ATOM      3  N   LIG    1      -24.515  79.150  14.408  0.00  0.00    -0.201 N 
ATOM      4  C   LIG    1      -25.243  79.923  13.495  0.00  0.00    +0.185 C 
ATOM      5  C   LIG    1      -26.163  79.050  12.946  0.00  0.00    +0.056 C 
ENDROOT
BRANCH   3   6
ATOM      6  C   LIG    1      -23.307  79.495  15.077  0.00  0.00    +0.052 A 
ATOM      7  C   LIG    1      -23.300  80.517  16.035  0.00  0.00    +0.025 A 
ATOM      8  C   LIG    1      -22.109  80.860  16.684  0.00  0.00    +0.002 A 
ATOM      9  C   LIG    1      -20.929  80.171  16.401  0.00  0.00    +0.000 A 
ATOM     10  C   LIG    1      -20.937  79.136  15.470  0.00  0.00    +0.002 A 
ATOM     11  C   LIG    1      -22.123  78.791  14.817  0.00  0.00    +0.025 A 
ENDBRANCH   3   6
BRANCH   4  12
ATOM     12  N   LIG    1      -25.117  81.310  13.268  0.00  0.00    -0.282 N 
ATOM     13  H   LIG    1      -25.597  81.924  13.920  0.00  0.00    +0.152 HD
ATOM     14  C   LIG    1      -24.392  81.906  12.173  0.00  0.00    +0.247 C 
ATOM     15  O   LIG    1      -23.792  81.187  11.372  0.00  0.00    -0.270 OA
BRANCH  14  16
ATOM     16  C   LIG    1      -24.399  83.391  12.002  0.00  0.00    +0.056 A 
ATOM     17  C   LIG    1      -25.391  84.099  11.331  0.00  0.00    +0.054 A 
ATOM     18 CL   LIG    1      -26.840  83.391  10.743  0.00  0.00    -0.083 Cl
ATOM     19  C   LIG    1      -25.249  85.472  11.122  0.00  0.00    +0.041 A 
ATOM     20  C   LIG    1      -24.156  86.183  11.635  0.00  0.00    +0.052 A 
ATOM     21 CL   LIG    1      -23.998  87.784  10.997  0.00  0.00    -0.083 Cl
ATOM     22  C   LIG    1      -23.227  85.560  12.490  0.00  0.00    +0.022 A 
ATOM     23  C   LIG    1      -23.350  84.138  12.590  0.00  0.00    +0.026 A 
BRANCH  22  24
ATOM     24  C   LIG    1      -22.153  86.250  13.278  0.00  0.00    +0.107 A 
ATOM     25  C   LIG    1      -20.909  86.680  12.801  0.00  0.00    +0.149 A 
ATOM     26  F   LIG    1      -20.574  86.633  11.506  0.00  0.00    -0.203 F 
ATOM     27  C   LIG    1      -19.990  87.284  13.656  0.00  0.00    +0.042 A 
ATOM     28  C   LIG    1      -20.362  87.571  14.959  0.00  0.00    +0.023 A 
ATOM     29  C   LIG    1      -21.641  87.224  15.349  0.00  0.00    +0.111 A 
ATOM     30  N   LIG    1      -22.515  86.548  14.561  0.00  0.00    -0.252 NA
ENDBRANCH  22  24
ENDBRANCH  14  16
ENDBRANCH   4  12
BRANCH   1  32
ATOM     31  N   LIG    1      -26.776  75.822  12.575  0.00  0.00    -0.238 NA
ATOM     32  C   LIG    1      -26.879  76.634  13.577  0.00  0.00    +0.233 C 
BRANCH  31  34
ATOM     33  C   LIG    1      -27.461  73.692  13.741  0.00  0.00    +0.041 C 
ATOM     34  C   LIG    1      -27.696  74.655  12.585  0.00  0.00    +0.109 C 
ATOM     35  C   LIG    1      -29.159  75.041  12.278  0.00  0.00    +0.192 C 
ATOM     36  O   LIG    1      -29.122  74.411  10.977  0.00  0.00    -0.375 OA
ATOM     37  C   LIG    1      -27.755  73.985  11.189  0.00  0.00    +0.192 C 
ENDBRANCH  31  34
BRANCH  32  38
ATOM     38  O   LIG    1      -27.767  76.447  14.584  0.00  0.00    -0.491 OA
ATOM     39  H   LIG    1      -28.666  76.348  14.225  0.00  0.00    +0.294 HD
ENDBRANCH  32  38
ENDBRANCH   1  32
TORSDOF 7
ENDMDL
MODEL 8
REMARK VINA RESULT:      -6.1     17.384     21.005
REMARK  Name = pdb/CHEMBL3970836.pdb
REMARK                            x       y       z     vdW  Elec       q    Type
REMARK                         _______ _______ _______ _____ _____    ______ ____
ROOT
ATOM      1  C   LIG    1      -28.963  65.918  18.957  0.00  0.00    +0.131 C 
ATOM      2  N   LIG    1      -28.930  67.156  18.425  0.00  0.00    -0.141 NA
ATOM      3  N   LIG    1      -30.221  67.594  18.500  0.00  0.00    -0.201 N 
ATOM      4  C   LIG    1      -30.999  66.779  19.332  0.00  0.00    +0.185 C 
ATOM      5  C   LIG    1      -30.233  65.648  19.536  0.00  0.00    +0.056 C 
ENDROOT
BRANCH   3   6
ATOM      6  C   LIG    1      -30.624  68.768  17.803  0.00  0.00    +0.052 A 
ATOM      7  C   LIG    1      -30.528  70.021  18.423  0.00  0.00    +0.025 A 
ATOM      8  C   LIG    1      -30.932  71.173  17.739  0.00  0.00    +0.002 A 
ATOM      9  C   LIG    1      -31.408  71.085  16.431  0.00  0.00    +0.000 A 
ATOM     10  C   LIG    1      -31.478  69.845  15.801  0.00  0.00    +0.002 A 
ATOM     11  C   LIG    1      -31.078  68.692  16.480  0.00  0.00    +0.025 A 
ENDBRANCH   3   6
BRANCH   4  12
ATOM     12  N   LIG    1      -32.247  67.100  19.907  0.00  0.00    -0.282 N 
ATOM     13  H   LIG    1      -32.397  68.074  20.156  0.00  0.00    +0.152 HD
ATOM     14  C   LIG    1      -33.296  66.151  20.191  0.00  0.00    +0.247 C 
ATOM     15  O   LIG    1      -33.145  64.965  19.890  0.00  0.00    -0.270 OA
BRANCH  14  16
ATOM     16  C   LIG    1      -34.544  66.609  20.873  0.00  0.00    +0.056 A 
ATOM     17  C   LIG    1      -35.809  66.580  20.296  0.00  0.00    +0.054 A 
ATOM     18 CL   LIG    1      -36.150  65.859  18.775  0.00  0.00    -0.083 Cl
ATOM     19  C   LIG    1      -36.897  67.139  20.968  0.00  0.00    +0.041 A 
ATOM     20  C   LIG    1      -36.766  67.675  22.256  0.00  0.00    +0.052 A 
ATOM     21 CL   LIG    1      -38.134  68.600  22.774  0.00  0.00    -0.083 Cl
ATOM     22  C   LIG    1      -35.559  67.553  22.969  0.00  0.00    +0.022 A 
ATOM     23  C   LIG    1      -34.447  67.071  22.207  0.00  0.00    +0.026 A 
BRANCH  22  24
ATOM     24  C   LIG    1      -35.354  67.877  24.420  0.00  0.00    +0.107 A 
ATOM     25  C   LIG    1      -35.877  67.180  25.516  0.00  0.00    +0.149 A 
ATOM     26  F   LIG    1      -36.544  66.026  25.390  0.00  0.00    -0.203 F 
ATOM     27  C   LIG    1      -35.630  67.614  26.816  0.00  0.00    +0.042 A 
ATOM     28  C   LIG    1      -34.758  68.668  27.027  0.00  0.00    +0.023 A 
ATOM     29  C   LIG    1      -34.183  69.252  25.915  0.00  0.00    +0.111 A 
ATOM     30  N   LIG    1      -34.486  68.909  24.638  0.00  0.00    -0.252 NA
ENDBRANCH  22  24
ENDBRANCH  14  16
ENDBRANCH   4  12
BRANCH   1  32
ATOM     31  N   LIG    1      -27.600  64.141  19.861  0.00  0.00    -0.238 NA
ATOM     32  C   LIG    1      -27.755  65.088  18.993  0.00  0.00    +0.233 C 
BRANCH  31  34
ATOM     33  C   LIG    1      -26.114  62.621  18.501  0.00  0.00    +0.041 C 
ATOM     34  C   LIG    1      -26.313  63.401  19.794  0.00  0.00    +0.109 C 
ATOM     35  C   LIG    1      -25.116  64.229  20.306  0.00  0.00    +0.192 C 
ATOM     36  O   LIG    1      -24.983  63.424  21.500  0.00  0.00    -0.375 OA
ATOM     37  C   LIG    1      -26.081  62.577  21.086  0.00  0.00    +0.192 C 
ENDBRANCH  31  34
BRANCH  32  38
ATOM     38  O   LIG    1      -26.811  65.399  18.072  0.00  0.00    -0.491 OA
ATOM     39  H   LIG    1      -27.201  65.407  17.180  0.00  0.00    +0.294 HD
ENDBRANCH  32  38
ENDBRANCH   1  32
TORSDOF 7
ENDMDL
MODEL 9
REMARK VINA RESULT:      -6.1      8.619     11.240
REMARK  Name = pdb/CHEMBL3970836.pdb
REMARK                            x       y       z     vdW  Elec       q    Type
REMARK                         _______ _______ _______ _____ _____    ______ ____
ROOT
ATOM      1  C   LIG    1      -31.537  74.207  29.965  0.00  0.00    +0.131 C 
ATOM      2  N   LIG    1      -31.747  75.535  29.885  0.00  0.00    -0.141 NA
ATOM      3  N   LIG    1      -32.625  75.682  28.850  0.00  0.00    -0.201 N 
ATOM      4  C   LIG    1      -33.195  74.458  28.476  0.00  0.00    +0.185 C 
ATOM      5  C   LIG    1      -32.423  73.501  29.105  0.00  0.00    +0.056 C 
ENDROOT
BRANCH   3   6
ATOM      6  C   LIG    1      -32.887  76.971  28.306  0.00  0.00    +0.052 A 
ATOM      7  C   LIG    1      -32.229  77.390  27.142  0.00  0.00    +0.025 A 
ATOM      8  C   LIG    1      -32.482  78.660  26.614  0.00  0.00    +0.002 A 
ATOM      9  C   LIG    1      -33.407  79.507  27.226  0.00  0.00    +0.000 A 
ATOM     10  C   LIG    1      -34.083  79.084  28.367  0.00  0.00    +0.002 A 
ATOM     11  C   LIG    1      -33.833  77.817  28.901  0.00  0.00    +0.025 A 
ENDBRANCH   3   6
BRANCH   4  12
ATOM     12  N   LIG    1      -34.360  74.267  27.703  0.00  0.00    -0.282 N 
ATOM     13  H   LIG    1      -34.224  74.033  26.724  0.00  0.00    +0.152 HD
ATOM     14  C   LIG    1      -35.709  74.409  28.193  0.00  0.00    +0.247 C 
ATOM     15  O   LIG    1      -35.904  74.682  29.379  0.00  0.00    -0.270 OA
BRANCH  14  16
ATOM     16  C   LIG    1      -36.859  74.252  27.251  0.00  0.00    +0.056 A 
ATOM     17  C   LIG    1      -37.436  73.033  26.913  0.00  0.00    +0.054 A 
ATOM     18 CL   LIG    1      -37.022  71.541  27.655  0.00  0.00    -0.083 Cl
ATOM     19  C   LIG    1      -38.429  72.977  25.934  0.00  0.00    +0.041 A 
ATOM     20  C   LIG    1      -38.920  74.137  25.320  0.00  0.00    +0.052 A 
ATOM     21 CL   LIG    1      -39.895  73.833  23.922  0.00  0.00    -0.083 Cl
ATOM     22  C   LIG    1      -38.519  75.412  25.762  0.00  0.00    +0.022 A 
ATOM     23  C   LIG    1      -37.428  75.420  26.689  0.00  0.00    +0.026 A 
BRANCH  22  24
ATOM     24  C   LIG    1      -39.128  76.720  25.351  0.00  0.00    +0.107 A 
ATOM     25  C   LIG    1      -38.689  77.561  24.320  0.00  0.00    +0.149 A 
ATOM     26  F   LIG    1      -37.713  77.218  23.472  0.00  0.00    -0.203 F 
ATOM     27  C   LIG    1      -39.335  78.768  24.066  0.00  0.00    +0.042 A 
ATOM     28  C   LIG    1      -40.494  79.077  24.757  0.00  0.00    +0.023 A 
ATOM     29  C   LIG    1      -40.945  78.162  25.688  0.00  0.00    +0.111 A 
ATOM     30  N   LIG    1      -40.279  77.028  26.019  0.00  0.00    -0.252 NA
ENDBRANCH  22  24
ENDBRANCH  14  16
ENDBRANCH   4  12
BRANCH   1  32
ATOM     31  N   LIG    1      -29.887  72.597  30.682  0.00  0.00    -0.238 NA
ATOM     32  C   LIG    1      -30.584  73.656  30.934  0.00  0.00    +0.233 C 
BRANCH  31  34
ATOM     33  C   LIG    1      -29.709  71.631  33.006  0.00  0.00    +0.041 C 
ATOM     34  C   LIG    1      -28.982  72.139  31.768  0.00  0.00    +0.109 C 
ATOM     35  C   LIG    1      -27.802  71.290  31.249  0.00  0.00    +0.192 C 
ATOM     36  O   LIG    1      -26.842  72.335  31.524  0.00  0.00    -0.375 OA
ATOM     37  C   LIG    1      -27.882  73.192  32.053  0.00  0.00    +0.192 C 
ENDBRANCH  31  34
BRANCH  32  38
ATOM     38  O   LIG    1      -30.508  74.321  32.112  0.00  0.00    -0.491 OA
ATOM     39  H   LIG    1      -29.839  73.910  32.688  0.00  0.00    +0.294 HD
ENDBRANCH  32  38
ENDBRANCH   1  32
TORSDOF 7
ENDMDL
