MODEL 1
REMARK VINA RESULT:      -6.2      0.000      0.000
REMARK  Name = pdb/CHEMBL3673476.pdb
REMARK                            x       y       z     vdW  Elec       q    Type
REMARK                         _______ _______ _______ _____ _____    ______ ____
ROOT
ATOM      1  C   LIG    1      -36.108  82.715  29.984  0.00  0.00    +0.161 C 
ENDROOT
BRANCH   1   2
ATOM      2  N   LIG    1      -35.392  83.876  29.394  0.00  0.00    -0.293 N 
ATOM      3  C   LIG    1      -34.242  84.393  29.926  0.00  0.00    +0.162 A 
ATOM      4  N   LIG    1      -33.517  83.933  30.950  0.00  0.00    -0.235 NA
ATOM      5  C   LIG    1      -32.467  84.750  31.262  0.00  0.00    +0.121 A 
ATOM      6  C   LIG    1      -32.104  85.939  30.612  0.00  0.00    +0.005 A 
ATOM      7  C   LIG    1      -32.873  86.334  29.507  0.00  0.00    +0.041 A 
ATOM      8  C   LIG    1      -33.978  85.527  29.151  0.00  0.00    +0.110 A 
ATOM      9  N   LIG    1      -34.888  85.661  28.155  0.00  0.00    -0.213 NA
ATOM     10  C   LIG    1      -35.685  84.633  28.283  0.00  0.00    +0.195 A 
BRANCH   6  11
ATOM     11  C   LIG    1      -30.972  86.724  31.095  0.00  0.00    +0.021 A 
ATOM     12  C   LIG    1      -30.659  86.954  32.420  0.00  0.00    +0.116 A 
ATOM     13  N   LIG    1      -29.548  87.749  32.429  0.00  0.00    -0.274 N 
ATOM     14  C   LIG    1      -28.889  88.269  33.602  0.00  0.00    +0.172 C 
ATOM     15  N   LIG    1      -29.090  88.043  31.202  0.00  0.00    -0.179 NA
ATOM     16  C   LIG    1      -29.952  87.421  30.393  0.00  0.00    +0.143 A 
ENDBRANCH   6  11
BRANCH  10  17
ATOM     17  N   LIG    1      -36.716  84.358  27.462  0.00  0.00    -0.329 N 
ATOM     18  H   LIG    1      -37.143  83.444  27.536  0.00  0.00    +0.145 HD
ATOM     19  H   LIG    1      -37.340  85.076  27.085  0.00  0.00    +0.145 HD
ENDBRANCH  10  17
ENDBRANCH   1   2
BRANCH   1  23
ATOM     20  C   LIG    1      -35.653  78.878  27.935  0.00  0.00    +0.162 A 
ATOM     21  C   LIG    1      -34.710  79.901  27.710  0.00  0.00    +0.162 A 
ATOM     22  C   LIG    1      -34.857  81.151  28.367  0.00  0.00    +0.054 A 
ATOM     23  C   LIG    1      -35.892  81.377  29.297  0.00  0.00    -0.024 A 
ATOM     24  C   LIG    1      -36.716  80.296  29.603  0.00  0.00    +0.009 A 
ATOM     25  C   LIG    1      -36.646  79.107  28.883  0.00  0.00    +0.050 A 
BRANCH  21  26
ATOM     26  O   LIG    1      -33.639  79.849  26.844  0.00  0.00    -0.491 OA
ATOM     27  C   LIG    1      -32.503  79.094  27.267  0.00  0.00    +0.277 C 
ENDBRANCH  21  26
BRANCH  20  28
ATOM     28  O   LIG    1      -35.577  77.724  27.208  0.00  0.00    -0.484 OA
BRANCH  28  29
ATOM     29  C   LIG    1      -35.829  76.451  27.800  0.00  0.00    +0.266 C 
BRANCH  29  33
ATOM     30  C   LIG    1      -38.224  74.099  25.229  0.00  0.00    +0.214 A 
ATOM     31  N   LIG    1      -37.783  73.554  26.383  0.00  0.00    -0.221 NA
ATOM     32  C   LIG    1      -37.023  74.339  27.172  0.00  0.00    +0.121 A 
ATOM     33  C   LIG    1      -36.694  75.654  26.873  0.00  0.00    +0.008 A 
ATOM     34  C   LIG    1      -37.174  76.189  25.673  0.00  0.00    +0.013 A 
ATOM     35  C   LIG    1      -37.951  75.398  24.834  0.00  0.00    +0.067 A 
BRANCH  30  37
ATOM     36  C   LIG    1      -40.205  73.986  24.010  0.00  0.00    +0.279 C 
ATOM     37  O   LIG    1      -38.988  73.338  24.368  0.00  0.00    -0.480 OA
ENDBRANCH  30  37
ENDBRANCH  29  33
ENDBRANCH  28  29
ENDBRANCH  20  28
ENDBRANCH   1  23
TORSDOF 9
ENDMDL
MODEL 2
REMARK VINA RESULT:      -6.0      8.060     13.772
REMARK  Name = pdb/CHEMBL3673476.pdb
REMARK                            x       y       z     vdW  Elec       q    Type
REMARK                         _______ _______ _______ _____ _____    ______ ____
ROOT
ATOM      1  C   LIG    1      -40.601  69.773  23.469  0.00  0.00    +0.161 C 
ENDROOT
BRANCH   1   2
ATOM      2  N   LIG    1      -40.922  71.213  23.293  0.00  0.00    -0.293 N 
ATOM      3  C   LIG    1      -40.160  72.219  23.823  0.00  0.00    +0.162 A 
ATOM      4  N   LIG    1      -38.995  72.128  24.473  0.00  0.00    -0.235 NA
ATOM      5  C   LIG    1      -38.555  73.336  24.935  0.00  0.00    +0.121 A 
ATOM      6  C   LIG    1      -39.178  74.582  24.764  0.00  0.00    +0.005 A 
ATOM      7  C   LIG    1      -40.367  74.614  24.020  0.00  0.00    +0.041 A 
ATOM      8  C   LIG    1      -40.871  73.387  23.530  0.00  0.00    +0.110 A 
ATOM      9  N   LIG    1      -41.982  73.113  22.802  0.00  0.00    -0.213 NA
ATOM     10  C   LIG    1      -41.958  71.820  22.622  0.00  0.00    +0.195 A 
BRANCH   6  11
ATOM     11  C   LIG    1      -38.596  75.782  25.358  0.00  0.00    +0.021 A 
ATOM     12  C   LIG    1      -39.290  76.920  25.715  0.00  0.00    +0.116 A 
ATOM     13  N   LIG    1      -38.370  77.803  26.207  0.00  0.00    -0.274 N 
ATOM     14  C   LIG    1      -38.643  79.141  26.669  0.00  0.00    +0.172 C 
ATOM     15  N   LIG    1      -37.118  77.319  26.220  0.00  0.00    -0.179 NA
ATOM     16  C   LIG    1      -37.254  76.093  25.707  0.00  0.00    +0.143 A 
ENDBRANCH   6  11
BRANCH  10  17
ATOM     17  N   LIG    1      -42.869  71.131  21.908  0.00  0.00    -0.329 N 
ATOM     18  H   LIG    1      -43.039  70.168  22.168  0.00  0.00    +0.145 HD
ATOM     19  H   LIG    1      -43.658  71.574  21.428  0.00  0.00    +0.145 HD
ENDBRANCH  10  17
ENDBRANCH   1   2
BRANCH   1  23
ATOM     20  C   LIG    1      -37.583  68.277  20.679  0.00  0.00    +0.162 A 
ATOM     21  C   LIG    1      -37.206  68.614  21.994  0.00  0.00    +0.162 A 
ATOM     22  C   LIG    1      -38.179  69.107  22.902  0.00  0.00    +0.054 A 
ATOM     23  C   LIG    1      -39.538  69.207  22.541  0.00  0.00    -0.024 A 
ATOM     24  C   LIG    1      -39.897  68.727  21.283  0.00  0.00    +0.009 A 
ATOM     25  C   LIG    1      -38.935  68.348  20.352  0.00  0.00    +0.050 A 
BRANCH  21  26
ATOM     26  O   LIG    1      -35.930  68.571  22.514  0.00  0.00    -0.491 OA
ATOM     27  C   LIG    1      -35.686  67.615  23.547  0.00  0.00    +0.277 C 
ENDBRANCH  21  26
BRANCH  20  28
ATOM     28  O   LIG    1      -36.623  67.921  19.775  0.00  0.00    -0.484 OA
BRANCH  28  29
ATOM     29  C   LIG    1      -36.153  66.577  19.674  0.00  0.00    +0.266 C 
BRANCH  29  33
ATOM     30  C   LIG    1      -31.957  66.675  19.165  0.00  0.00    +0.214 A 
ATOM     31  N   LIG    1      -32.455  66.444  20.398  0.00  0.00    -0.221 NA
ATOM     32  C   LIG    1      -33.798  66.421  20.515  0.00  0.00    +0.121 A 
ATOM     33  C   LIG    1      -34.672  66.602  19.452  0.00  0.00    +0.008 A 
ATOM     34  C   LIG    1      -34.122  66.832  18.187  0.00  0.00    +0.013 A 
ATOM     35  C   LIG    1      -32.740  66.871  18.039  0.00  0.00    +0.067 A 
BRANCH  30  37
ATOM     36  C   LIG    1      -30.218  67.654  17.965  0.00  0.00    +0.279 C 
ATOM     37  O   LIG    1      -30.590  66.732  18.986  0.00  0.00    -0.480 OA
ENDBRANCH  30  37
ENDBRANCH  29  33
ENDBRANCH  28  29
ENDBRANCH  20  28
ENDBRANCH   1  23
TORSDOF 9
ENDMDL
MODEL 3
REMARK VINA RESULT:      -5.9      8.380     10.870
REMARK  Name = pdb/CHEMBL3673476.pdb
REMARK                            x       y       z     vdW  Elec       q    Type
REMARK                         _______ _______ _______ _____ _____    ______ ____
ROOT
ATOM      1  C   LIG    1      -28.716  74.066  32.606  0.00  0.00    +0.161 C 
ENDROOT
BRANCH   1   2
ATOM      2  N   LIG    1      -27.441  73.553  32.042  0.00  0.00    -0.293 N 
ATOM      3  C   LIG    1      -26.328  74.332  31.884  0.00  0.00    +0.162 A 
ATOM      4  N   LIG    1      -26.132  75.597  32.272  0.00  0.00    -0.235 NA
ATOM      5  C   LIG    1      -24.921  76.088  31.876  0.00  0.00    +0.121 A 
ATOM      6  C   LIG    1      -23.924  75.401  31.166  0.00  0.00    +0.005 A 
ATOM      7  C   LIG    1      -24.169  74.059  30.842  0.00  0.00    +0.041 A 
ATOM      8  C   LIG    1      -25.414  73.506  31.220  0.00  0.00    +0.110 A 
ATOM      9  N   LIG    1      -25.924  72.263  31.037  0.00  0.00    -0.213 NA
ATOM     10  C   LIG    1      -27.108  72.298  31.588  0.00  0.00    +0.195 A 
BRANCH   6  11
ATOM     11  C   LIG    1      -22.693  76.085  30.782  0.00  0.00    +0.021 A 
ATOM     12  C   LIG    1      -21.832  76.736  31.642  0.00  0.00    +0.116 A 
ATOM     13  N   LIG    1      -20.827  77.255  30.874  0.00  0.00    -0.274 N 
ATOM     14  C   LIG    1      -19.720  78.047  31.350  0.00  0.00    +0.172 C 
ATOM     15  N   LIG    1      -20.952  76.973  29.568  0.00  0.00    -0.179 NA
ATOM     16  C   LIG    1      -22.082  76.263  29.511  0.00  0.00    +0.143 A 
ENDBRANCH   6  11
BRANCH  10  17
ATOM     17  N   LIG    1      -27.947  71.247  31.664  0.00  0.00    -0.329 N 
ATOM     18  H   LIG    1      -28.485  71.136  32.514  0.00  0.00    +0.145 HD
ATOM     19  H   LIG    1      -28.377  70.812  30.844  0.00  0.00    +0.145 HD
ENDBRANCH  10  17
ENDBRANCH   1   2
BRANCH   1  23
ATOM     20  C   LIG    1      -31.545  75.531  29.609  0.00  0.00    +0.162 A 
ATOM     21  C   LIG    1      -31.503  74.155  29.909  0.00  0.00    +0.162 A 
ATOM     22  C   LIG    1      -30.581  73.672  30.875  0.00  0.00    +0.054 A 
ATOM     23  C   LIG    1      -29.746  74.549  31.598  0.00  0.00    -0.024 A 
ATOM     24  C   LIG    1      -29.920  75.914  31.380  0.00  0.00    +0.009 A 
ATOM     25  C   LIG    1      -30.739  76.384  30.358  0.00  0.00    +0.050 A 
BRANCH  21  26
ATOM     26  O   LIG    1      -32.248  73.164  29.307  0.00  0.00    -0.491 OA
ATOM     27  C   LIG    1      -32.047  71.830  29.774  0.00  0.00    +0.277 C 
ENDBRANCH  21  26
BRANCH  20  28
ATOM     28  O   LIG    1      -32.344  75.972  28.593  0.00  0.00    -0.484 OA
BRANCH  28  29
ATOM     29  C   LIG    1      -31.977  77.090  27.785  0.00  0.00    +0.266 C 
BRANCH  29  33
ATOM     30  C   LIG    1      -35.050  79.994  27.830  0.00  0.00    +0.214 A 
ATOM     31  N   LIG    1      -33.931  80.245  27.119  0.00  0.00    -0.221 NA
ATOM     32  C   LIG    1      -32.977  79.293  27.133  0.00  0.00    +0.121 A 
ATOM     33  C   LIG    1      -33.094  78.088  27.810  0.00  0.00    +0.008 A 
ATOM     34  C   LIG    1      -34.271  77.856  28.530  0.00  0.00    +0.013 A 
ATOM     35  C   LIG    1      -35.267  78.826  28.543  0.00  0.00    +0.067 A 
BRANCH  30  37
ATOM     36  C   LIG    1      -37.347  80.363  27.721  0.00  0.00    +0.279 C 
ATOM     37  O   LIG    1      -36.053  80.940  27.873  0.00  0.00    -0.480 OA
ENDBRANCH  30  37
ENDBRANCH  29  33
ENDBRANCH  28  29
ENDBRANCH  20  28
ENDBRANCH   1  23
TORSDOF 9
ENDMDL
MODEL 4
REMARK VINA RESULT:      -5.9     17.171     19.631
REMARK  Name = pdb/CHEMBL3673476.pdb
REMARK                            x       y       z     vdW  Elec       q    Type
REMARK                         _______ _______ _______ _____ _____    ______ ____
ROOT
ATOM      1  C   LIG    1      -29.165  77.135  10.225  0.00  0.00    +0.161 C 
ENDROOT
BRANCH   1   2
ATOM      2  N   LIG    1      -30.598  77.477  10.421  0.00  0.00    -0.293 N 
ATOM      3  C   LIG    1      -31.067  78.763  10.415  0.00  0.00    +0.162 A 
ATOM      4  N   LIG    1      -30.402  79.891  10.147  0.00  0.00    -0.235 NA
ATOM      5  C   LIG    1      -31.171  81.008  10.314  0.00  0.00    +0.121 A 
ATOM      6  C   LIG    1      -32.521  81.052  10.693  0.00  0.00    +0.005 A 
ATOM      7  C   LIG    1      -33.175  79.829  10.902  0.00  0.00    +0.041 A 
ATOM      8  C   LIG    1      -32.419  78.644  10.753  0.00  0.00    +0.110 A 
ATOM      9  N   LIG    1      -32.773  77.342  10.896  0.00  0.00    -0.213 NA
ATOM     10  C   LIG    1      -31.687  76.665  10.636  0.00  0.00    +0.195 A 
BRANCH   6  11
ATOM     11  C   LIG    1      -33.193  82.336  10.869  0.00  0.00    +0.021 A 
ATOM     12  C   LIG    1      -34.554  82.521  11.003  0.00  0.00    +0.116 A 
ATOM     13  N   LIG    1      -34.759  83.867  11.118  0.00  0.00    -0.274 N 
ATOM     14  C   LIG    1      -36.038  84.521  11.245  0.00  0.00    +0.172 C 
ATOM     15  N   LIG    1      -33.626  84.585  11.093  0.00  0.00    -0.179 NA
ATOM     16  C   LIG    1      -32.675  83.658  10.942  0.00  0.00    +0.143 A 
ENDBRANCH   6  11
BRANCH  10  17
ATOM     17  N   LIG    1      -31.609  75.320  10.626  0.00  0.00    -0.329 N 
ATOM     18  H   LIG    1      -31.682  74.852   9.731  0.00  0.00    +0.145 HD
ATOM     19  H   LIG    1      -31.101  74.783  11.333  0.00  0.00    +0.145 HD
ENDBRANCH  10  17
ENDBRANCH   1   2
BRANCH   1  23
ATOM     20  C   LIG    1      -26.688  77.674  13.789  0.00  0.00    +0.162 A 
ATOM     21  C   LIG    1      -27.391  76.466  13.608  0.00  0.00    +0.162 A 
ATOM     22  C   LIG    1      -28.202  76.288  12.457  0.00  0.00    +0.054 A 
ATOM     23  C   LIG    1      -28.273  77.270  11.448  0.00  0.00    -0.024 A 
ATOM     24  C   LIG    1      -27.452  78.386  11.590  0.00  0.00    +0.009 A 
ATOM     25  C   LIG    1      -26.742  78.616  12.765  0.00  0.00    +0.050 A 
BRANCH  21  26
ATOM     26  O   LIG    1      -27.429  75.404  14.486  0.00  0.00    -0.491 OA
ATOM     27  C   LIG    1      -26.947  74.149  14.003  0.00  0.00    +0.277 C 
ENDBRANCH  21  26
BRANCH  20  28
ATOM     28  O   LIG    1      -26.009  77.887  14.955  0.00  0.00    -0.484 OA
BRANCH  28  29
ATOM     29  C   LIG    1      -25.674  79.203  15.394  0.00  0.00    +0.266 C 
BRANCH  29  33
ATOM     30  C   LIG    1      -21.457  79.401  15.634  0.00  0.00    +0.214 A 
ATOM     31  N   LIG    1      -22.030  78.245  15.239  0.00  0.00    -0.221 NA
ATOM     32  C   LIG    1      -23.376  78.226  15.176  0.00  0.00    +0.121 A 
ATOM     33  C   LIG    1      -24.182  79.316  15.474  0.00  0.00    +0.008 A 
ATOM     34  C   LIG    1      -23.555  80.501  15.873  0.00  0.00    +0.013 A 
ATOM     35  C   LIG    1      -22.168  80.546  15.957  0.00  0.00    +0.067 A 
BRANCH  30  37
ATOM     36  C   LIG    1      -19.623  80.819  15.853  0.00  0.00    +0.279 C 
ATOM     37  O   LIG    1      -20.083  79.476  15.739  0.00  0.00    -0.480 OA
ENDBRANCH  30  37
ENDBRANCH  29  33
ENDBRANCH  28  29
ENDBRANCH  20  28
ENDBRANCH   1  23
TORSDOF 9
ENDMDL
MODEL 5
REMARK VINA RESULT:      -5.9      6.997      8.991
REMARK  Name = pdb/CHEMBL3673476.pdb
REMARK                            x       y       z     vdW  Elec       q    Type
REMARK                         _______ _______ _______ _____ _____    ______ ____
ROOT
ATOM      1  C   LIG    1      -38.289  77.039  24.917  0.00  0.00    +0.161 C 
ENDROOT
BRANCH   1   2
ATOM      2  N   LIG    1      -38.086  77.428  26.337  0.00  0.00    -0.293 N 
ATOM      3  C   LIG    1      -36.916  77.208  27.012  0.00  0.00    +0.162 A 
ATOM      4  N   LIG    1      -35.760  76.729  26.542  0.00  0.00    -0.235 NA
ATOM      5  C   LIG    1      -34.821  76.566  27.521  0.00  0.00    +0.121 A 
ATOM      6  C   LIG    1      -34.962  76.870  28.883  0.00  0.00    +0.005 A 
ATOM      7  C   LIG    1      -36.181  77.426  29.299  0.00  0.00    +0.041 A 
ATOM      8  C   LIG    1      -37.190  77.604  28.325  0.00  0.00    +0.110 A 
ATOM      9  N   LIG    1      -38.447  78.101  28.433  0.00  0.00    -0.213 NA
ATOM     10  C   LIG    1      -38.940  78.041  27.224  0.00  0.00    +0.195 A 
BRANCH   6  11
ATOM     11  C   LIG    1      -33.870  76.598  29.813  0.00  0.00    +0.021 A 
ATOM     12  C   LIG    1      -32.551  76.390  29.467  0.00  0.00    +0.116 A 
ATOM     13  N   LIG    1      -31.872  76.147  30.628  0.00  0.00    -0.274 N 
ATOM     14  C   LIG    1      -30.468  75.842  30.741  0.00  0.00    +0.172 C 
ATOM     15  N   LIG    1      -32.648  76.201  31.722  0.00  0.00    -0.179 NA
ATOM     16  C   LIG    1      -33.860  76.475  31.229  0.00  0.00    +0.143 A 
ENDBRANCH   6  11
BRANCH  10  17
ATOM     17  N   LIG    1      -40.166  78.476  26.877  0.00  0.00    -0.329 N 
ATOM     18  H   LIG    1      -40.949  78.179  27.445  0.00  0.00    +0.145 HD
ATOM     19  H   LIG    1      -40.329  79.355  26.377  0.00  0.00    +0.145 HD
ENDBRANCH  10  17
ENDBRANCH   1   2
BRANCH   1  23
ATOM     20  C   LIG    1      -39.808  73.029  24.055  0.00  0.00    +0.162 A 
ATOM     21  C   LIG    1      -38.549  73.177  24.669  0.00  0.00    +0.162 A 
ATOM     22  C   LIG    1      -38.047  74.476  24.945  0.00  0.00    +0.054 A 
ATOM     23  C   LIG    1      -38.810  75.631  24.679  0.00  0.00    -0.024 A 
ATOM     24  C   LIG    1      -40.107  75.440  24.210  0.00  0.00    +0.009 A 
ATOM     25  C   LIG    1      -40.562  74.179  23.834  0.00  0.00    +0.050 A 
BRANCH  21  26
ATOM     26  O   LIG    1      -37.678  72.161  25.001  0.00  0.00    -0.491 OA
ATOM     27  C   LIG    1      -37.480  71.910  26.393  0.00  0.00    +0.277 C 
ENDBRANCH  21  26
BRANCH  20  28
ATOM     28  O   LIG    1      -40.231  71.785  23.681  0.00  0.00    -0.484 OA
BRANCH  28  29
ATOM     29  C   LIG    1      -41.603  71.406  23.767  0.00  0.00    +0.266 C 
BRANCH  29  33
ATOM     30  C   LIG    1      -43.029  70.819  19.830  0.00  0.00    +0.214 A 
ATOM     31  N   LIG    1      -42.303  69.839  20.409  0.00  0.00    -0.221 NA
ATOM     32  C   LIG    1      -41.868  70.068  21.665  0.00  0.00    +0.121 A 
ATOM     33  C   LIG    1      -42.140  71.226  22.380  0.00  0.00    +0.008 A 
ATOM     34  C   LIG    1      -42.902  72.217  21.753  0.00  0.00    +0.013 A 
ATOM     35  C   LIG    1      -43.354  72.012  20.454  0.00  0.00    +0.067 A 
BRANCH  30  37
ATOM     36  C   LIG    1      -44.793  71.180  18.354  0.00  0.00    +0.279 C 
ATOM     37  O   LIG    1      -43.482  70.653  18.538  0.00  0.00    -0.480 OA
ENDBRANCH  30  37
ENDBRANCH  29  33
ENDBRANCH  28  29
ENDBRANCH  20  28
ENDBRANCH   1  23
TORSDOF 9
ENDMDL
MODEL 6
REMARK VINA RESULT:      -5.8      3.821      5.168
REMARK  Name = pdb/CHEMBL3673476.pdb
REMARK                            x       y       z     vdW  Elec       q    Type
REMARK                         _______ _______ _______ _____ _____    ______ ____
ROOT
ATOM      1  C   LIG    1      -34.425  86.760  30.881  0.00  0.00    +0.161 C 
ENDROOT
BRANCH   1   2
ATOM      2  N   LIG    1      -33.091  87.378  30.664  0.00  0.00    -0.293 N 
ATOM      3  C   LIG    1      -32.071  87.291  31.572  0.00  0.00    +0.162 A 
ATOM      4  N   LIG    1      -32.028  86.596  32.714  0.00  0.00    -0.235 NA
ATOM      5  C   LIG    1      -30.874  86.807  33.414  0.00  0.00    +0.121 A 
ATOM      6  C   LIG    1      -29.795  87.620  33.037  0.00  0.00    +0.005 A 
ATOM      7  C   LIG    1      -29.880  88.274  31.799  0.00  0.00    +0.041 A 
ATOM      8  C   LIG    1      -31.060  88.098  31.040  0.00  0.00    +0.110 A 
ATOM      9  N   LIG    1      -31.422  88.603  29.834  0.00  0.00    -0.213 NA
ATOM     10  C   LIG    1      -32.610  88.112  29.604  0.00  0.00    +0.195 A 
BRANCH   6  11
ATOM     11  C   LIG    1      -28.644  87.771  33.922  0.00  0.00    +0.021 A 
ATOM     12  C   LIG    1      -28.311  88.914  34.620  0.00  0.00    +0.116 A 
ATOM     13  N   LIG    1      -27.160  88.637  35.302  0.00  0.00    -0.274 N 
ATOM     14  C   LIG    1      -26.429  89.556  36.139  0.00  0.00    +0.172 C 
ATOM     15  N   LIG    1      -26.720  87.382  35.121  0.00  0.00    -0.179 NA
ATOM     16  C   LIG    1      -27.620  86.856  34.286  0.00  0.00    +0.143 A 
ENDBRANCH   6  11
BRANCH  10  17
ATOM     17  N   LIG    1      -33.324  88.332  28.484  0.00  0.00    -0.329 N 
ATOM     18  H   LIG    1      -33.471  89.292  28.202  0.00  0.00    +0.145 HD
ATOM     19  H   LIG    1      -33.376  87.662  27.711  0.00  0.00    +0.145 HD
ENDBRANCH  10  17
ENDBRANCH   1   2
BRANCH   1  23
ATOM     20  C   LIG    1      -35.157  82.820  29.129  0.00  0.00    +0.162 A 
ATOM     21  C   LIG    1      -35.648  83.970  28.480  0.00  0.00    +0.162 A 
ATOM     22  C   LIG    1      -35.420  85.251  29.047  0.00  0.00    +0.054 A 
ATOM     23  C   LIG    1      -34.652  85.411  30.219  0.00  0.00    -0.024 A 
ATOM     24  C   LIG    1      -34.060  84.267  30.750  0.00  0.00    +0.009 A 
ATOM     25  C   LIG    1      -34.371  83.000  30.264  0.00  0.00    +0.050 A 
BRANCH  21  26
ATOM     26  O   LIG    1      -36.407  83.997  27.330  0.00  0.00    -0.491 OA
ATOM     27  C   LIG    1      -37.826  84.032  27.494  0.00  0.00    +0.277 C 
ENDBRANCH  21  26
BRANCH  20  28
ATOM     28  O   LIG    1      -35.484  81.585  28.646  0.00  0.00    -0.484 OA
BRANCH  28  29
ATOM     29  C   LIG    1      -34.846  81.042  27.491  0.00  0.00    +0.266 C 
BRANCH  29  33
ATOM     30  C   LIG    1      -32.734  77.521  28.501  0.00  0.00    +0.214 A 
ATOM     31  N   LIG    1      -32.312  78.250  27.447  0.00  0.00    -0.221 NA
ATOM     32  C   LIG    1      -33.014  79.364  27.160  0.00  0.00    +0.121 A 
ATOM     33  C   LIG    1      -34.112  79.798  27.889  0.00  0.00    +0.008 A 
ATOM     34  C   LIG    1      -34.518  79.022  28.981  0.00  0.00    +0.013 A 
ATOM     35  C   LIG    1      -33.818  77.862  29.293  0.00  0.00    +0.067 A 
BRANCH  30  37
ATOM     36  C   LIG    1      -32.928  75.221  28.809  0.00  0.00    +0.279 C 
ATOM     37  O   LIG    1      -32.069  76.358  28.830  0.00  0.00    -0.480 OA
ENDBRANCH  30  37
ENDBRANCH  29  33
ENDBRANCH  28  29
ENDBRANCH  20  28
ENDBRANCH   1  23
TORSDOF 9
ENDMDL
MODEL 7
REMARK VINA RESULT:      -5.8      2.707      3.925
REMARK  Name = pdb/CHEMBL3673476.pdb
REMARK                            x       y       z     vdW  Elec       q    Type
REMARK                         _______ _______ _______ _____ _____    ______ ____
ROOT
ATOM      1  C   LIG    1      -36.073  82.665  29.804  0.00  0.00    +0.161 C 
ENDROOT
BRANCH   1   2
ATOM      2  N   LIG    1      -35.374  83.859  29.261  0.00  0.00    -0.293 N 
ATOM      3  C   LIG    1      -34.232  84.372  29.815  0.00  0.00    +0.162 A 
ATOM      4  N   LIG    1      -33.500  83.883  30.821  0.00  0.00    -0.235 NA
ATOM      5  C   LIG    1      -32.464  84.703  31.165  0.00  0.00    +0.121 A 
ATOM      6  C   LIG    1      -32.118  85.923  30.564  0.00  0.00    +0.005 A 
ATOM      7  C   LIG    1      -32.893  86.349  29.474  0.00  0.00    +0.041 A 
ATOM      8  C   LIG    1      -33.985  85.541  29.086  0.00  0.00    +0.110 A 
ATOM      9  N   LIG    1      -34.897  85.699  28.094  0.00  0.00    -0.213 NA
ATOM     10  C   LIG    1      -35.677  84.655  28.181  0.00  0.00    +0.195 A 
BRANCH   6  11
ATOM     11  C   LIG    1      -30.998  86.705  31.079  0.00  0.00    +0.021 A 
ATOM     12  C   LIG    1      -30.699  86.900  32.412  0.00  0.00    +0.116 A 
ATOM     13  N   LIG    1      -29.596  87.706  32.454  0.00  0.00    -0.274 N 
ATOM     14  C   LIG    1      -28.952  88.199  33.646  0.00  0.00    +0.172 C 
ATOM     15  N   LIG    1      -29.132  88.040  31.240  0.00  0.00    -0.179 NA
ATOM     16  C   LIG    1      -29.980  87.433  30.405  0.00  0.00    +0.143 A 
ENDBRANCH   6  11
BRANCH  10  17
ATOM     17  N   LIG    1      -36.704  84.397  27.349  0.00  0.00    -0.329 N 
ATOM     18  H   LIG    1      -37.590  84.846  27.543  0.00  0.00    +0.145 HD
ATOM     19  H   LIG    1      -36.578  84.139  26.366  0.00  0.00    +0.145 HD
ENDBRANCH  10  17
ENDBRANCH   1   2
BRANCH   1  23
ATOM     20  C   LIG    1      -35.130  78.794  28.001  0.00  0.00    +0.162 A 
ATOM     21  C   LIG    1      -36.427  79.326  27.863  0.00  0.00    +0.162 A 
ATOM     22  C   LIG    1      -36.741  80.579  28.452  0.00  0.00    +0.054 A 
ATOM     23  C   LIG    1      -35.763  81.343  29.122  0.00  0.00    -0.024 A 
ATOM     24  C   LIG    1      -34.459  80.854  29.111  0.00  0.00    +0.009 A 
ATOM     25  C   LIG    1      -34.169  79.579  28.634  0.00  0.00    +0.050 A 
BRANCH  21  26
ATOM     26  O   LIG    1      -37.496  78.721  27.238  0.00  0.00    -0.491 OA
ATOM     27  C   LIG    1      -38.794  79.236  27.536  0.00  0.00    +0.277 C 
ENDBRANCH  21  26
BRANCH  20  28
ATOM     28  O   LIG    1      -34.868  77.535  27.539  0.00  0.00    -0.484 OA
BRANCH  28  29
ATOM     29  C   LIG    1      -33.569  77.163  27.080  0.00  0.00    +0.266 C 
BRANCH  29  33
ATOM     30  C   LIG    1      -31.853  74.356  29.736  0.00  0.00    +0.214 A 
ATOM     31  N   LIG    1      -31.292  75.580  29.634  0.00  0.00    -0.221 NA
ATOM     32  C   LIG    1      -31.870  76.443  28.776  0.00  0.00    +0.121 A 
ATOM     33  C   LIG    1      -32.999  76.149  28.023  0.00  0.00    +0.008 A 
ATOM     34  C   LIG    1      -33.560  74.874  28.159  0.00  0.00    +0.013 A 
ATOM     35  C   LIG    1      -32.977  73.960  29.029  0.00  0.00    +0.067 A 
BRANCH  30  37
ATOM     36  C   LIG    1      -30.727  72.323  29.871  0.00  0.00    +0.279 C 
ATOM     37  O   LIG    1      -31.292  73.421  30.581  0.00  0.00    -0.480 OA
ENDBRANCH  30  37
ENDBRANCH  29  33
ENDBRANCH  28  29
ENDBRANCH  20  28
ENDBRANCH   1  23
TORSDOF 9
ENDMDL
MODEL 8
REMARK VINA RESULT:      -5.7      5.803      8.470
REMARK  Name = pdb/CHEMBL3673476.pdb
REMARK                            x       y       z     vdW  Elec       q    Type
REMARK                         _______ _______ _______ _____ _____    ______ ____
ROOT
ATOM      1  C   LIG    1      -36.125  78.181  28.620  0.00  0.00    +0.161 C 
ENDROOT
BRANCH   1   2
ATOM      2  N   LIG    1      -34.664  77.993  28.422  0.00  0.00    -0.293 N 
ATOM      3  C   LIG    1      -33.994  76.870  28.827  0.00  0.00    +0.162 A 
ATOM      4  N   LIG    1      -34.492  75.745  29.350  0.00  0.00    -0.235 NA
ATOM      5  C   LIG    1      -33.519  74.858  29.714  0.00  0.00    +0.121 A 
ATOM      6  C   LIG    1      -32.133  75.018  29.562  0.00  0.00    +0.005 A 
ATOM      7  C   LIG    1      -31.681  76.197  28.950  0.00  0.00    +0.041 A 
ATOM      8  C   LIG    1      -32.649  77.153  28.566  0.00  0.00    +0.110 A 
ATOM      9  N   LIG    1      -32.511  78.365  27.974  0.00  0.00    -0.213 NA
ATOM     10  C   LIG    1      -33.729  78.820  27.844  0.00  0.00    +0.195 A 
BRANCH   6  11
ATOM     11  C   LIG    1      -31.218  73.987  30.041  0.00  0.00    +0.021 A 
ATOM     12  C   LIG    1      -30.414  74.081  31.159  0.00  0.00    +0.116 A 
ATOM     13  N   LIG    1      -29.704  72.916  31.233  0.00  0.00    -0.274 N 
ATOM     14  C   LIG    1      -28.712  72.590  32.227  0.00  0.00    +0.172 C 
ATOM     15  N   LIG    1      -29.999  72.047  30.253  0.00  0.00    -0.179 NA
ATOM     16  C   LIG    1      -30.918  72.695  29.530  0.00  0.00    +0.143 A 
ENDBRANCH   6  11
BRANCH  10  17
ATOM     17  N   LIG    1      -34.050  79.990  27.261  0.00  0.00    -0.329 N 
ATOM     18  H   LIG    1      -33.609  80.211  26.377  0.00  0.00    +0.145 HD
ATOM     19  H   LIG    1      -34.948  80.460  27.402  0.00  0.00    +0.145 HD
ENDBRANCH  10  17
ENDBRANCH   1   2
BRANCH   1  23
ATOM     20  C   LIG    1      -38.607  77.297  25.129  0.00  0.00    +0.162 A 
ATOM     21  C   LIG    1      -37.722  76.316  25.617  0.00  0.00    +0.162 A 
ATOM     22  C   LIG    1      -36.908  76.599  26.746  0.00  0.00    +0.054 A 
ATOM     23  C   LIG    1      -37.010  77.823  27.438  0.00  0.00    -0.024 A 
ATOM     24  C   LIG    1      -37.999  78.709  27.016  0.00  0.00    +0.009 A 
ATOM     25  C   LIG    1      -38.720  78.485  25.847  0.00  0.00    +0.050 A 
BRANCH  21  26
ATOM     26  O   LIG    1      -37.500  75.070  25.070  0.00  0.00    -0.491 OA
ATOM     27  C   LIG    1      -37.938  73.943  25.831  0.00  0.00    +0.277 C 
ENDBRANCH  21  26
BRANCH  20  28
ATOM     28  O   LIG    1      -39.296  77.064  23.973  0.00  0.00    -0.484 OA
BRANCH  28  29
ATOM     29  C   LIG    1      -40.695  77.320  23.872  0.00  0.00    +0.266 C 
BRANCH  29  33
ATOM     30  C   LIG    1      -42.761  73.794  22.789  0.00  0.00    +0.214 A 
ATOM     31  N   LIG    1      -43.331  74.987  22.521  0.00  0.00    -0.221 NA
ATOM     32  C   LIG    1      -42.639  76.085  22.883  0.00  0.00    +0.121 A 
ATOM     33  C   LIG    1      -41.390  76.050  23.487  0.00  0.00    +0.008 A 
ATOM     34  C   LIG    1      -40.824  74.796  23.744  0.00  0.00    +0.013 A 
ATOM     35  C   LIG    1      -41.522  73.647  23.391  0.00  0.00    +0.067 A 
BRANCH  30  37
ATOM     36  C   LIG    1      -44.674  72.891  21.815  0.00  0.00    +0.279 C 
ATOM     37  O   LIG    1      -43.432  72.633  22.463  0.00  0.00    -0.480 OA
ENDBRANCH  30  37
ENDBRANCH  29  33
ENDBRANCH  28  29
ENDBRANCH  20  28
ENDBRANCH   1  23
TORSDOF 9
ENDMDL
MODEL 9
REMARK VINA RESULT:      -5.7      5.887      8.408
REMARK  Name = pdb/CHEMBL3673476.pdb
REMARK                            x       y       z     vdW  Elec       q    Type
REMARK                         _______ _______ _______ _____ _____    ______ ____
ROOT
ATOM      1  C   LIG    1      -35.962  78.012  28.513  0.00  0.00    +0.161 C 
ENDROOT
BRANCH   1   2
ATOM      2  N   LIG    1      -34.493  77.838  28.364  0.00  0.00    -0.293 N 
ATOM      3  C   LIG    1      -33.825  76.728  28.802  0.00  0.00    +0.162 A 
ATOM      4  N   LIG    1      -34.327  75.603  29.322  0.00  0.00    -0.235 NA
ATOM      5  C   LIG    1      -33.356  74.731  29.726  0.00  0.00    +0.121 A 
ATOM      6  C   LIG    1      -31.968  74.904  29.616  0.00  0.00    +0.005 A 
ATOM      7  C   LIG    1      -31.510  76.082  29.006  0.00  0.00    +0.041 A 
ATOM      8  C   LIG    1      -32.475  77.023  28.581  0.00  0.00    +0.110 A 
ATOM      9  N   LIG    1      -32.332  78.230  27.979  0.00  0.00    -0.213 NA
ATOM     10  C   LIG    1      -33.549  78.669  27.806  0.00  0.00    +0.195 A 
BRANCH   6  11
ATOM     11  C   LIG    1      -31.057  73.889  30.136  0.00  0.00    +0.021 A 
ATOM     12  C   LIG    1      -30.249  74.026  31.246  0.00  0.00    +0.116 A 
ATOM     13  N   LIG    1      -29.545  72.860  31.367  0.00  0.00    -0.274 N 
ATOM     14  C   LIG    1      -28.551  72.571  32.370  0.00  0.00    +0.172 C 
ATOM     15  N   LIG    1      -29.849  71.953  30.426  0.00  0.00    -0.179 NA
ATOM     16  C   LIG    1      -30.767  72.575  29.680  0.00  0.00    +0.143 A 
ENDBRANCH   6  11
BRANCH  10  17
ATOM     17  N   LIG    1      -33.864  79.830  27.200  0.00  0.00    -0.329 N 
ATOM     18  H   LIG    1      -33.993  80.645  27.785  0.00  0.00    +0.145 HD
ATOM     19  H   LIG    1      -33.595  80.051  26.237  0.00  0.00    +0.145 HD
ENDBRANCH  10  17
ENDBRANCH   1   2
BRANCH   1  23
ATOM     20  C   LIG    1      -38.437  76.747  25.135  0.00  0.00    +0.162 A 
ATOM     21  C   LIG    1      -38.679  77.994  25.745  0.00  0.00    +0.162 A 
ATOM     22  C   LIG    1      -37.884  78.407  26.846  0.00  0.00    +0.054 A 
ATOM     23  C   LIG    1      -36.806  77.626  27.309  0.00  0.00    -0.024 A 
ATOM     24  C   LIG    1      -36.504  76.472  26.590  0.00  0.00    +0.009 A 
ATOM     25  C   LIG    1      -37.345  76.007  25.583  0.00  0.00    +0.050 A 
BRANCH  21  26
ATOM     26  O   LIG    1      -39.681  78.882  25.418  0.00  0.00    -0.491 OA
ATOM     27  C   LIG    1      -40.723  79.062  26.377  0.00  0.00    +0.277 C 
ENDBRANCH  21  26
BRANCH  20  28
ATOM     28  O   LIG    1      -39.281  76.302  24.159  0.00  0.00    -0.484 OA
BRANCH  28  29
ATOM     29  C   LIG    1      -40.587  75.816  24.465  0.00  0.00    +0.266 C 
BRANCH  29  33
ATOM     30  C   LIG    1      -40.707  71.747  23.322  0.00  0.00    +0.214 A 
ATOM     31  N   LIG    1      -39.657  72.186  24.048  0.00  0.00    -0.221 NA
ATOM     32  C   LIG    1      -39.659  73.490  24.390  0.00  0.00    +0.121 A 
ATOM     33  C   LIG    1      -40.672  74.377  24.056  0.00  0.00    +0.008 A 
ATOM     34  C   LIG    1      -41.749  73.887  23.310  0.00  0.00    +0.013 A 
ATOM     35  C   LIG    1      -41.768  72.549  22.934  0.00  0.00    +0.067 A 
BRANCH  30  37
ATOM     36  C   LIG    1      -41.831  69.718  23.518  0.00  0.00    +0.279 C 
ATOM     37  O   LIG    1      -40.750  70.428  22.921  0.00  0.00    -0.480 OA
ENDBRANCH  30  37
ENDBRANCH  29  33
ENDBRANCH  28  29
ENDBRANCH  20  28
ENDBRANCH   1  23
TORSDOF 9
ENDMDL
