MODEL 1
REMARK VINA RESULT:      -6.3      0.000      0.000
REMARK  Name = pdb/CHEMBL3675913.pdb
REMARK                            x       y       z     vdW  Elec       q    Type
REMARK                         _______ _______ _______ _____ _____    ______ ____
ROOT
ATOM      1  C   LIG    1      -19.508  76.852  30.555  0.00  0.00    +0.100 A 
ATOM      2  C   LIG    1      -19.041  77.447  31.714  0.00  0.00    +0.170 A 
ATOM      3  N   LIG    1      -19.691  78.010  32.786  0.00  0.00    -0.212 NA
ATOM      4  C   LIG    1      -18.965  78.598  33.715  0.00  0.00    +0.126 A 
ATOM      5  C   LIG    1      -17.456  78.646  33.636  0.00  0.00    +0.063 A 
ATOM      6  C   LIG    1      -16.875  78.038  32.596  0.00  0.00    +0.118 A 
ATOM      7  N   LIG    1      -17.649  77.427  31.624  0.00  0.00    -0.221 N 
ATOM      8  N   LIG    1      -17.218  76.787  30.513  0.00  0.00    -0.173 NA
ATOM      9  C   LIG    1      -18.339  76.453  29.874  0.00  0.00    +0.150 A 
ENDROOT
BRANCH   4  10
ATOM     10  N   LIG    1      -19.597  79.177  34.802  0.00  0.00    -0.308 N 
ATOM     11  C   LIG    1      -20.779  80.039  34.674  0.00  0.00    +0.105 C 
ATOM     12  C   LIG    1      -20.623  81.025  35.841  0.00  0.00    +0.029 C 
ATOM     13  C   LIG    1      -19.953  80.192  36.920  0.00  0.00    +0.021 C 
ATOM     14  C   LIG    1      -18.997  79.303  36.130  0.00  0.00    +0.107 C 
BRANCH  11  15
ATOM     15  C   LIG    1      -22.069  79.230  34.760  0.00  0.00    -0.024 A 
ATOM     16  C   LIG    1      -22.102  77.920  35.270  0.00  0.00    +0.043 A 
ATOM     17  C   LIG    1      -23.300  77.219  35.353  0.00  0.00    +0.124 A 
ATOM     18  F   LIG    1      -23.298  75.975  35.851  0.00  0.00    -0.205 F 
ATOM     19  C   LIG    1      -24.491  77.790  34.934  0.00  0.00    +0.038 A 
ATOM     20  C   LIG    1      -24.484  79.086  34.424  0.00  0.00    +0.003 A 
ATOM     21  C   LIG    1      -23.283  79.803  34.342  0.00  0.00    +0.005 A 
ENDBRANCH  11  15
ENDBRANCH   4  10
BRANCH   1  24
ATOM     22  N   LIG    1      -21.823  76.702  31.095  0.00  0.00    -0.308 N 
ATOM     23  H   LIG    1      -21.474  76.698  32.053  0.00  0.00    +0.149 HD
ATOM     24  C   LIG    1      -20.874  76.687  30.096  0.00  0.00    +0.249 C 
ATOM     25  O   LIG    1      -21.152  76.576  28.911  0.00  0.00    -0.270 OA
BRANCH  22  29
ATOM     26  C   LIG    1      -26.026  77.197  31.655  0.00  0.00    +0.115 C 
ATOM     27  C   LIG    1      -25.472  75.775  31.704  0.00  0.00    +0.033 C 
ATOM     28  C   LIG    1      -23.958  75.777  31.899  0.00  0.00    +0.025 C 
ATOM     29  C   LIG    1      -23.247  76.620  30.831  0.00  0.00    +0.073 C 
ATOM     30  C   LIG    1      -23.836  78.033  30.735  0.00  0.00    +0.025 C 
ATOM     31  C   LIG    1      -25.350  78.013  30.556  0.00  0.00    +0.033 C 
BRANCH  26  32
ATOM     32  O   LIG    1      -27.430  77.164  31.432  0.00  0.00    -0.392 OA
ATOM     33  H   LIG    1      -27.670  76.272  31.126  0.00  0.00    +0.210 HD
ENDBRANCH  26  32
ENDBRANCH  22  29
ENDBRANCH   1  24
TORSDOF 5
ENDMDL
MODEL 2
REMARK VINA RESULT:      -5.9      2.266      5.031
REMARK  Name = pdb/CHEMBL3675913.pdb
REMARK                            x       y       z     vdW  Elec       q    Type
REMARK                         _______ _______ _______ _____ _____    ______ ____
ROOT
ATOM      1  C   LIG    1      -21.263  79.867  35.308  0.00  0.00    +0.100 A 
ATOM      2  C   LIG    1      -20.098  79.280  34.845  0.00  0.00    +0.170 A 
ATOM      3  N   LIG    1      -19.828  78.529  33.727  0.00  0.00    -0.212 NA
ATOM      4  C   LIG    1      -18.622  78.012  33.601  0.00  0.00    +0.126 A 
ATOM      5  C   LIG    1      -17.544  78.243  34.634  0.00  0.00    +0.063 A 
ATOM      6  C   LIG    1      -17.848  79.024  35.677  0.00  0.00    +0.118 A 
ATOM      7  N   LIG    1      -19.120  79.557  35.800  0.00  0.00    -0.221 N 
ATOM      8  N   LIG    1      -19.586  80.347  36.794  0.00  0.00    -0.173 NA
ATOM      9  C   LIG    1      -20.874  80.521  36.495  0.00  0.00    +0.150 A 
ENDROOT
BRANCH   4  10
ATOM     10  N   LIG    1      -18.327  77.248  32.484  0.00  0.00    -0.308 N 
ATOM     11  C   LIG    1      -18.676  75.826  32.374  0.00  0.00    +0.105 C 
ATOM     12  C   LIG    1      -17.547  75.252  31.506  0.00  0.00    +0.029 C 
ATOM     13  C   LIG    1      -17.203  76.400  30.571  0.00  0.00    +0.021 C 
ATOM     14  C   LIG    1      -17.355  77.630  31.460  0.00  0.00    +0.107 C 
BRANCH  11  15
ATOM     15  C   LIG    1      -20.052  75.640  31.742  0.00  0.00    -0.024 A 
ATOM     16  C   LIG    1      -20.401  76.225  30.512  0.00  0.00    +0.043 A 
ATOM     17  C   LIG    1      -21.657  76.016  29.955  0.00  0.00    +0.124 A 
ATOM     18  F   LIG    1      -21.955  76.582  28.778  0.00  0.00    -0.205 F 
ATOM     19  C   LIG    1      -22.601  75.231  30.598  0.00  0.00    +0.038 A 
ATOM     20  C   LIG    1      -22.280  74.641  31.819  0.00  0.00    +0.003 A 
ATOM     21  C   LIG    1      -21.014  74.840  32.385  0.00  0.00    +0.005 A 
ENDBRANCH  11  15
ENDBRANCH   4  10
BRANCH   1  24
ATOM     22  N   LIG    1      -22.792  78.832  33.804  0.00  0.00    -0.308 N 
ATOM     23  H   LIG    1      -21.961  78.326  33.500  0.00  0.00    +0.149 HD
ATOM     24  C   LIG    1      -22.600  79.818  34.747  0.00  0.00    +0.249 C 
ATOM     25  O   LIG    1      -23.486  80.576  35.114  0.00  0.00    -0.270 OA
BRANCH  22  29
ATOM     26  C   LIG    1      -25.918  76.718  31.808  0.00  0.00    +0.115 C 
ATOM     27  C   LIG    1      -25.235  77.851  31.045  0.00  0.00    +0.033 C 
ATOM     28  C   LIG    1      -23.907  78.233  31.693  0.00  0.00    +0.025 C 
ATOM     29  C   LIG    1      -24.076  78.580  33.178  0.00  0.00    +0.073 C 
ATOM     30  C   LIG    1      -24.812  77.471  33.942  0.00  0.00    +0.025 C 
ATOM     31  C   LIG    1      -26.129  77.092  33.273  0.00  0.00    +0.033 C 
BRANCH  26  32
ATOM     32  O   LIG    1      -27.170  76.412  31.207  0.00  0.00    -0.392 OA
ATOM     33  H   LIG    1      -27.108  75.528  30.806  0.00  0.00    +0.210 HD
ENDBRANCH  26  32
ENDBRANCH  22  29
ENDBRANCH   1  24
TORSDOF 5
ENDMDL
MODEL 3
REMARK VINA RESULT:      -5.8     19.197     21.888
REMARK  Name = pdb/CHEMBL3675913.pdb
REMARK                            x       y       z     vdW  Elec       q    Type
REMARK                         _______ _______ _______ _____ _____    ______ ____
ROOT
ATOM      1  C   LIG    1      -23.125  82.140  15.568  0.00  0.00    +0.100 A 
ATOM      2  C   LIG    1      -23.907  81.749  14.495  0.00  0.00    +0.170 A 
ATOM      3  N   LIG    1      -24.361  82.430  13.392  0.00  0.00    -0.212 NA
ATOM      4  C   LIG    1      -25.187  81.809  12.574  0.00  0.00    +0.126 A 
ATOM      5  C   LIG    1      -25.618  80.380  12.811  0.00  0.00    +0.063 A 
ATOM      6  C   LIG    1      -25.105  79.751  13.873  0.00  0.00    +0.118 A 
ATOM      7  N   LIG    1      -24.242  80.415  14.728  0.00  0.00    -0.221 N 
ATOM      8  N   LIG    1      -23.653  79.927  15.843  0.00  0.00    -0.173 NA
ATOM      9  C   LIG    1      -22.993  80.971  16.345  0.00  0.00    +0.150 A 
ENDROOT
BRANCH   4  10
ATOM     10  N   LIG    1      -25.662  82.476  11.457  0.00  0.00    -0.308 N 
ATOM     11  C   LIG    1      -26.217  83.834  11.513  0.00  0.00    +0.105 C 
ATOM     12  C   LIG    1      -27.276  83.828  10.401  0.00  0.00    +0.029 C 
ATOM     13  C   LIG    1      -26.683  82.900   9.354  0.00  0.00    +0.021 C 
ATOM     14  C   LIG    1      -25.998  81.824  10.191  0.00  0.00    +0.107 C 
BRANCH  11  15
ATOM     15  C   LIG    1      -25.136  84.886  11.286  0.00  0.00    -0.024 A 
ATOM     16  C   LIG    1      -23.775  84.553  11.175  0.00  0.00    +0.043 A 
ATOM     17  C   LIG    1      -22.818  85.536  10.947  0.00  0.00    +0.124 A 
ATOM     18  F   LIG    1      -21.530  85.185  10.838  0.00  0.00    -0.205 F 
ATOM     19  C   LIG    1      -23.180  86.869  10.827  0.00  0.00    +0.038 A 
ATOM     20  C   LIG    1      -24.522  87.224  10.934  0.00  0.00    +0.003 A 
ATOM     21  C   LIG    1      -25.495  86.240  11.157  0.00  0.00    +0.005 A 
ENDBRANCH  11  15
ENDBRANCH   4  10
BRANCH   1  24
ATOM     22  N   LIG    1      -22.230  84.199  14.773  0.00  0.00    -0.308 N 
ATOM     23  H   LIG    1      -22.269  83.727  13.870  0.00  0.00    +0.149 HD
ATOM     24  C   LIG    1      -22.576  83.448  15.874  0.00  0.00    +0.249 C 
ATOM     25  O   LIG    1      -22.464  83.852  17.023  0.00  0.00    -0.270 OA
BRANCH  22  29
ATOM     26  C   LIG    1      -21.139  88.151  13.583  0.00  0.00    +0.115 C 
ATOM     27  C   LIG    1      -20.013  87.202  13.989  0.00  0.00    +0.033 C 
ATOM     28  C   LIG    1      -20.487  85.751  13.990  0.00  0.00    +0.025 C 
ATOM     29  C   LIG    1      -21.729  85.556  14.870  0.00  0.00    +0.073 C 
ATOM     30  C   LIG    1      -22.844  86.545  14.507  0.00  0.00    +0.025 C 
ATOM     31  C   LIG    1      -22.351  87.988  14.497  0.00  0.00    +0.033 C 
BRANCH  26  32
ATOM     32  O   LIG    1      -20.681  89.497  13.631  0.00  0.00    -0.392 OA
ATOM     33  H   LIG    1      -20.345  89.736  12.751  0.00  0.00    +0.210 HD
ENDBRANCH  26  32
ENDBRANCH  22  29
ENDBRANCH   1  24
TORSDOF 5
ENDMDL
MODEL 4
REMARK VINA RESULT:      -5.7      2.604      5.520
REMARK  Name = pdb/CHEMBL3675913.pdb
REMARK                            x       y       z     vdW  Elec       q    Type
REMARK                         _______ _______ _______ _____ _____    ______ ____
ROOT
ATOM      1  C   LIG    1      -18.303  78.355  33.161  0.00  0.00    +0.100 A 
ATOM      2  C   LIG    1      -19.186  77.890  32.202  0.00  0.00    +0.170 A 
ATOM      3  N   LIG    1      -20.559  77.870  32.147  0.00  0.00    -0.212 NA
ATOM      4  C   LIG    1      -21.132  77.260  31.130  0.00  0.00    +0.126 A 
ATOM      5  C   LIG    1      -20.323  76.613  30.030  0.00  0.00    +0.063 A 
ATOM      6  C   LIG    1      -18.991  76.707  30.109  0.00  0.00    +0.118 A 
ATOM      7  N   LIG    1      -18.400  77.346  31.186  0.00  0.00    -0.221 N 
ATOM      8  N   LIG    1      -17.078  77.512  31.418  0.00  0.00    -0.173 NA
ATOM      9  C   LIG    1      -17.029  78.110  32.608  0.00  0.00    +0.150 A 
ENDROOT
BRANCH   4  10
ATOM     10  N   LIG    1      -22.514  77.223  31.055  0.00  0.00    -0.308 N 
ATOM     11  C   LIG    1      -23.337  76.349  31.900  0.00  0.00    +0.105 C 
ATOM     12  C   LIG    1      -24.539  76.021  31.002  0.00  0.00    +0.029 C 
ATOM     13  C   LIG    1      -24.723  77.287  30.182  0.00  0.00    +0.021 C 
ATOM     14  C   LIG    1      -23.291  77.751  29.933  0.00  0.00    +0.107 C 
BRANCH  11  15
ATOM     15  C   LIG    1      -23.746  77.050  33.191  0.00  0.00    -0.024 A 
ATOM     16  C   LIG    1      -23.700  78.448  33.335  0.00  0.00    +0.043 A 
ATOM     17  C   LIG    1      -24.100  79.055  34.520  0.00  0.00    +0.124 A 
ATOM     18  F   LIG    1      -24.053  80.390  34.622  0.00  0.00    -0.205 F 
ATOM     19  C   LIG    1      -24.550  78.300  35.592  0.00  0.00    +0.038 A 
ATOM     20  C   LIG    1      -24.602  76.913  35.475  0.00  0.00    +0.003 A 
ATOM     21  C   LIG    1      -24.208  76.292  34.282  0.00  0.00    +0.005 A 
ENDBRANCH  11  15
ENDBRANCH   4  10
BRANCH   1  24
ATOM     22  N   LIG    1      -19.806  79.565  34.557  0.00  0.00    -0.308 N 
ATOM     23  H   LIG    1      -20.332  79.673  33.690  0.00  0.00    +0.149 HD
ATOM     24  C   LIG    1      -18.584  78.937  34.460  0.00  0.00    +0.249 C 
ATOM     25  O   LIG    1      -17.803  78.843  35.395  0.00  0.00    -0.270 OA
BRANCH  22  29
ATOM     26  C   LIG    1      -22.572  80.944  37.502  0.00  0.00    +0.115 C 
ATOM     27  C   LIG    1      -21.719  81.993  36.792  0.00  0.00    +0.033 C 
ATOM     28  C   LIG    1      -21.096  81.429  35.517  0.00  0.00    +0.025 C 
ATOM     29  C   LIG    1      -20.298  80.147  35.791  0.00  0.00    +0.073 C 
ATOM     30  C   LIG    1      -21.130  79.110  36.556  0.00  0.00    +0.025 C 
ATOM     31  C   LIG    1      -21.756  79.693  37.818  0.00  0.00    +0.033 C 
BRANCH  26  32
ATOM     32  O   LIG    1      -23.104  81.485  38.705  0.00  0.00    -0.392 OA
ATOM     33  H   LIG    1      -23.671  80.810  39.118  0.00  0.00    +0.210 HD
ENDBRANCH  26  32
ENDBRANCH  22  29
ENDBRANCH   1  24
TORSDOF 5
ENDMDL
MODEL 5
REMARK VINA RESULT:      -5.6     15.864     18.431
REMARK  Name = pdb/CHEMBL3675913.pdb
REMARK                            x       y       z     vdW  Elec       q    Type
REMARK                         _______ _______ _______ _____ _____    ______ ____
ROOT
ATOM      1  C   LIG    1      -23.821  79.221  15.366  0.00  0.00    +0.100 A 
ATOM      2  C   LIG    1      -22.657  78.478  15.271  0.00  0.00    +0.170 A 
ATOM      3  N   LIG    1      -22.434  77.145  15.025  0.00  0.00    -0.212 NA
ATOM      4  C   LIG    1      -21.196  76.698  15.095  0.00  0.00    +0.126 A 
ATOM      5  C   LIG    1      -20.036  77.612  15.413  0.00  0.00    +0.063 A 
ATOM      6  C   LIG    1      -20.306  78.909  15.593  0.00  0.00    +0.118 A 
ATOM      7  N   LIG    1      -21.611  79.366  15.523  0.00  0.00    -0.221 N 
ATOM      8  N   LIG    1      -22.047  80.635  15.694  0.00  0.00    -0.173 NA
ATOM      9  C   LIG    1      -23.374  80.537  15.607  0.00  0.00    +0.150 A 
ENDROOT
BRANCH   4  10
ATOM     10  N   LIG    1      -20.947  75.357  14.855  0.00  0.00    -0.308 N 
ATOM     11  C   LIG    1      -20.071  74.543  15.706  0.00  0.00    +0.105 C 
ATOM     12  C   LIG    1      -19.462  73.533  14.721  0.00  0.00    +0.029 C 
ATOM     13  C   LIG    1      -20.578  73.306  13.715  0.00  0.00    +0.021 C 
ATOM     14  C   LIG    1      -21.214  74.686  13.582  0.00  0.00    +0.107 C 
BRANCH  11  15
ATOM     15  C   LIG    1      -20.856  73.867  16.825  0.00  0.00    -0.024 A 
ATOM     16  C   LIG    1      -20.244  73.030  17.775  0.00  0.00    +0.043 A 
ATOM     17  C   LIG    1      -20.988  72.447  18.794  0.00  0.00    +0.124 A 
ATOM     18  F   LIG    1      -20.373  71.661  19.688  0.00  0.00    -0.205 F 
ATOM     19  C   LIG    1      -22.352  72.672  18.901  0.00  0.00    +0.038 A 
ATOM     20  C   LIG    1      -22.981  73.496  17.971  0.00  0.00    +0.003 A 
ATOM     21  C   LIG    1      -22.239  74.094  16.944  0.00  0.00    +0.005 A 
ENDBRANCH  11  15
ENDBRANCH   4  10
BRANCH   1  24
ATOM     22  N   LIG    1      -25.583  78.339  14.029  0.00  0.00    -0.308 N 
ATOM     23  H   LIG    1      -24.917  78.483  13.272  0.00  0.00    +0.149 HD
ATOM     24  C   LIG    1      -25.200  78.780  15.277  0.00  0.00    +0.249 C 
ATOM     25  O   LIG    1      -25.943  78.774  16.247  0.00  0.00    -0.270 OA
BRANCH  22  29
ATOM     26  C   LIG    1      -28.724  76.327  11.952  0.00  0.00    +0.115 C 
ATOM     27  C   LIG    1      -28.868  77.833  12.158  0.00  0.00    +0.033 C 
ATOM     28  C   LIG    1      -27.533  78.471  12.532  0.00  0.00    +0.025 C 
ATOM     29  C   LIG    1      -26.900  77.795  13.756  0.00  0.00    +0.073 C 
ATOM     30  C   LIG    1      -26.803  76.274  13.580  0.00  0.00    +0.025 C 
ATOM     31  C   LIG    1      -28.142  75.655  13.193  0.00  0.00    +0.033 C 
BRANCH  26  32
ATOM     32  O   LIG    1      -29.989  75.754  11.646  0.00  0.00    -0.392 OA
ATOM     33  H   LIG    1      -30.099  74.952  12.185  0.00  0.00    +0.210 HD
ENDBRANCH  26  32
ENDBRANCH  22  29
ENDBRANCH   1  24
TORSDOF 5
ENDMDL
MODEL 6
REMARK VINA RESULT:      -5.6     13.974     17.047
REMARK  Name = pdb/CHEMBL3675913.pdb
REMARK                            x       y       z     vdW  Elec       q    Type
REMARK                         _______ _______ _______ _____ _____    ______ ____
ROOT
ATOM      1  C   LIG    1      -37.386  71.138  24.754  0.00  0.00    +0.100 A 
ATOM      2  C   LIG    1      -36.372  70.951  25.677  0.00  0.00    +0.170 A 
ATOM      3  N   LIG    1      -35.936  71.714  26.733  0.00  0.00    -0.212 NA
ATOM      4  C   LIG    1      -34.861  71.318  27.385  0.00  0.00    +0.126 A 
ATOM      5  C   LIG    1      -34.125  70.052  27.012  0.00  0.00    +0.063 A 
ATOM      6  C   LIG    1      -34.623  69.323  26.008  0.00  0.00    +0.118 A 
ATOM      7  N   LIG    1      -35.750  69.752  25.328  0.00  0.00    -0.221 N 
ATOM      8  N   LIG    1      -36.365  69.141  24.289  0.00  0.00    -0.173 NA
ATOM      9  C   LIG    1      -37.339  69.984  23.946  0.00  0.00    +0.150 A 
ENDROOT
BRANCH   4  10
ATOM     10  N   LIG    1      -34.400  72.072  28.450  0.00  0.00    -0.308 N 
ATOM     11  C   LIG    1      -33.417  73.152  28.299  0.00  0.00    +0.105 C 
ATOM     12  C   LIG    1      -32.645  73.114  29.626  0.00  0.00    +0.029 C 
ATOM     13  C   LIG    1      -33.697  72.687  30.635  0.00  0.00    +0.021 C 
ATOM     14  C   LIG    1      -34.541  71.684  29.854  0.00  0.00    +0.107 C 
BRANCH  11  15
ATOM     15  C   LIG    1      -34.101  74.495  28.059  0.00  0.00    -0.024 A 
ATOM     16  C   LIG    1      -33.401  75.623  27.595  0.00  0.00    +0.043 A 
ATOM     17  C   LIG    1      -34.061  76.825  27.367  0.00  0.00    +0.124 A 
ATOM     18  F   LIG    1      -33.367  77.879  26.917  0.00  0.00    -0.205 F 
ATOM     19  C   LIG    1      -35.423  76.946  27.594  0.00  0.00    +0.038 A 
ATOM     20  C   LIG    1      -36.138  75.843  28.054  0.00  0.00    +0.003 A 
ATOM     21  C   LIG    1      -35.484  74.624  28.281  0.00  0.00    +0.005 A 
ENDBRANCH  11  15
ENDBRANCH   4  10
BRANCH   1  24
ATOM     22  N   LIG    1      -37.808  73.458  25.090  0.00  0.00    -0.308 N 
ATOM     23  H   LIG    1      -36.937  73.416  25.618  0.00  0.00    +0.149 HD
ATOM     24  C   LIG    1      -38.290  72.264  24.601  0.00  0.00    +0.249 C 
ATOM     25  O   LIG    1      -39.376  72.153  24.052  0.00  0.00    -0.270 OA
BRANCH  22  29
ATOM     26  C   LIG    1      -38.974  77.493  25.860  0.00  0.00    +0.115 C 
ATOM     27  C   LIG    1      -39.979  76.393  26.194  0.00  0.00    +0.033 C 
ATOM     28  C   LIG    1      -39.304  75.026  26.259  0.00  0.00    +0.025 C 
ATOM     29  C   LIG    1      -38.534  74.709  24.970  0.00  0.00    +0.073 C 
ATOM     30  C   LIG    1      -37.562  75.835  24.595  0.00  0.00    +0.025 C 
ATOM     31  C   LIG    1      -38.250  77.195  24.549  0.00  0.00    +0.033 C 
BRANCH  26  32
ATOM     32  O   LIG    1      -39.638  78.747  25.766  0.00  0.00    -0.392 OA
ATOM     33  H   LIG    1      -40.424  78.634  25.205  0.00  0.00    +0.210 HD
ENDBRANCH  26  32
ENDBRANCH  22  29
ENDBRANCH   1  24
TORSDOF 5
ENDMDL
MODEL 7
REMARK VINA RESULT:      -5.6     15.102     19.712
REMARK  Name = pdb/CHEMBL3675913.pdb
REMARK                            x       y       z     vdW  Elec       q    Type
REMARK                         _______ _______ _______ _____ _____    ______ ____
ROOT
ATOM      1  C   LIG    1      -38.638  75.007  24.755  0.00  0.00    +0.100 A 
ATOM      2  C   LIG    1      -38.687  73.627  24.662  0.00  0.00    +0.170 A 
ATOM      3  N   LIG    1      -37.767  72.651  24.963  0.00  0.00    -0.212 NA
ATOM      4  C   LIG    1      -38.066  71.402  24.670  0.00  0.00    +0.126 A 
ATOM      5  C   LIG    1      -39.388  71.027  24.040  0.00  0.00    +0.063 A 
ATOM      6  C   LIG    1      -40.265  72.011  23.815  0.00  0.00    +0.118 A 
ATOM      7  N   LIG    1      -39.936  73.320  24.123  0.00  0.00    -0.221 N 
ATOM      8  N   LIG    1      -40.700  74.423  23.945  0.00  0.00    -0.173 NA
ATOM      9  C   LIG    1      -39.911  75.430  24.319  0.00  0.00    +0.150 A 
ENDROOT
BRANCH   4  10
ATOM     10  N   LIG    1      -37.154  70.402  24.960  0.00  0.00    -0.308 N 
ATOM     11  C   LIG    1      -37.473  68.973  24.851  0.00  0.00    +0.105 C 
ATOM     12  C   LIG    1      -36.615  68.335  25.953  0.00  0.00    +0.029 C 
ATOM     13  C   LIG    1      -35.372  69.210  25.982  0.00  0.00    +0.021 C 
ATOM     14  C   LIG    1      -35.924  70.608  25.725  0.00  0.00    +0.107 C 
BRANCH  11  15
ATOM     15  C   LIG    1      -37.139  68.434  23.464  0.00  0.00    -0.024 A 
ATOM     16  C   LIG    1      -37.502  69.111  22.286  0.00  0.00    +0.043 A 
ATOM     17  C   LIG    1      -37.162  68.601  21.038  0.00  0.00    +0.124 A 
ATOM     18  F   LIG    1      -37.515  69.275  19.936  0.00  0.00    -0.205 F 
ATOM     19  C   LIG    1      -36.461  67.411  20.921  0.00  0.00    +0.038 A 
ATOM     20  C   LIG    1      -36.092  66.721  22.073  0.00  0.00    +0.003 A 
ATOM     21  C   LIG    1      -36.424  67.230  23.335  0.00  0.00    +0.005 A 
ENDBRANCH  11  15
ENDBRANCH   4  10
BRANCH   1  24
ATOM     22  N   LIG    1      -36.949  75.497  26.360  0.00  0.00    -0.308 N 
ATOM     23  H   LIG    1      -37.410  74.760  26.891  0.00  0.00    +0.149 HD
ATOM     24  C   LIG    1      -37.540  75.860  25.170  0.00  0.00    +0.249 C 
ATOM     25  O   LIG    1      -37.159  76.803  24.492  0.00  0.00    -0.270 OA
BRANCH  22  29
ATOM     26  C   LIG    1      -34.229  77.059  29.257  0.00  0.00    +0.115 C 
ATOM     27  C   LIG    1      -35.025  78.063  28.425  0.00  0.00    +0.033 C 
ATOM     28  C   LIG    1      -36.218  77.396  27.746  0.00  0.00    +0.025 C 
ATOM     29  C   LIG    1      -35.794  76.184  26.907  0.00  0.00    +0.073 C 
ATOM     30  C   LIG    1      -34.945  75.197  27.720  0.00  0.00    +0.025 C 
ATOM     31  C   LIG    1      -33.766  75.882  28.403  0.00  0.00    +0.033 C 
BRANCH  26  32
ATOM     32  O   LIG    1      -33.102  77.699  29.843  0.00  0.00    -0.392 OA
ATOM     33  H   LIG    1      -32.797  77.155  30.589  0.00  0.00    +0.210 HD
ENDBRANCH  26  32
ENDBRANCH  22  29
ENDBRANCH   1  24
TORSDOF 5
ENDMDL
MODEL 8
REMARK VINA RESULT:      -5.4      2.699      5.515
REMARK  Name = pdb/CHEMBL3675913.pdb
REMARK                            x       y       z     vdW  Elec       q    Type
REMARK                         _______ _______ _______ _____ _____    ______ ____
ROOT
ATOM      1  C   LIG    1      -24.595  79.758  35.619  0.00  0.00    +0.100 A 
ATOM      2  C   LIG    1      -23.265  79.863  35.248  0.00  0.00    +0.170 A 
ATOM      3  N   LIG    1      -22.478  79.100  34.421  0.00  0.00    -0.212 NA
ATOM      4  C   LIG    1      -21.196  79.393  34.337  0.00  0.00    +0.126 A 
ATOM      5  C   LIG    1      -20.591  80.547  35.103  0.00  0.00    +0.063 A 
ATOM      6  C   LIG    1      -21.415  81.287  35.854  0.00  0.00    +0.118 A 
ATOM      7  N   LIG    1      -22.759  80.965  35.937  0.00  0.00    -0.221 N 
ATOM      8  N   LIG    1      -23.712  81.600  36.657  0.00  0.00    -0.173 NA
ATOM      9  C   LIG    1      -24.807  80.864  36.467  0.00  0.00    +0.150 A 
ENDROOT
BRANCH   4  10
ATOM     10  N   LIG    1      -20.381  78.636  33.514  0.00  0.00    -0.308 N 
ATOM     11  C   LIG    1      -20.432  77.169  33.468  0.00  0.00    +0.105 C 
ATOM     12  C   LIG    1      -18.982  76.775  33.153  0.00  0.00    +0.029 C 
ATOM     13  C   LIG    1      -18.493  77.910  32.267  0.00  0.00    +0.021 C 
ATOM     14  C   LIG    1      -19.165  79.138  32.873  0.00  0.00    +0.107 C 
BRANCH  11  15
ATOM     15  C   LIG    1      -21.415  76.681  32.409  0.00  0.00    -0.024 A 
ATOM     16  C   LIG    1      -21.923  77.526  31.407  0.00  0.00    +0.043 A 
ATOM     17  C   LIG    1      -22.801  77.042  30.445  0.00  0.00    +0.124 A 
ATOM     18  F   LIG    1      -23.261  77.872  29.499  0.00  0.00    -0.205 F 
ATOM     19  C   LIG    1      -23.202  75.715  30.448  0.00  0.00    +0.038 A 
ATOM     20  C   LIG    1      -22.713  74.858  31.431  0.00  0.00    +0.003 A 
ATOM     21  C   LIG    1      -21.822  75.335  32.402  0.00  0.00    +0.005 A 
ENDBRANCH  11  15
ENDBRANCH   4  10
BRANCH   1  24
ATOM     22  N   LIG    1      -25.218  77.964  34.182  0.00  0.00    -0.308 N 
ATOM     23  H   LIG    1      -24.389  78.252  33.664  0.00  0.00    +0.149 HD
ATOM     24  C   LIG    1      -25.567  78.741  35.264  0.00  0.00    +0.249 C 
ATOM     25  O   LIG    1      -26.597  78.578  35.902  0.00  0.00    -0.270 OA
BRANCH  22  29
ATOM     26  C   LIG    1      -26.324  74.464  32.001  0.00  0.00    +0.115 C 
ATOM     27  C   LIG    1      -27.070  75.758  31.682  0.00  0.00    +0.033 C 
ATOM     28  C   LIG    1      -26.319  76.975  32.215  0.00  0.00    +0.025 C 
ATOM     29  C   LIG    1      -26.026  76.853  33.716  0.00  0.00    +0.073 C 
ATOM     30  C   LIG    1      -25.327  75.529  34.054  0.00  0.00    +0.025 C 
ATOM     31  C   LIG    1      -26.082  74.325  33.502  0.00  0.00    +0.033 C 
BRANCH  26  32
ATOM     32  O   LIG    1      -27.065  73.346  31.530  0.00  0.00    -0.392 OA
ATOM     33  H   LIG    1      -27.865  73.258  32.077  0.00  0.00    +0.210 HD
ENDBRANCH  26  32
ENDBRANCH  22  29
ENDBRANCH   1  24
TORSDOF 5
ENDMDL
MODEL 9
REMARK VINA RESULT:      -5.4     14.465     18.005
REMARK  Name = pdb/CHEMBL3675913.pdb
REMARK                            x       y       z     vdW  Elec       q    Type
REMARK                         _______ _______ _______ _____ _____    ______ ____
ROOT
ATOM      1  C   LIG    1      -38.484  74.588  24.819  0.00  0.00    +0.100 A 
ATOM      2  C   LIG    1      -38.331  73.213  24.856  0.00  0.00    +0.170 A 
ATOM      3  N   LIG    1      -37.330  72.412  25.350  0.00  0.00    -0.212 NA
ATOM      4  C   LIG    1      -37.416  71.113  25.149  0.00  0.00    +0.126 A 
ATOM      5  C   LIG    1      -38.587  70.496  24.418  0.00  0.00    +0.063 A 
ATOM      6  C   LIG    1      -39.556  71.319  24.004  0.00  0.00    +0.118 A 
ATOM      7  N   LIG    1      -39.451  72.683  24.217  0.00  0.00    -0.221 N 
ATOM      8  N   LIG    1      -40.332  73.642  23.850  0.00  0.00    -0.173 NA
ATOM      9  C   LIG    1      -39.740  74.781  24.207  0.00  0.00    +0.150 A 
ENDROOT
BRANCH   4  10
ATOM     10  N   LIG    1      -36.417  70.285  25.633  0.00  0.00    -0.308 N 
ATOM     11  C   LIG    1      -35.097  70.780  26.041  0.00  0.00    +0.105 C 
ATOM     12  C   LIG    1      -34.162  69.609  25.706  0.00  0.00    +0.029 C 
ATOM     13  C   LIG    1      -35.028  68.385  25.952  0.00  0.00    +0.021 C 
ATOM     14  C   LIG    1      -36.406  68.831  25.473  0.00  0.00    +0.107 C 
BRANCH  11  15
ATOM     15  C   LIG    1      -35.074  71.141  27.523  0.00  0.00    -0.024 A 
ATOM     16  C   LIG    1      -36.141  70.841  28.387  0.00  0.00    +0.043 A 
ATOM     17  C   LIG    1      -36.077  71.166  29.738  0.00  0.00    +0.124 A 
ATOM     18  F   LIG    1      -37.108  70.858  30.536  0.00  0.00    -0.205 F 
ATOM     19  C   LIG    1      -34.963  71.798  30.267  0.00  0.00    +0.038 A 
ATOM     20  C   LIG    1      -33.893  72.108  29.431  0.00  0.00    +0.003 A 
ATOM     21  C   LIG    1      -33.945  71.778  28.070  0.00  0.00    +0.005 A 
ENDBRANCH  11  15
ENDBRANCH   4  10
BRANCH   1  24
ATOM     22  N   LIG    1      -36.907  75.339  26.438  0.00  0.00    -0.308 N 
ATOM     23  H   LIG    1      -37.206  74.503  26.938  0.00  0.00    +0.149 HD
ATOM     24  C   LIG    1      -37.572  75.625  25.266  0.00  0.00    +0.249 C 
ATOM     25  O   LIG    1      -37.394  76.652  24.628  0.00  0.00    -0.270 OA
BRANCH  22  29
ATOM     26  C   LIG    1      -34.470  77.239  29.384  0.00  0.00    +0.115 C 
ATOM     27  C   LIG    1      -35.496  78.104  28.654  0.00  0.00    +0.033 C 
ATOM     28  C   LIG    1      -36.545  77.245  27.953  0.00  0.00    +0.025 C 
ATOM     29  C   LIG    1      -35.905  76.218  27.010  0.00  0.00    +0.073 C 
ATOM     30  C   LIG    1      -34.831  75.383  27.721  0.00  0.00    +0.025 C 
ATOM     31  C   LIG    1      -33.800  76.256  28.427  0.00  0.00    +0.033 C 
BRANCH  26  32
ATOM     32  O   LIG    1      -33.484  78.064  29.991  0.00  0.00    -0.392 OA
ATOM     33  H   LIG    1      -33.029  77.543  30.675  0.00  0.00    +0.210 HD
ENDBRANCH  26  32
ENDBRANCH  22  29
ENDBRANCH   1  24
TORSDOF 5
ENDMDL
