MODEL 1
REMARK VINA RESULT:      -6.7      0.000      0.000
REMARK  Name = pdb/CHEMBL3937255.pdb
REMARK                            x       y       z     vdW  Elec       q    Type
REMARK                         _______ _______ _______ _____ _____    ______ ____
ROOT
ATOM      1  C   LIG    1      -36.843  69.788  24.657  0.00  0.00    +0.149 A 
ATOM      2  N   LIG    1      -36.419  68.850  25.524  0.00  0.00    -0.160 NA
ATOM      3  N   LIG    1      -35.710  69.542  26.467  0.00  0.00    -0.218 N 
ATOM      4  C   LIG    1      -35.545  70.880  26.095  0.00  0.00    +0.129 A 
ATOM      5  C   LIG    1      -36.355  71.062  24.997  0.00  0.00    +0.078 A 
ENDROOT
BRANCH   3   6
ATOM      6  C   LIG    1      -35.173  68.863  27.602  0.00  0.00    +0.067 A 
ATOM      7  C   LIG    1      -33.846  68.409  27.631  0.00  0.00    +0.028 A 
ATOM      8  C   LIG    1      -33.364  67.729  28.757  0.00  0.00    +0.002 A 
ATOM      9  C   LIG    1      -34.193  67.507  29.856  0.00  0.00    +0.000 A 
ATOM     10  C   LIG    1      -35.506  67.972  29.839  0.00  0.00    +0.002 A 
ATOM     11  C   LIG    1      -35.995  68.654  28.721  0.00  0.00    +0.028 A 
ENDBRANCH   3   6
BRANCH   4  12
ATOM     12  N   LIG    1      -34.665  71.829  26.628  0.00  0.00    -0.266 N 
ATOM     13  H   LIG    1      -33.902  72.145  26.029  0.00  0.00    +0.157 HD
ATOM     14  C   LIG    1      -34.875  72.496  27.883  0.00  0.00    +0.251 C 
ATOM     15  O   LIG    1      -35.882  72.305  28.554  0.00  0.00    -0.270 OA
BRANCH  14  16
ATOM     16  C   LIG    1      -33.830  73.407  28.364  0.00  0.00    +0.056 A 
ATOM     17  C   LIG    1      -32.716  72.964  29.078  0.00  0.00    +0.054 A 
ATOM     18 CL   LIG    1      -32.406  71.298  29.406  0.00  0.00    -0.083 Cl
ATOM     19  C   LIG    1      -31.791  73.891  29.533  0.00  0.00    +0.041 A 
ATOM     20  C   LIG    1      -31.949  75.265  29.273  0.00  0.00    +0.052 A 
ATOM     21 CL   LIG    1      -30.765  76.274  30.038  0.00  0.00    -0.083 Cl
ATOM     22  C   LIG    1      -33.025  75.755  28.495  0.00  0.00    +0.022 A 
ATOM     23  C   LIG    1      -33.957  74.783  28.059  0.00  0.00    +0.026 A 
BRANCH  22  24
ATOM     24  C   LIG    1      -33.182  77.190  28.112  0.00  0.00    +0.107 A 
ATOM     25  C   LIG    1      -32.472  77.816  27.082  0.00  0.00    +0.149 A 
ATOM     26  F   LIG    1      -31.597  77.142  26.320  0.00  0.00    -0.203 F 
ATOM     27  C   LIG    1      -32.671  79.170  26.813  0.00  0.00    +0.042 A 
ATOM     28  C   LIG    1      -33.601  79.881  27.557  0.00  0.00    +0.023 A 
ATOM     29  C   LIG    1      -34.273  79.208  28.559  0.00  0.00    +0.111 A 
ATOM     30  N   LIG    1      -34.060  77.906  28.863  0.00  0.00    -0.252 NA
ENDBRANCH  22  24
ENDBRANCH  14  16
ENDBRANCH   4  12
BRANCH   1  31
ATOM     31  C   LIG    1      -37.656  69.439  23.495  0.00  0.00    +0.236 C 
ATOM     32  N   LIG    1      -37.128  69.331  22.328  0.00  0.00    -0.243 NA
BRANCH  31  33
ATOM     33  O   LIG    1      -38.962  69.231  23.765  0.00  0.00    -0.491 OA
ATOM     34  H   LIG    1      -39.049  68.933  24.691  0.00  0.00    +0.294 HD
ENDBRANCH  31  33
BRANCH  32  35
ATOM     35  C   LIG    1      -38.037  68.949  21.233  0.00  0.00    +0.202 C 
BRANCH  35  36
ATOM     36  C   LIG    1      -37.458  67.896  20.310  0.00  0.00    +0.081 A 
ATOM     37  N   LIG    1      -37.273  68.224  19.001  0.00  0.00    -0.255 NA
ATOM     38  C   LIG    1      -36.757  67.253  18.211  0.00  0.00    +0.131 A 
ATOM     39  C   LIG    1      -36.440  65.995  18.692  0.00  0.00    +0.130 A 
ATOM     40  N   LIG    1      -36.639  65.644  19.981  0.00  0.00    -0.260 NA
ATOM     41  C   LIG    1      -37.158  66.618  20.770  0.00  0.00    +0.135 A 
ENDBRANCH  35  36
ENDBRANCH  32  35
ENDBRANCH   1  31
TORSDOF 8
ENDMDL
MODEL 2
REMARK VINA RESULT:      -6.5      9.005     16.938
REMARK  Name = pdb/CHEMBL3937255.pdb
REMARK                            x       y       z     vdW  Elec       q    Type
REMARK                         _______ _______ _______ _____ _____    ______ ____
ROOT
ATOM      1  C   LIG    1      -31.789  86.800  30.914  0.00  0.00    +0.149 A 
ATOM      2  N   LIG    1      -32.683  87.613  30.322  0.00  0.00    -0.160 NA
ATOM      3  N   LIG    1      -33.668  86.780  29.870  0.00  0.00    -0.218 N 
ATOM      4  C   LIG    1      -33.306  85.438  30.025  0.00  0.00    +0.129 A 
ATOM      5  C   LIG    1      -32.159  85.449  30.785  0.00  0.00    +0.078 A 
ENDROOT
BRANCH   3   6
ATOM      6  C   LIG    1      -34.836  87.318  29.250  0.00  0.00    +0.067 A 
ATOM      7  C   LIG    1      -34.754  88.210  28.170  0.00  0.00    +0.028 A 
ATOM      8  C   LIG    1      -35.924  88.732  27.603  0.00  0.00    +0.002 A 
ATOM      9  C   LIG    1      -37.174  88.364  28.100  0.00  0.00    +0.000 A 
ATOM     10  C   LIG    1      -37.261  87.465  29.161  0.00  0.00    +0.002 A 
ATOM     11  C   LIG    1      -36.099  86.937  29.731  0.00  0.00    +0.028 A 
ENDBRANCH   3   6
BRANCH   4  12
ATOM     12  N   LIG    1      -33.893  84.306  29.447  0.00  0.00    -0.266 N 
ATOM     13  H   LIG    1      -33.558  84.028  28.524  0.00  0.00    +0.157 HD
ATOM     14  C   LIG    1      -34.797  83.433  30.142  0.00  0.00    +0.251 C 
ATOM     15  O   LIG    1      -35.080  83.605  31.322  0.00  0.00    -0.270 OA
BRANCH  14  16
ATOM     16  C   LIG    1      -35.406  82.329  29.390  0.00  0.00    +0.056 A 
ATOM     17  C   LIG    1      -36.769  82.281  29.098  0.00  0.00    +0.054 A 
ATOM     18 CL   LIG    1      -37.871  83.541  29.517  0.00  0.00    -0.083 Cl
ATOM     19  C   LIG    1      -37.277  81.184  28.416  0.00  0.00    +0.041 A 
ATOM     20  C   LIG    1      -36.438  80.133  28.003  0.00  0.00    +0.052 A 
ATOM     21 CL   LIG    1      -37.277  78.793  27.289  0.00  0.00    -0.083 Cl
ATOM     22  C   LIG    1      -35.039  80.170  28.216  0.00  0.00    +0.022 A 
ATOM     23  C   LIG    1      -34.558  81.296  28.926  0.00  0.00    +0.026 A 
BRANCH  22  24
ATOM     24  C   LIG    1      -34.099  79.125  27.713  0.00  0.00    +0.107 A 
ATOM     25  C   LIG    1      -34.053  77.808  28.184  0.00  0.00    +0.149 A 
ATOM     26  F   LIG    1      -34.901  77.370  29.127  0.00  0.00    -0.203 F 
ATOM     27  C   LIG    1      -33.123  76.908  27.667  0.00  0.00    +0.042 A 
ATOM     28  C   LIG    1      -32.263  77.323  26.660  0.00  0.00    +0.023 A 
ATOM     29  C   LIG    1      -32.356  78.634  26.234  0.00  0.00    +0.111 A 
ATOM     30  N   LIG    1      -33.223  79.533  26.757  0.00  0.00    -0.252 NA
ENDBRANCH  22  24
ENDBRANCH  14  16
ENDBRANCH   4  12
BRANCH   1  31
ATOM     31  C   LIG    1      -30.579  87.325  31.541  0.00  0.00    +0.236 C 
ATOM     32  N   LIG    1      -30.587  87.718  32.764  0.00  0.00    -0.243 NA
BRANCH  31  33
ATOM     33  O   LIG    1      -29.491  87.333  30.742  0.00  0.00    -0.491 OA
ATOM     34  H   LIG    1      -28.857  87.994  31.079  0.00  0.00    +0.294 HD
ENDBRANCH  31  33
BRANCH  32  35
ATOM     35  C   LIG    1      -29.304  88.203  33.303  0.00  0.00    +0.202 C 
BRANCH  35  36
ATOM     36  C   LIG    1      -28.608  87.198  34.197  0.00  0.00    +0.081 A 
ATOM     37  N   LIG    1      -29.262  86.039  34.488  0.00  0.00    -0.255 NA
ATOM     38  C   LIG    1      -28.606  85.171  35.293  0.00  0.00    +0.131 A 
ATOM     39  C   LIG    1      -27.348  85.438  35.804  0.00  0.00    +0.130 A 
ATOM     40  N   LIG    1      -26.694  86.591  35.547  0.00  0.00    -0.260 NA
ATOM     41  C   LIG    1      -27.355  87.461  34.741  0.00  0.00    +0.135 A 
ENDBRANCH  35  36
ENDBRANCH  32  35
ENDBRANCH   1  31
TORSDOF 8
ENDMDL
MODEL 3
REMARK VINA RESULT:      -6.4      9.869     13.801
REMARK  Name = pdb/CHEMBL3937255.pdb
REMARK                            x       y       z     vdW  Elec       q    Type
REMARK                         _______ _______ _______ _____ _____    ______ ____
ROOT
ATOM      1  C   LIG    1      -27.748  76.124  32.094  0.00  0.00    +0.149 A 
ATOM      2  N   LIG    1      -26.777  75.965  31.176  0.00  0.00    -0.160 NA
ATOM      3  N   LIG    1      -25.694  76.618  31.697  0.00  0.00    -0.218 N 
ATOM      4  C   LIG    1      -26.039  77.327  32.852  0.00  0.00    +0.129 A 
ATOM      5  C   LIG    1      -27.319  76.929  33.164  0.00  0.00    +0.078 A 
ENDROOT
BRANCH   3   6
ATOM      6  C   LIG    1      -24.441  76.586  31.016  0.00  0.00    +0.067 A 
ATOM      7  C   LIG    1      -24.016  77.648  30.203  0.00  0.00    +0.028 A 
ATOM      8  C   LIG    1      -22.787  77.569  29.535  0.00  0.00    +0.002 A 
ATOM      9  C   LIG    1      -21.976  76.444  29.679  0.00  0.00    +0.000 A 
ATOM     10  C   LIG    1      -22.386  75.394  30.498  0.00  0.00    +0.002 A 
ATOM     11  C   LIG    1      -23.609  75.466  31.172  0.00  0.00    +0.028 A 
ENDBRANCH   3   6
BRANCH   4  12
ATOM     12  N   LIG    1      -25.311  78.325  33.510  0.00  0.00    -0.266 N 
ATOM     13  H   LIG    1      -25.714  79.262  33.527  0.00  0.00    +0.157 HD
ATOM     14  C   LIG    1      -24.134  78.070  34.294  0.00  0.00    +0.251 C 
ATOM     15  O   LIG    1      -23.716  76.932  34.476  0.00  0.00    -0.270 OA
BRANCH  14  16
ATOM     16  C   LIG    1      -23.418  79.219  34.860  0.00  0.00    +0.056 A 
ATOM     17  C   LIG    1      -22.078  79.483  34.577  0.00  0.00    +0.054 A 
ATOM     18 CL   LIG    1      -21.141  78.539  33.478  0.00  0.00    -0.083 Cl
ATOM     19  C   LIG    1      -21.460  80.568  35.182  0.00  0.00    +0.041 A 
ATOM     20  C   LIG    1      -22.165  81.411  36.060  0.00  0.00    +0.052 A 
ATOM     21 CL   LIG    1      -21.188  82.626  36.818  0.00  0.00    -0.083 Cl
ATOM     22  C   LIG    1      -23.544  81.223  36.323  0.00  0.00    +0.022 A 
ATOM     23  C   LIG    1      -24.139  80.100  35.701  0.00  0.00    +0.026 A 
BRANCH  22  24
ATOM     24  C   LIG    1      -24.356  82.146  37.171  0.00  0.00    +0.107 A 
ATOM     25  C   LIG    1      -24.169  82.329  38.546  0.00  0.00    +0.149 A 
ATOM     26  F   LIG    1      -23.195  81.692  39.213  0.00  0.00    -0.203 F 
ATOM     27  C   LIG    1      -24.994  83.198  39.258  0.00  0.00    +0.042 A 
ATOM     28  C   LIG    1      -25.982  83.903  38.586  0.00  0.00    +0.023 A 
ATOM     29  C   LIG    1      -26.117  83.682  37.229  0.00  0.00    +0.111 A 
ATOM     30  N   LIG    1      -25.354  82.809  36.529  0.00  0.00    -0.252 NA
ENDBRANCH  22  24
ENDBRANCH  14  16
ENDBRANCH   4  12
BRANCH   1  31
ATOM     31  C   LIG    1      -29.079  75.551  31.903  0.00  0.00    +0.236 C 
ATOM     32  N   LIG    1      -29.788  75.858  30.876  0.00  0.00    -0.243 NA
BRANCH  31  33
ATOM     33  O   LIG    1      -29.461  74.685  32.866  0.00  0.00    -0.491 OA
ATOM     34  H   LIG    1      -29.379  73.775  32.522  0.00  0.00    +0.294 HD
ENDBRANCH  31  33
BRANCH  32  35
ATOM     35  C   LIG    1      -31.102  75.200  30.770  0.00  0.00    +0.202 C 
BRANCH  35  36
ATOM     36  C   LIG    1      -31.899  75.639  29.560  0.00  0.00    +0.081 A 
ATOM     37  N   LIG    1      -31.563  76.817  28.965  0.00  0.00    -0.255 NA
ATOM     38  C   LIG    1      -32.303  77.173  27.888  0.00  0.00    +0.131 A 
ATOM     39  C   LIG    1      -33.347  76.398  27.416  0.00  0.00    +0.130 A 
ATOM     40  N   LIG    1      -33.711  75.240  28.007  0.00  0.00    -0.260 NA
ATOM     41  C   LIG    1      -32.970  74.886  29.087  0.00  0.00    +0.135 A 
ENDBRANCH  35  36
ENDBRANCH  32  35
ENDBRANCH   1  31
TORSDOF 8
ENDMDL
MODEL 4
REMARK VINA RESULT:      -6.4     16.310     20.517
REMARK  Name = pdb/CHEMBL3937255.pdb
REMARK                            x       y       z     vdW  Elec       q    Type
REMARK                         _______ _______ _______ _____ _____    ______ ____
ROOT
ATOM      1  C   LIG    1      -23.748  83.050  37.243  0.00  0.00    +0.149 A 
ATOM      2  N   LIG    1      -22.834  83.264  38.206  0.00  0.00    -0.160 NA
ATOM      3  N   LIG    1      -21.659  82.795  37.684  0.00  0.00    -0.218 N 
ATOM      4  C   LIG    1      -21.874  82.133  36.471  0.00  0.00    +0.129 A 
ATOM      5  C   LIG    1      -23.185  82.387  36.137  0.00  0.00    +0.078 A 
ENDROOT
BRANCH   3   6
ATOM      6  C   LIG    1      -20.442  82.937  38.415  0.00  0.00    +0.067 A 
ATOM      7  C   LIG    1      -19.922  81.891  39.193  0.00  0.00    +0.028 A 
ATOM      8  C   LIG    1      -18.734  82.078  39.912  0.00  0.00    +0.002 A 
ATOM      9  C   LIG    1      -18.057  83.295  39.852  0.00  0.00    +0.000 A 
ATOM     10  C   LIG    1      -18.560  84.330  39.067  0.00  0.00    +0.002 A 
ATOM     11  C   LIG    1      -19.743  84.152  38.344  0.00  0.00    +0.028 A 
ENDBRANCH   3   6
BRANCH   4  12
ATOM     12  N   LIG    1      -21.003  81.287  35.775  0.00  0.00    -0.266 N 
ATOM     13  H   LIG    1      -20.419  81.712  35.054  0.00  0.00    +0.157 HD
ATOM     14  C   LIG    1      -20.767  79.916  36.131  0.00  0.00    +0.251 C 
ATOM     15  O   LIG    1      -21.290  79.407  37.116  0.00  0.00    -0.270 OA
BRANCH  14  16
ATOM     16  C   LIG    1      -19.893  79.118  35.264  0.00  0.00    +0.056 A 
ATOM     17  C   LIG    1      -18.559  78.855  35.578  0.00  0.00    +0.054 A 
ATOM     18 CL   LIG    1      -17.815  79.371  37.046  0.00  0.00    -0.083 Cl
ATOM     19  C   LIG    1      -17.786  78.124  34.688  0.00  0.00    +0.041 A 
ATOM     20  C   LIG    1      -18.328  77.633  33.486  0.00  0.00    +0.052 A 
ATOM     21 CL   LIG    1      -17.172  76.863  32.447  0.00  0.00    -0.083 Cl
ATOM     22  C   LIG    1      -19.693  77.814  33.158  0.00  0.00    +0.022 A 
ATOM     23  C   LIG    1      -20.449  78.575  34.081  0.00  0.00    +0.026 A 
BRANCH  22  24
ATOM     24  C   LIG    1      -20.335  77.229  31.943  0.00  0.00    +0.107 A 
ATOM     25  C   LIG    1      -21.187  76.119  31.955  0.00  0.00    +0.149 A 
ATOM     26  F   LIG    1      -21.523  75.504  33.099  0.00  0.00    -0.203 F 
ATOM     27  C   LIG    1      -21.722  75.631  30.764  0.00  0.00    +0.042 A 
ATOM     28  C   LIG    1      -21.426  76.274  29.571  0.00  0.00    +0.023 A 
ATOM     29  C   LIG    1      -20.581  77.366  29.622  0.00  0.00    +0.111 A 
ATOM     30  N   LIG    1      -20.017  77.826  30.764  0.00  0.00    -0.252 NA
ENDBRANCH  22  24
ENDBRANCH  14  16
ENDBRANCH   4  12
BRANCH   1  31
ATOM     31  C   LIG    1      -25.146  83.433  37.420  0.00  0.00    +0.236 C 
ATOM     32  N   LIG    1      -25.842  83.865  36.430  0.00  0.00    -0.243 NA
BRANCH  31  33
ATOM     33  O   LIG    1      -25.619  83.272  38.675  0.00  0.00    -0.491 OA
ATOM     34  H   LIG    1      -25.415  84.074  39.193  0.00  0.00    +0.294 HD
ENDBRANCH  31  33
BRANCH  32  35
ATOM     35  C   LIG    1      -27.249  84.196  36.716  0.00  0.00    +0.202 C 
BRANCH  35  36
ATOM     36  C   LIG    1      -27.816  85.259  35.797  0.00  0.00    +0.081 A 
ATOM     37  N   LIG    1      -27.006  86.294  35.440  0.00  0.00    -0.255 NA
ATOM     38  C   LIG    1      -27.553  87.223  34.621  0.00  0.00    +0.131 A 
ATOM     39  C   LIG    1      -28.860  87.142  34.174  0.00  0.00    +0.130 A 
ATOM     40  N   LIG    1      -29.686  86.137  34.538  0.00  0.00    -0.260 NA
ATOM     41  C   LIG    1      -29.136  85.207  35.360  0.00  0.00    +0.135 A 
ENDBRANCH  35  36
ENDBRANCH  32  35
ENDBRANCH   1  31
TORSDOF 8
ENDMDL
MODEL 5
REMARK VINA RESULT:      -6.4     17.560     21.125
REMARK  Name = pdb/CHEMBL3937255.pdb
REMARK                            x       y       z     vdW  Elec       q    Type
REMARK                         _______ _______ _______ _____ _____    ______ ____
ROOT
ATOM      1  C   LIG    1      -21.859  82.096  15.757  0.00  0.00    +0.149 A 
ATOM      2  N   LIG    1      -20.592  81.654  15.849  0.00  0.00    -0.160 NA
ATOM      3  N   LIG    1      -20.671  80.313  15.592  0.00  0.00    -0.218 N 
ATOM      4  C   LIG    1      -22.001  79.891  15.513  0.00  0.00    +0.129 A 
ATOM      5  C   LIG    1      -22.756  81.041  15.512  0.00  0.00    +0.078 A 
ENDROOT
BRANCH   3   6
ATOM      6  C   LIG    1      -19.483  79.524  15.526  0.00  0.00    +0.067 A 
ATOM      7  C   LIG    1      -19.121  78.648  16.560  0.00  0.00    +0.028 A 
ATOM      8  C   LIG    1      -17.937  77.905  16.466  0.00  0.00    +0.002 A 
ATOM      9  C   LIG    1      -17.117  78.024  15.344  0.00  0.00    +0.000 A 
ATOM     10  C   LIG    1      -17.481  78.879  14.307  0.00  0.00    +0.002 A 
ATOM     11  C   LIG    1      -18.663  79.622  14.391  0.00  0.00    +0.028 A 
ENDBRANCH   3   6
BRANCH   4  12
ATOM     12  N   LIG    1      -22.503  78.584  15.545  0.00  0.00    -0.266 N 
ATOM     13  H   LIG    1      -23.096  78.332  16.337  0.00  0.00    +0.157 HD
ATOM     14  C   LIG    1      -22.373  77.651  14.460  0.00  0.00    +0.251 C 
ATOM     15  O   LIG    1      -21.844  77.966  13.401  0.00  0.00    -0.270 OA
BRANCH  14  16
ATOM     16  C   LIG    1      -22.871  76.286  14.660  0.00  0.00    +0.056 A 
ATOM     17  C   LIG    1      -23.982  75.784  13.981  0.00  0.00    +0.054 A 
ATOM     18 CL   LIG    1      -24.842  76.681  12.784  0.00  0.00    -0.083 Cl
ATOM     19  C   LIG    1      -24.415  74.495  14.253  0.00  0.00    +0.041 A 
ATOM     20  C   LIG    1      -23.745  73.683  15.187  0.00  0.00    +0.052 A 
ATOM     21 CL   LIG    1      -24.516  72.159  15.487  0.00  0.00    -0.083 Cl
ATOM     22  C   LIG    1      -22.574  74.123  15.848  0.00  0.00    +0.022 A 
ATOM     23  C   LIG    1      -22.168  75.448  15.558  0.00  0.00    +0.026 A 
BRANCH  22  24
ATOM     24  C   LIG    1      -21.775  73.265  16.773  0.00  0.00    +0.107 A 
ATOM     25  C   LIG    1      -22.036  73.119  18.140  0.00  0.00    +0.149 A 
ATOM     26  F   LIG    1      -23.074  73.734  18.727  0.00  0.00    -0.203 F 
ATOM     27  C   LIG    1      -21.218  72.311  18.929  0.00  0.00    +0.042 A 
ATOM     28  C   LIG    1      -20.163  71.630  18.340  0.00  0.00    +0.023 A 
ATOM     29  C   LIG    1      -19.957  71.811  16.987  0.00  0.00    +0.111 A 
ATOM     30  N   LIG    1      -20.713  72.627  16.214  0.00  0.00    -0.252 NA
ENDBRANCH  22  24
ENDBRANCH  14  16
ENDBRANCH   4  12
BRANCH   1  31
ATOM     31  C   LIG    1      -22.191  83.505  15.958  0.00  0.00    +0.236 C 
ATOM     32  N   LIG    1      -22.202  84.327  14.971  0.00  0.00    -0.243 NA
BRANCH  31  33
ATOM     33  O   LIG    1      -22.495  83.834  17.232  0.00  0.00    -0.491 OA
ATOM     34  H   LIG    1      -21.670  83.865  17.754  0.00  0.00    +0.294 HD
ENDBRANCH  31  33
BRANCH  32  35
ATOM     35  C   LIG    1      -22.578  85.717  15.283  0.00  0.00    +0.202 C 
BRANCH  35  36
ATOM     36  C   LIG    1      -21.766  86.746  14.524  0.00  0.00    +0.081 A 
ATOM     37  N   LIG    1      -22.436  87.737  13.873  0.00  0.00    -0.255 NA
ATOM     38  C   LIG    1      -21.672  88.633  13.204  0.00  0.00    +0.131 A 
ATOM     39  C   LIG    1      -20.291  88.551  13.169  0.00  0.00    +0.130 A 
ATOM     40  N   LIG    1      -19.611  87.562  13.787  0.00  0.00    -0.260 NA
ATOM     41  C   LIG    1      -20.378  86.664  14.455  0.00  0.00    +0.135 A 
ENDBRANCH  35  36
ENDBRANCH  32  35
ENDBRANCH   1  31
TORSDOF 8
ENDMDL
MODEL 6
REMARK VINA RESULT:      -6.3      5.451     11.058
REMARK  Name = pdb/CHEMBL3937255.pdb
REMARK                            x       y       z     vdW  Elec       q    Type
REMARK                         _______ _______ _______ _____ _____    ______ ____
ROOT
ATOM      1  C   LIG    1      -29.653  75.683  31.222  0.00  0.00    +0.149 A 
ATOM      2  N   LIG    1      -29.999  74.395  31.041  0.00  0.00    -0.160 NA
ATOM      3  N   LIG    1      -31.136  74.442  30.282  0.00  0.00    -0.218 N 
ATOM      4  C   LIG    1      -31.594  75.755  30.139  0.00  0.00    +0.129 A 
ATOM      5  C   LIG    1      -30.595  76.554  30.645  0.00  0.00    +0.078 A 
ENDROOT
BRANCH   3   6
ATOM      6  C   LIG    1      -31.745  73.235  29.826  0.00  0.00    +0.067 A 
ATOM      7  C   LIG    1      -33.009  73.229  29.217  0.00  0.00    +0.028 A 
ATOM      8  C   LIG    1      -33.580  72.020  28.800  0.00  0.00    +0.002 A 
ATOM      9  C   LIG    1      -32.896  70.818  28.979  0.00  0.00    +0.000 A 
ATOM     10  C   LIG    1      -31.634  70.820  29.568  0.00  0.00    +0.002 A 
ATOM     11  C   LIG    1      -31.054  72.022  29.984  0.00  0.00    +0.028 A 
ENDBRANCH   3   6
BRANCH   4  12
ATOM     12  N   LIG    1      -32.844  76.197  29.689  0.00  0.00    -0.266 N 
ATOM     13  H   LIG    1      -33.613  76.182  30.360  0.00  0.00    +0.157 HD
ATOM     14  C   LIG    1      -33.060  76.818  28.412  0.00  0.00    +0.251 C 
ATOM     15  O   LIG    1      -32.134  77.045  27.642  0.00  0.00    -0.270 OA
BRANCH  14  16
ATOM     16  C   LIG    1      -34.436  77.156  28.031  0.00  0.00    +0.056 A 
ATOM     17  C   LIG    1      -34.969  78.434  28.196  0.00  0.00    +0.054 A 
ATOM     18 CL   LIG    1      -34.054  79.770  28.792  0.00  0.00    -0.083 Cl
ATOM     19  C   LIG    1      -36.292  78.666  27.848  0.00  0.00    +0.041 A 
ATOM     20  C   LIG    1      -37.095  77.640  27.318  0.00  0.00    +0.052 A 
ATOM     21 CL   LIG    1      -38.753  78.088  27.074  0.00  0.00    -0.083 Cl
ATOM     22  C   LIG    1      -36.579  76.346  27.068  0.00  0.00    +0.022 A 
ATOM     23  C   LIG    1      -35.230  76.141  27.448  0.00  0.00    +0.026 A 
BRANCH  22  24
ATOM     24  C   LIG    1      -37.364  75.254  26.419  0.00  0.00    +0.107 A 
ATOM     25  C   LIG    1      -37.868  75.309  25.114  0.00  0.00    +0.149 A 
ATOM     26  F   LIG    1      -37.645  76.367  24.320  0.00  0.00    -0.203 F 
ATOM     27  C   LIG    1      -38.611  74.247  24.602  0.00  0.00    +0.042 A 
ATOM     28  C   LIG    1      -38.820  73.122  25.387  0.00  0.00    +0.023 A 
ATOM     29  C   LIG    1      -38.296  73.124  26.665  0.00  0.00    +0.111 A 
ATOM     30  N   LIG    1      -37.611  74.165  27.194  0.00  0.00    -0.252 NA
ENDBRANCH  22  24
ENDBRANCH  14  16
ENDBRANCH   4  12
BRANCH   1  31
ATOM     31  C   LIG    1      -28.464  76.053  31.986  0.00  0.00    +0.236 C 
ATOM     32  N   LIG    1      -27.383  76.409  31.390  0.00  0.00    -0.243 NA
BRANCH  31  33
ATOM     33  O   LIG    1      -28.620  76.005  33.326  0.00  0.00    -0.491 OA
ATOM     34  H   LIG    1      -28.961  76.866  33.634  0.00  0.00    +0.294 HD
ENDBRANCH  31  33
BRANCH  32  35
ATOM     35  C   LIG    1      -26.254  76.788  32.258  0.00  0.00    +0.202 C 
BRANCH  35  36
ATOM     36  C   LIG    1      -24.963  77.021  31.499  0.00  0.00    +0.081 A 
ATOM     37  N   LIG    1      -25.030  77.141  30.144  0.00  0.00    -0.255 NA
ATOM     38  C   LIG    1      -23.854  77.345  29.506  0.00  0.00    +0.131 A 
ATOM     39  C   LIG    1      -22.647  77.420  30.179  0.00  0.00    +0.130 A 
ATOM     40  N   LIG    1      -22.558  77.279  31.519  0.00  0.00    -0.260 NA
ATOM     41  C   LIG    1      -23.738  77.072  32.157  0.00  0.00    +0.135 A 
ENDBRANCH  35  36
ENDBRANCH  32  35
ENDBRANCH   1  31
TORSDOF 8
ENDMDL
MODEL 7
REMARK VINA RESULT:      -6.3      5.153     12.156
REMARK  Name = pdb/CHEMBL3937255.pdb
REMARK                            x       y       z     vdW  Elec       q    Type
REMARK                         _______ _______ _______ _____ _____    ______ ____
ROOT
ATOM      1  C   LIG    1      -37.154  79.925  27.810  0.00  0.00    +0.149 A 
ATOM      2  N   LIG    1      -36.190  79.087  28.233  0.00  0.00    -0.160 NA
ATOM      3  N   LIG    1      -36.434  77.912  27.576  0.00  0.00    -0.218 N 
ATOM      4  C   LIG    1      -37.647  77.965  26.882  0.00  0.00    +0.129 A 
ATOM      5  C   LIG    1      -38.053  79.279  26.943  0.00  0.00    +0.078 A 
ENDROOT
BRANCH   3   6
ATOM      6  C   LIG    1      -35.545  76.807  27.727  0.00  0.00    +0.067 A 
ATOM      7  C   LIG    1      -34.193  76.892  27.359  0.00  0.00    +0.028 A 
ATOM      8  C   LIG    1      -33.357  75.777  27.504  0.00  0.00    +0.002 A 
ATOM      9  C   LIG    1      -33.857  74.583  28.022  0.00  0.00    +0.000 A 
ATOM     10  C   LIG    1      -35.194  74.499  28.404  0.00  0.00    +0.002 A 
ATOM     11  C   LIG    1      -36.035  75.607  28.266  0.00  0.00    +0.028 A 
ENDBRANCH   3   6
BRANCH   4  12
ATOM     12  N   LIG    1      -38.381  76.908  26.331  0.00  0.00    -0.266 N 
ATOM     13  H   LIG    1      -39.262  76.666  26.785  0.00  0.00    +0.157 HD
ATOM     14  C   LIG    1      -38.052  76.271  25.086  0.00  0.00    +0.251 C 
ATOM     15  O   LIG    1      -37.116  76.654  24.394  0.00  0.00    -0.270 OA
BRANCH  14  16
ATOM     16  C   LIG    1      -38.856  75.117  24.667  0.00  0.00    +0.056 A 
ATOM     17  C   LIG    1      -40.076  75.252  24.004  0.00  0.00    +0.054 A 
ATOM     18 CL   LIG    1      -40.734  76.778  23.539  0.00  0.00    -0.083 Cl
ATOM     19  C   LIG    1      -40.797  74.114  23.674  0.00  0.00    +0.041 A 
ATOM     20  C   LIG    1      -40.311  72.830  23.982  0.00  0.00    +0.052 A 
ATOM     21 CL   LIG    1      -41.414  71.544  23.613  0.00  0.00    -0.083 Cl
ATOM     22  C   LIG    1      -39.047  72.640  24.591  0.00  0.00    +0.022 A 
ATOM     23  C   LIG    1      -38.345  73.823  24.926  0.00  0.00    +0.026 A 
BRANCH  22  24
ATOM     24  C   LIG    1      -38.447  71.297  24.850  0.00  0.00    +0.107 A 
ATOM     25  C   LIG    1      -38.904  70.401  25.822  0.00  0.00    +0.149 A 
ATOM     26  F   LIG    1      -39.967  70.681  26.593  0.00  0.00    -0.203 F 
ATOM     27  C   LIG    1      -38.264  69.176  26.006  0.00  0.00    +0.042 A 
ATOM     28  C   LIG    1      -37.190  68.842  25.194  0.00  0.00    +0.023 A 
ATOM     29  C   LIG    1      -36.786  69.766  24.250  0.00  0.00    +0.111 A 
ATOM     30  N   LIG    1      -37.367  70.978  24.089  0.00  0.00    -0.252 NA
ENDBRANCH  22  24
ENDBRANCH  14  16
ENDBRANCH   4  12
BRANCH   1  31
ATOM     31  C   LIG    1      -37.227  81.305  28.284  0.00  0.00    +0.236 C 
ATOM     32  N   LIG    1      -36.239  82.111  28.121  0.00  0.00    -0.243 NA
BRANCH  31  33
ATOM     33  O   LIG    1      -38.398  81.637  28.867  0.00  0.00    -0.491 OA
ATOM     34  H   LIG    1      -38.862  80.820  29.131  0.00  0.00    +0.294 HD
ENDBRANCH  31  33
BRANCH  32  35
ATOM     35  C   LIG    1      -36.432  83.487  28.613  0.00  0.00    +0.202 C 
BRANCH  35  36
ATOM     36  C   LIG    1      -35.178  84.095  29.206  0.00  0.00    +0.081 A 
ATOM     37  N   LIG    1      -34.810  85.338  28.788  0.00  0.00    -0.255 NA
ATOM     38  C   LIG    1      -33.681  85.842  29.340  0.00  0.00    +0.131 A 
ATOM     39  C   LIG    1      -32.933  85.142  30.271  0.00  0.00    +0.130 A 
ATOM     40  N   LIG    1      -33.269  83.900  30.679  0.00  0.00    -0.260 NA
ATOM     41  C   LIG    1      -34.399  83.395  30.122  0.00  0.00    +0.135 A 
ENDBRANCH  35  36
ENDBRANCH  32  35
ENDBRANCH   1  31
TORSDOF 8
ENDMDL
MODEL 8
REMARK VINA RESULT:      -6.2      8.932     14.405
REMARK  Name = pdb/CHEMBL3937255.pdb
REMARK                            x       y       z     vdW  Elec       q    Type
REMARK                         _______ _______ _______ _____ _____    ______ ____
ROOT
ATOM      1  C   LIG    1      -23.884  77.179  31.076  0.00  0.00    +0.149 A 
ATOM      2  N   LIG    1      -23.886  77.656  32.334  0.00  0.00    -0.160 NA
ATOM      3  N   LIG    1      -25.161  77.451  32.783  0.00  0.00    -0.218 N 
ATOM      4  C   LIG    1      -25.995  77.009  31.752  0.00  0.00    +0.129 A 
ATOM      5  C   LIG    1      -25.162  76.734  30.692  0.00  0.00    +0.078 A 
ENDROOT
BRANCH   3   6
ATOM      6  C   LIG    1      -25.508  77.771  34.130  0.00  0.00    +0.067 A 
ATOM      7  C   LIG    1      -25.122  78.982  34.724  0.00  0.00    +0.028 A 
ATOM      8  C   LIG    1      -25.465  79.249  36.056  0.00  0.00    +0.002 A 
ATOM      9  C   LIG    1      -26.197  78.320  36.796  0.00  0.00    +0.000 A 
ATOM     10  C   LIG    1      -26.596  77.123  36.206  0.00  0.00    +0.002 A 
ATOM     11  C   LIG    1      -26.261  76.850  34.876  0.00  0.00    +0.028 A 
ENDBRANCH   3   6
BRANCH   4  12
ATOM     12  N   LIG    1      -27.394  76.956  31.726  0.00  0.00    -0.266 N 
ATOM     13  H   LIG    1      -27.886  77.791  31.406  0.00  0.00    +0.157 HD
ATOM     14  C   LIG    1      -28.152  75.758  31.957  0.00  0.00    +0.251 C 
ATOM     15  O   LIG    1      -27.607  74.677  32.148  0.00  0.00    -0.270 OA
BRANCH  14  16
ATOM     16  C   LIG    1      -29.616  75.861  31.985  0.00  0.00    +0.056 A 
ATOM     17  C   LIG    1      -30.347  75.849  33.173  0.00  0.00    +0.054 A 
ATOM     18 CL   LIG    1      -29.614  75.789  34.734  0.00  0.00    -0.083 Cl
ATOM     19  C   LIG    1      -31.732  75.911  33.115  0.00  0.00    +0.041 A 
ATOM     20  C   LIG    1      -32.406  76.002  31.884  0.00  0.00    +0.052 A 
ATOM     21 CL   LIG    1      -34.134  75.933  32.011  0.00  0.00    -0.083 Cl
ATOM     22  C   LIG    1      -31.704  76.088  30.657  0.00  0.00    +0.022 A 
ATOM     23  C   LIG    1      -30.294  76.007  30.752  0.00  0.00    +0.026 A 
BRANCH  22  24
ATOM     24  C   LIG    1      -32.371  76.281  29.335  0.00  0.00    +0.107 A 
ATOM     25  C   LIG    1      -33.190  75.331  28.715  0.00  0.00    +0.149 A 
ATOM     26  F   LIG    1      -33.469  74.156  29.299  0.00  0.00    -0.203 F 
ATOM     27  C   LIG    1      -33.752  75.595  27.467  0.00  0.00    +0.042 A 
ATOM     28  C   LIG    1      -33.515  76.819  26.859  0.00  0.00    +0.023 A 
ATOM     29  C   LIG    1      -32.700  77.718  27.520  0.00  0.00    +0.111 A 
ATOM     30  N   LIG    1      -32.111  77.461  28.712  0.00  0.00    -0.252 NA
ENDBRANCH  22  24
ENDBRANCH  14  16
ENDBRANCH   4  12
BRANCH   1  31
ATOM     31  C   LIG    1      -22.679  77.208  30.251  0.00  0.00    +0.236 C 
ATOM     32  N   LIG    1      -21.612  76.595  30.621  0.00  0.00    -0.243 NA
BRANCH  31  33
ATOM     33  O   LIG    1      -22.803  77.900  29.099  0.00  0.00    -0.491 OA
ATOM     34  H   LIG    1      -22.836  78.854  29.305  0.00  0.00    +0.294 HD
ENDBRANCH  31  33
BRANCH  32  35
ATOM     35  C   LIG    1      -20.464  76.667  29.699  0.00  0.00    +0.202 C 
BRANCH  35  36
ATOM     36  C   LIG    1      -19.167  77.049  30.382  0.00  0.00    +0.081 A 
ATOM     37  N   LIG    1      -18.013  76.488  29.925  0.00  0.00    -0.255 NA
ATOM     38  C   LIG    1      -16.878  76.854  30.566  0.00  0.00    +0.131 A 
ATOM     39  C   LIG    1      -16.878  77.739  31.629  0.00  0.00    +0.130 A 
ATOM     40  N   LIG    1      -18.014  78.287  32.112  0.00  0.00    -0.260 NA
ATOM     41  C   LIG    1      -19.151  77.917  31.470  0.00  0.00    +0.135 A 
ENDBRANCH  35  36
ENDBRANCH  32  35
ENDBRANCH   1  31
TORSDOF 8
ENDMDL
MODEL 9
REMARK VINA RESULT:      -6.2     13.449     16.347
REMARK  Name = pdb/CHEMBL3937255.pdb
REMARK                            x       y       z     vdW  Elec       q    Type
REMARK                         _______ _______ _______ _____ _____    ______ ____
ROOT
ATOM      1  C   LIG    1      -28.519  78.031  12.235  0.00  0.00    +0.149 A 
ATOM      2  N   LIG    1      -27.461  78.660  12.777  0.00  0.00    -0.160 NA
ATOM      3  N   LIG    1      -26.798  77.689  13.476  0.00  0.00    -0.218 N 
ATOM      4  C   LIG    1      -27.534  76.501  13.514  0.00  0.00    +0.129 A 
ATOM      5  C   LIG    1      -28.578  76.684  12.636  0.00  0.00    +0.078 A 
ENDROOT
BRANCH   3   6
ATOM      6  C   LIG    1      -25.562  77.989  14.124  0.00  0.00    +0.067 A 
ATOM      7  C   LIG    1      -24.383  77.288  13.826  0.00  0.00    +0.028 A 
ATOM      8  C   LIG    1      -23.195  77.600  14.499  0.00  0.00    +0.002 A 
ATOM      9  C   LIG    1      -23.172  78.610  15.459  0.00  0.00    +0.000 A 
ATOM     10  C   LIG    1      -24.335  79.320  15.747  0.00  0.00    +0.002 A 
ATOM     11  C   LIG    1      -25.525  79.019  15.078  0.00  0.00    +0.028 A 
ENDBRANCH   3   6
BRANCH   4  12
ATOM     12  N   LIG    1      -27.347  75.387  14.341  0.00  0.00    -0.266 N 
ATOM     13  H   LIG    1      -27.884  75.356  15.208  0.00  0.00    +0.157 HD
ATOM     14  C   LIG    1      -26.588  74.229  13.961  0.00  0.00    +0.251 C 
ATOM     15  O   LIG    1      -26.086  74.124  12.848  0.00  0.00    -0.270 OA
BRANCH  14  16
ATOM     16  C   LIG    1      -26.401  73.168  14.958  0.00  0.00    +0.056 A 
ATOM     17  C   LIG    1      -25.150  72.842  15.483  0.00  0.00    +0.054 A 
ATOM     18 CL   LIG    1      -23.705  73.695  15.080  0.00  0.00    -0.083 Cl
ATOM     19  C   LIG    1      -25.049  71.800  16.393  0.00  0.00    +0.041 A 
ATOM     20  C   LIG    1      -26.186  71.081  16.805  0.00  0.00    +0.052 A 
ATOM     21 CL   LIG    1      -25.839  69.733  17.839  0.00  0.00    -0.083 Cl
ATOM     22  C   LIG    1      -27.484  71.420  16.353  0.00  0.00    +0.022 A 
ATOM     23  C   LIG    1      -27.548  72.478  15.415  0.00  0.00    +0.026 A 
BRANCH  22  24
ATOM     24  C   LIG    1      -28.729  70.749  16.834  0.00  0.00    +0.107 A 
ATOM     25  C   LIG    1      -29.562  71.254  17.837  0.00  0.00    +0.149 A 
ATOM     26  F   LIG    1      -29.312  72.430  18.433  0.00  0.00    -0.203 F 
ATOM     27  C   LIG    1      -30.693  70.543  18.236  0.00  0.00    +0.042 A 
ATOM     28  C   LIG    1      -31.000  69.345  17.608  0.00  0.00    +0.023 A 
ATOM     29  C   LIG    1      -30.141  68.898  16.623  0.00  0.00    +0.111 A 
ATOM     30  N   LIG    1      -29.014  69.553  16.254  0.00  0.00    -0.252 NA
ENDBRANCH  22  24
ENDBRANCH  14  16
ENDBRANCH   4  12
BRANCH   1  31
ATOM     31  C   LIG    1      -29.479  78.740  11.392  0.00  0.00    +0.236 C 
ATOM     32  N   LIG    1      -30.663  79.001  11.818  0.00  0.00    -0.243 NA
BRANCH  31  33
ATOM     33  O   LIG    1      -29.006  79.096  10.179  0.00  0.00    -0.491 OA
ATOM     34  H   LIG    1      -29.726  79.514   9.670  0.00  0.00    +0.294 HD
ENDBRANCH  31  33
BRANCH  32  35
ATOM     35  C   LIG    1      -31.539  79.745  10.895  0.00  0.00    +0.202 C 
BRANCH  35  36
ATOM     36  C   LIG    1      -32.553  78.869  10.189  0.00  0.00    +0.081 A 
ATOM     37  N   LIG    1      -33.253  79.407   9.153  0.00  0.00    -0.255 NA
ATOM     38  C   LIG    1      -34.151  78.591   8.553  0.00  0.00    +0.131 A 
ATOM     39  C   LIG    1      -34.360  77.286   8.965  0.00  0.00    +0.130 A 
ATOM     40  N   LIG    1      -33.692  76.742  10.005  0.00  0.00    -0.260 NA
ATOM     41  C   LIG    1      -32.794  77.563  10.607  0.00  0.00    +0.135 A 
ENDBRANCH  35  36
ENDBRANCH  32  35
ENDBRANCH   1  31
TORSDOF 8
ENDMDL
