MODEL 1
REMARK VINA RESULT:      -6.8      0.000      0.000
REMARK  Name = pdb/CHEMBL3922194.pdb
REMARK                            x       y       z     vdW  Elec       q    Type
REMARK                         _______ _______ _______ _____ _____    ______ ____
ROOT
ATOM      1  C   LIG    1      -31.614  74.467  29.896  0.00  0.00    +0.149 A 
ATOM      2  N   LIG    1      -31.609  75.757  29.542  0.00  0.00    -0.160 NA
ATOM      3  N   LIG    1      -32.733  75.943  28.808  0.00  0.00    -0.218 N 
ATOM      4  C   LIG    1      -33.376  74.724  28.549  0.00  0.00    +0.129 A 
ATOM      5  C   LIG    1      -32.701  73.793  29.299  0.00  0.00    +0.078 A 
ENDROOT
BRANCH   3   6
ATOM      6  C   LIG    1      -33.047  77.261  28.379  0.00  0.00    +0.067 A 
ATOM      7  C   LIG    1      -34.051  78.023  28.981  0.00  0.00    +0.028 A 
ATOM      8  C   LIG    1      -34.310  79.321  28.526  0.00  0.00    +0.002 A 
ATOM      9  C   LIG    1      -33.568  79.863  27.475  0.00  0.00    +0.000 A 
ATOM     10  C   LIG    1      -32.550  79.119  26.888  0.00  0.00    +0.002 A 
ATOM     11  C   LIG    1      -32.280  77.830  27.346  0.00  0.00    +0.028 A 
ENDBRANCH   3   6
BRANCH   4  12
ATOM     12  N   LIG    1      -34.427  74.476  27.642  0.00  0.00    -0.266 N 
ATOM     13  H   LIG    1      -34.184  74.176  26.710  0.00  0.00    +0.157 HD
ATOM     14  C   LIG    1      -35.823  74.547  28.000  0.00  0.00    +0.251 C 
ATOM     15  O   LIG    1      -36.166  74.829  29.147  0.00  0.00    -0.270 OA
BRANCH  14  16
ATOM     16  C   LIG    1      -36.855  74.204  26.999  0.00  0.00    +0.056 A 
ATOM     17  C   LIG    1      -37.070  72.915  26.526  0.00  0.00    +0.054 A 
ATOM     18 CL   LIG    1      -36.103  71.562  26.969  0.00  0.00    -0.083 Cl
ATOM     19  C   LIG    1      -38.103  72.679  25.619  0.00  0.00    +0.041 A 
ATOM     20  C   LIG    1      -38.907  73.727  25.146  0.00  0.00    +0.052 A 
ATOM     21 CL   LIG    1      -40.281  73.221  24.222  0.00  0.00    -0.083 Cl
ATOM     22  C   LIG    1      -38.645  75.065  25.497  0.00  0.00    +0.022 A 
ATOM     23  C   LIG    1      -37.628  75.263  26.468  0.00  0.00    +0.026 A 
BRANCH  22  24
ATOM     24  C   LIG    1      -39.351  76.252  24.940  0.00  0.00    +0.107 A 
ATOM     25  C   LIG    1      -38.796  77.144  24.016  0.00  0.00    +0.149 A 
ATOM     26  F   LIG    1      -37.516  77.058  23.631  0.00  0.00    -0.203 F 
ATOM     27  C   LIG    1      -39.552  78.197  23.513  0.00  0.00    +0.042 A 
ATOM     28  C   LIG    1      -40.832  78.404  24.002  0.00  0.00    +0.023 A 
ATOM     29  C   LIG    1      -41.298  77.541  24.978  0.00  0.00    +0.111 A 
ATOM     30  N   LIG    1      -40.601  76.471  25.443  0.00  0.00    -0.252 NA
ENDBRANCH  22  24
ENDBRANCH  14  16
ENDBRANCH   4  12
BRANCH   1  32
ATOM     31  N   LIG    1      -30.033  74.620  31.656  0.00  0.00    -0.243 NA
ATOM     32  C   LIG    1      -30.581  73.893  30.754  0.00  0.00    +0.236 C 
BRANCH  32  33
ATOM     33  O   LIG    1      -30.303  72.596  30.508  0.00  0.00    -0.491 OA
ATOM     34  H   LIG    1      -30.568  72.011  31.225  0.00  0.00    +0.294 HD
ENDBRANCH  32  33
BRANCH  31  35
ATOM     35  C   LIG    1      -28.993  74.104  32.530  0.00  0.00    +0.202 C 
BRANCH  35  38
ATOM     36  C   LIG    1      -26.625  72.260  31.592  0.00  0.00    +0.174 C 
ATOM     37  N   LIG    1      -26.651  73.699  31.649  0.00  0.00    -0.250 N 
ATOM     38  C   LIG    1      -27.661  74.535  32.053  0.00  0.00    +0.080 A 
ATOM     39  C   LIG    1      -27.117  75.791  31.873  0.00  0.00    +0.161 A 
ATOM     40  N   LIG    1      -25.841  75.682  31.406  0.00  0.00    -0.138 NA
ATOM     41  N   LIG    1      -25.564  74.394  31.271  0.00  0.00    -0.066 NA
ENDBRANCH  35  38
ENDBRANCH  31  35
ENDBRANCH   1  32
TORSDOF 8
ENDMDL
MODEL 2
REMARK VINA RESULT:      -6.7     17.606     20.120
REMARK  Name = pdb/CHEMBL3922194.pdb
REMARK                            x       y       z     vdW  Elec       q    Type
REMARK                         _______ _______ _______ _____ _____    ______ ____
ROOT
ATOM      1  C   LIG    1      -22.707  82.961  15.383  0.00  0.00    +0.149 A 
ATOM      2  N   LIG    1      -23.654  82.361  14.654  0.00  0.00    -0.160 NA
ATOM      3  N   LIG    1      -23.540  81.037  14.918  0.00  0.00    -0.218 N 
ATOM      4  C   LIG    1      -22.402  80.771  15.693  0.00  0.00    +0.129 A 
ATOM      5  C   LIG    1      -21.909  82.003  16.046  0.00  0.00    +0.078 A 
ENDROOT
BRANCH   3   6
ATOM      6  C   LIG    1      -24.499  80.152  14.354  0.00  0.00    +0.067 A 
ATOM      7  C   LIG    1      -24.613  79.955  12.976  0.00  0.00    +0.028 A 
ATOM      8  C   LIG    1      -25.567  79.062  12.476  0.00  0.00    +0.002 A 
ATOM      9  C   LIG    1      -26.404  78.361  13.346  0.00  0.00    +0.000 A 
ATOM     10  C   LIG    1      -26.277  78.533  14.720  0.00  0.00    +0.002 A 
ATOM     11  C   LIG    1      -25.321  79.412  15.224  0.00  0.00    +0.028 A 
ENDBRANCH   3   6
BRANCH   4  12
ATOM     12  N   LIG    1      -21.820  79.518  15.975  0.00  0.00    -0.266 N 
ATOM     13  H   LIG    1      -21.916  79.154  16.911  0.00  0.00    +0.157 HD
ATOM     14  C   LIG    1      -21.171  78.697  14.981  0.00  0.00    +0.251 C 
ATOM     15  O   LIG    1      -21.101  79.064  13.810  0.00  0.00    -0.270 OA
BRANCH  14  16
ATOM     16  C   LIG    1      -20.648  77.367  15.357  0.00  0.00    +0.056 A 
ATOM     17  C   LIG    1      -19.307  77.112  15.614  0.00  0.00    +0.054 A 
ATOM     18 CL   LIG    1      -18.061  78.286  15.435  0.00  0.00    -0.083 Cl
ATOM     19  C   LIG    1      -18.914  75.835  16.014  0.00  0.00    +0.041 A 
ATOM     20  C   LIG    1      -19.846  74.791  16.126  0.00  0.00    +0.052 A 
ATOM     21 CL   LIG    1      -19.228  73.350  16.861  0.00  0.00    -0.083 Cl
ATOM     22  C   LIG    1      -21.191  74.969  15.753  0.00  0.00    +0.022 A 
ATOM     23  C   LIG    1      -21.569  76.294  15.410  0.00  0.00    +0.026 A 
BRANCH  22  24
ATOM     24  C   LIG    1      -22.218  73.891  15.705  0.00  0.00    +0.107 A 
ATOM     25  C   LIG    1      -23.125  73.614  16.734  0.00  0.00    +0.149 A 
ATOM     26  F   LIG    1      -23.070  74.244  17.915  0.00  0.00    -0.203 F 
ATOM     27  C   LIG    1      -24.083  72.619  16.578  0.00  0.00    +0.042 A 
ATOM     28  C   LIG    1      -24.074  71.846  15.427  0.00  0.00    +0.023 A 
ATOM     29  C   LIG    1      -23.098  72.108  14.481  0.00  0.00    +0.111 A 
ATOM     30  N   LIG    1      -22.189  73.113  14.584  0.00  0.00    -0.252 NA
ENDBRANCH  22  24
ENDBRANCH  14  16
ENDBRANCH   4  12
BRANCH   1  32
ATOM     31  N   LIG    1      -22.227  85.034  14.337  0.00  0.00    -0.243 NA
ATOM     32  C   LIG    1      -22.551  84.413  15.411  0.00  0.00    +0.236 C 
BRANCH  32  33
ATOM     33  O   LIG    1      -22.785  84.981  16.611  0.00  0.00    -0.491 OA
ATOM     34  H   LIG    1      -23.024  85.911  16.549  0.00  0.00    +0.294 HD
ENDBRANCH  32  33
BRANCH  31  35
ATOM     35  C   LIG    1      -22.047  86.475  14.309  0.00  0.00    +0.202 C 
BRANCH  35  38
ATOM     36  C   LIG    1      -21.107  89.185  13.020  0.00  0.00    +0.174 C 
ATOM     37  N   LIG    1      -20.313  88.011  13.279  0.00  0.00    -0.250 N 
ATOM     38  C   LIG    1      -20.687  86.814  13.836  0.00  0.00    +0.080 A 
ATOM     39  C   LIG    1      -19.511  86.093  13.844  0.00  0.00    +0.161 A 
ATOM     40  N   LIG    1      -18.507  86.835  13.297  0.00  0.00    -0.138 NA
ATOM     41  N   LIG    1      -19.009  88.011  12.953  0.00  0.00    -0.066 NA
ENDBRANCH  35  38
ENDBRANCH  31  35
ENDBRANCH   1  32
TORSDOF 8
ENDMDL
MODEL 3
REMARK VINA RESULT:      -6.7      5.051      8.559
REMARK  Name = pdb/CHEMBL3922194.pdb
REMARK                            x       y       z     vdW  Elec       q    Type
REMARK                         _______ _______ _______ _____ _____    ______ ____
ROOT
ATOM      1  C   LIG    1      -37.529  75.638  25.933  0.00  0.00    +0.149 A 
ATOM      2  N   LIG    1      -37.972  74.394  25.718  0.00  0.00    -0.160 NA
ATOM      3  N   LIG    1      -38.941  74.505  24.776  0.00  0.00    -0.218 N 
ATOM      4  C   LIG    1      -39.235  75.849  24.508  0.00  0.00    +0.129 A 
ATOM      5  C   LIG    1      -38.290  76.571  25.195  0.00  0.00    +0.078 A 
ENDROOT
BRANCH   3   6
ATOM      6  C   LIG    1      -39.527  73.313  24.269  0.00  0.00    +0.067 A 
ATOM      7  C   LIG    1      -38.904  72.068  24.382  0.00  0.00    +0.028 A 
ATOM      8  C   LIG    1      -39.533  70.925  23.875  0.00  0.00    +0.002 A 
ATOM      9  C   LIG    1      -40.784  71.019  23.262  0.00  0.00    +0.000 A 
ATOM     10  C   LIG    1      -41.420  72.252  23.170  0.00  0.00    +0.002 A 
ATOM     11  C   LIG    1      -40.804  73.392  23.683  0.00  0.00    +0.028 A 
ENDBRANCH   3   6
BRANCH   4  12
ATOM     12  N   LIG    1      -40.323  76.367  23.775  0.00  0.00    -0.266 N 
ATOM     13  H   LIG    1      -40.210  76.475  22.778  0.00  0.00    +0.157 HD
ATOM     14  C   LIG    1      -41.607  76.671  24.360  0.00  0.00    +0.251 C 
ATOM     15  O   LIG    1      -41.816  76.480  25.556  0.00  0.00    -0.270 OA
BRANCH  14  16
ATOM     16  C   LIG    1      -42.709  77.149  23.499  0.00  0.00    +0.056 A 
ATOM     17  C   LIG    1      -43.171  78.460  23.496  0.00  0.00    +0.054 A 
ATOM     18 CL   LIG    1      -42.588  79.679  24.562  0.00  0.00    -0.083 Cl
ATOM     19  C   LIG    1      -44.181  78.831  22.610  0.00  0.00    +0.041 A 
ATOM     20  C   LIG    1      -44.769  77.894  21.745  0.00  0.00    +0.052 A 
ATOM     21 CL   LIG    1      -45.828  78.575  20.557  0.00  0.00    -0.083 Cl
ATOM     22  C   LIG    1      -44.424  76.530  21.802  0.00  0.00    +0.022 A 
ATOM     23  C   LIG    1      -43.350  76.198  22.670  0.00  0.00    +0.026 A 
BRANCH  22  24
ATOM     24  C   LIG    1      -45.087  75.445  21.026  0.00  0.00    +0.107 A 
ATOM     25  C   LIG    1      -44.845  75.176  19.675  0.00  0.00    +0.149 A 
ATOM     26  F   LIG    1      -44.058  75.960  18.926  0.00  0.00    -0.203 F 
ATOM     27  C   LIG    1      -45.475  74.107  19.048  0.00  0.00    +0.042 A 
ATOM     28  C   LIG    1      -46.410  73.365  19.752  0.00  0.00    +0.023 A 
ATOM     29  C   LIG    1      -46.672  73.731  21.060  0.00  0.00    +0.111 A 
ATOM     30  N   LIG    1      -46.028  74.733  21.714  0.00  0.00    -0.252 NA
ENDBRANCH  22  24
ENDBRANCH  14  16
ENDBRANCH   4  12
BRANCH   1  32
ATOM     31  N   LIG    1      -36.251  77.122  27.269  0.00  0.00    -0.243 NA
ATOM     32  C   LIG    1      -36.430  75.923  26.851  0.00  0.00    +0.236 C 
BRANCH  32  33
ATOM     33  O   LIG    1      -35.689  74.849  27.192  0.00  0.00    -0.491 OA
ATOM     34  H   LIG    1      -34.800  74.870  26.824  0.00  0.00    +0.294 HD
ENDBRANCH  32  33
BRANCH  31  35
ATOM     35  C   LIG    1      -35.168  77.465  28.174  0.00  0.00    +0.202 C 
BRANCH  35  38
ATOM     36  C   LIG    1      -34.299  80.435  27.620  0.00  0.00    +0.174 C 
ATOM     37  N   LIG    1      -33.637  79.230  27.191  0.00  0.00    -0.250 N 
ATOM     38  C   LIG    1      -33.986  77.921  27.411  0.00  0.00    +0.080 A 
ATOM     39  C   LIG    1      -32.978  77.220  26.782  0.00  0.00    +0.161 A 
ATOM     40  N   LIG    1      -32.097  78.087  26.207  0.00  0.00    -0.138 NA
ATOM     41  N   LIG    1      -32.510  79.319  26.464  0.00  0.00    -0.066 NA
ENDBRANCH  35  38
ENDBRANCH  31  35
ENDBRANCH   1  32
TORSDOF 8
ENDMDL
MODEL 4
REMARK VINA RESULT:      -6.6      6.143      8.889
REMARK  Name = pdb/CHEMBL3922194.pdb
REMARK                            x       y       z     vdW  Elec       q    Type
REMARK                         _______ _______ _______ _____ _____    ______ ____
ROOT
ATOM      1  C   LIG    1      -36.071  71.481  27.188  0.00  0.00    +0.149 A 
ATOM      2  N   LIG    1      -36.882  72.478  26.821  0.00  0.00    -0.160 NA
ATOM      3  N   LIG    1      -37.399  72.112  25.622  0.00  0.00    -0.218 N 
ATOM      4  C   LIG    1      -36.785  70.948  25.140  0.00  0.00    +0.129 A 
ATOM      5  C   LIG    1      -35.988  70.508  26.168  0.00  0.00    +0.078 A 
ENDROOT
BRANCH   3   6
ATOM      6  C   LIG    1      -38.388  72.945  25.032  0.00  0.00    +0.067 A 
ATOM      7  C   LIG    1      -39.520  72.426  24.397  0.00  0.00    +0.028 A 
ATOM      8  C   LIG    1      -40.468  73.294  23.844  0.00  0.00    +0.002 A 
ATOM      9  C   LIG    1      -40.294  74.677  23.924  0.00  0.00    +0.000 A 
ATOM     10  C   LIG    1      -39.183  75.199  24.577  0.00  0.00    +0.002 A 
ATOM     11  C   LIG    1      -38.242  74.340  25.141  0.00  0.00    +0.028 A 
ENDBRANCH   3   6
BRANCH   4  12
ATOM     12  N   LIG    1      -36.879  70.391  23.849  0.00  0.00    -0.266 N 
ATOM     13  H   LIG    1      -36.427  70.879  23.091  0.00  0.00    +0.157 HD
ATOM     14  C   LIG    1      -37.512  69.124  23.570  0.00  0.00    +0.251 C 
ATOM     15  O   LIG    1      -38.006  68.454  24.475  0.00  0.00    -0.270 OA
BRANCH  14  16
ATOM     16  C   LIG    1      -37.504  68.588  22.192  0.00  0.00    +0.056 A 
ATOM     17  C   LIG    1      -38.546  68.767  21.291  0.00  0.00    +0.054 A 
ATOM     18 CL   LIG    1      -40.027  69.551  21.687  0.00  0.00    -0.083 Cl
ATOM     19  C   LIG    1      -38.427  68.269  19.994  0.00  0.00    +0.041 A 
ATOM     20  C   LIG    1      -37.286  67.557  19.592  0.00  0.00    +0.052 A 
ATOM     21 CL   LIG    1      -37.204  67.226  17.894  0.00  0.00    -0.083 Cl
ATOM     22  C   LIG    1      -36.262  67.241  20.506  0.00  0.00    +0.022 A 
ATOM     23  C   LIG    1      -36.387  67.815  21.799  0.00  0.00    +0.026 A 
BRANCH  22  24
ATOM     24  C   LIG    1      -35.086  66.377  20.210  0.00  0.00    +0.107 A 
ATOM     25  C   LIG    1      -35.165  65.034  19.826  0.00  0.00    +0.149 A 
ATOM     26  F   LIG    1      -36.330  64.374  19.797  0.00  0.00    -0.203 F 
ATOM     27  C   LIG    1      -34.012  64.321  19.520  0.00  0.00    +0.042 A 
ATOM     28  C   LIG    1      -32.777  64.929  19.685  0.00  0.00    +0.023 A 
ATOM     29  C   LIG    1      -32.756  66.232  20.150  0.00  0.00    +0.111 A 
ATOM     30  N   LIG    1      -33.870  66.969  20.399  0.00  0.00    -0.252 NA
ENDBRANCH  22  24
ENDBRANCH  14  16
ENDBRANCH   4  12
BRANCH   1  32
ATOM     31  N   LIG    1      -34.334  70.739  28.621  0.00  0.00    -0.243 NA
ATOM     32  C   LIG    1      -35.367  71.482  28.468  0.00  0.00    +0.236 C 
BRANCH  32  33
ATOM     33  O   LIG    1      -35.890  72.311  29.395  0.00  0.00    -0.491 OA
ATOM     34  H   LIG    1      -36.810  72.117  29.600  0.00  0.00    +0.294 HD
ENDBRANCH  32  33
BRANCH  31  35
ATOM     35  C   LIG    1      -33.603  70.693  29.875  0.00  0.00    +0.202 C 
BRANCH  35  38
ATOM     36  C   LIG    1      -32.619  73.679  29.786  0.00  0.00    +0.174 C 
ATOM     37  N   LIG    1      -31.824  72.486  29.647  0.00  0.00    -0.250 N 
ATOM     38  C   LIG    1      -32.216  71.171  29.679  0.00  0.00    +0.080 A 
ATOM     39  C   LIG    1      -31.029  70.488  29.511  0.00  0.00    +0.161 A 
ATOM     40  N   LIG    1      -30.001  71.371  29.368  0.00  0.00    -0.138 NA
ATOM     41  N   LIG    1      -30.499  72.595  29.453  0.00  0.00    -0.066 NA
ENDBRANCH  35  38
ENDBRANCH  31  35
ENDBRANCH   1  32
TORSDOF 8
ENDMDL
MODEL 5
REMARK VINA RESULT:      -6.6      5.043      8.506
REMARK  Name = pdb/CHEMBL3922194.pdb
REMARK                            x       y       z     vdW  Elec       q    Type
REMARK                         _______ _______ _______ _____ _____    ______ ____
ROOT
ATOM      1  C   LIG    1      -37.939  76.622  26.277  0.00  0.00    +0.149 A 
ATOM      2  N   LIG    1      -39.083  77.181  25.870  0.00  0.00    -0.160 NA
ATOM      3  N   LIG    1      -39.760  76.204  25.219  0.00  0.00    -0.218 N 
ATOM      4  C   LIG    1      -38.968  75.057  25.062  0.00  0.00    +0.129 A 
ATOM      5  C   LIG    1      -37.833  75.299  25.795  0.00  0.00    +0.078 A 
ENDROOT
BRANCH   3   6
ATOM      6  C   LIG    1      -41.076  76.486  24.761  0.00  0.00    +0.067 A 
ATOM      7  C   LIG    1      -41.463  76.286  23.433  0.00  0.00    +0.028 A 
ATOM      8  C   LIG    1      -42.776  76.569  23.040  0.00  0.00    +0.002 A 
ATOM      9  C   LIG    1      -43.705  77.046  23.967  0.00  0.00    +0.000 A 
ATOM     10  C   LIG    1      -43.332  77.222  25.295  0.00  0.00    +0.002 A 
ATOM     11  C   LIG    1      -42.030  76.930  25.695  0.00  0.00    +0.028 A 
ENDBRANCH   3   6
BRANCH   4  12
ATOM     12  N   LIG    1      -39.225  73.933  24.250  0.00  0.00    -0.266 N 
ATOM     13  H   LIG    1      -38.737  73.866  23.370  0.00  0.00    +0.157 HD
ATOM     14  C   LIG    1      -40.078  72.839  24.649  0.00  0.00    +0.251 C 
ATOM     15  O   LIG    1      -40.630  72.839  25.748  0.00  0.00    -0.270 OA
BRANCH  14  16
ATOM     16  C   LIG    1      -40.235  71.670  23.758  0.00  0.00    +0.056 A 
ATOM     17  C   LIG    1      -41.390  71.405  23.033  0.00  0.00    +0.054 A 
ATOM     18 CL   LIG    1      -42.827  72.346  23.148  0.00  0.00    -0.083 Cl
ATOM     19  C   LIG    1      -41.427  70.305  22.177  0.00  0.00    +0.041 A 
ATOM     20  C   LIG    1      -40.329  69.437  22.062  0.00  0.00    +0.052 A 
ATOM     21 CL   LIG    1      -40.460  68.275  20.785  0.00  0.00    -0.083 Cl
ATOM     22  C   LIG    1      -39.188  69.592  22.871  0.00  0.00    +0.022 A 
ATOM     23  C   LIG    1      -39.158  70.756  23.685  0.00  0.00    +0.026 A 
BRANCH  22  24
ATOM     24  C   LIG    1      -38.037  68.648  22.920  0.00  0.00    +0.107 A 
ATOM     25  C   LIG    1      -37.056  68.542  21.928  0.00  0.00    +0.149 A 
ATOM     26  F   LIG    1      -37.135  69.224  20.778  0.00  0.00    -0.203 F 
ATOM     27  C   LIG    1      -35.988  67.666  22.086  0.00  0.00    +0.042 A 
ATOM     28  C   LIG    1      -35.953  66.835  23.195  0.00  0.00    +0.023 A 
ATOM     29  C   LIG    1      -36.996  66.924  24.100  0.00  0.00    +0.111 A 
ATOM     30  N   LIG    1      -38.019  67.812  23.999  0.00  0.00    -0.252 NA
ENDBRANCH  22  24
ENDBRANCH  14  16
ENDBRANCH   4  12
BRANCH   1  32
ATOM     31  N   LIG    1      -35.971  76.721  27.597  0.00  0.00    -0.243 NA
ATOM     32  C   LIG    1      -36.957  77.353  27.075  0.00  0.00    +0.236 C 
BRANCH  32  33
ATOM     33  O   LIG    1      -37.190  78.677  27.177  0.00  0.00    -0.491 OA
ATOM     34  H   LIG    1      -36.385  79.197  27.265  0.00  0.00    +0.294 HD
ENDBRANCH  32  33
BRANCH  31  35
ATOM     35  C   LIG    1      -34.972  77.395  28.408  0.00  0.00    +0.202 C 
BRANCH  35  38
ATOM     36  C   LIG    1      -34.316  80.431  27.913  0.00  0.00    +0.174 C 
ATOM     37  N   LIG    1      -33.645  79.283  27.359  0.00  0.00    -0.250 N 
ATOM     38  C   LIG    1      -33.902  77.949  27.549  0.00  0.00    +0.080 A 
ATOM     39  C   LIG    1      -32.933  77.332  26.785  0.00  0.00    +0.161 A 
ATOM     40  N   LIG    1      -32.162  78.271  26.165  0.00  0.00    -0.138 NA
ATOM     41  N   LIG    1      -32.607  79.465  26.524  0.00  0.00    -0.066 NA
ENDBRANCH  35  38
ENDBRANCH  31  35
ENDBRANCH   1  32
TORSDOF 8
ENDMDL
MODEL 6
REMARK VINA RESULT:      -6.5     17.435     20.013
REMARK  Name = pdb/CHEMBL3922194.pdb
REMARK                            x       y       z     vdW  Elec       q    Type
REMARK                         _______ _______ _______ _____ _____    ______ ____
ROOT
ATOM      1  C   LIG    1      -22.056  82.526  15.643  0.00  0.00    +0.149 A 
ATOM      2  N   LIG    1      -20.809  82.084  15.837  0.00  0.00    -0.160 NA
ATOM      3  N   LIG    1      -20.859  80.743  15.648  0.00  0.00    -0.218 N 
ATOM      4  C   LIG    1      -22.181  80.301  15.497  0.00  0.00    +0.129 A 
ATOM      5  C   LIG    1      -22.938  81.445  15.426  0.00  0.00    +0.078 A 
ENDROOT
BRANCH   3   6
ATOM      6  C   LIG    1      -19.641  80.011  15.689  0.00  0.00    +0.067 A 
ATOM      7  C   LIG    1      -19.452  78.924  16.547  0.00  0.00    +0.028 A 
ATOM      8  C   LIG    1      -18.236  78.231  16.536  0.00  0.00    +0.002 A 
ATOM      9  C   LIG    1      -17.210  78.616  15.671  0.00  0.00    +0.000 A 
ATOM     10  C   LIG    1      -17.402  79.681  14.798  0.00  0.00    +0.002 A 
ATOM     11  C   LIG    1      -18.615  80.366  14.795  0.00  0.00    +0.028 A 
ENDBRANCH   3   6
BRANCH   4  12
ATOM     12  N   LIG    1      -22.658  78.974  15.513  0.00  0.00    -0.266 N 
ATOM     13  H   LIG    1      -23.243  78.693  16.285  0.00  0.00    +0.157 HD
ATOM     14  C   LIG    1      -22.422  78.029  14.447  0.00  0.00    +0.251 C 
ATOM     15  O   LIG    1      -21.782  78.353  13.449  0.00  0.00    -0.270 OA
BRANCH  14  16
ATOM     16  C   LIG    1      -23.018  76.679  14.521  0.00  0.00    +0.056 A 
ATOM     17  C   LIG    1      -24.168  76.307  13.835  0.00  0.00    +0.054 A 
ATOM     18 CL   LIG    1      -25.107  77.394  12.886  0.00  0.00    -0.083 Cl
ATOM     19  C   LIG    1      -24.627  74.994  13.924  0.00  0.00    +0.041 A 
ATOM     20  C   LIG    1      -23.969  74.047  14.724  0.00  0.00    +0.052 A 
ATOM     21 CL   LIG    1      -24.532  72.421  14.527  0.00  0.00    -0.083 Cl
ATOM     22  C   LIG    1      -22.878  74.410  15.537  0.00  0.00    +0.022 A 
ATOM     23  C   LIG    1      -22.399  75.737  15.375  0.00  0.00    +0.026 A 
BRANCH  22  24
ATOM     24  C   LIG    1      -22.205  73.514  16.519  0.00  0.00    +0.107 A 
ATOM     25  C   LIG    1      -22.509  73.465  17.883  0.00  0.00    +0.149 A 
ATOM     26  F   LIG    1      -23.377  74.316  18.447  0.00  0.00    -0.203 F 
ATOM     27  C   LIG    1      -21.862  72.558  18.715  0.00  0.00    +0.042 A 
ATOM     28  C   LIG    1      -20.851  71.765  18.195  0.00  0.00    +0.023 A 
ATOM     29  C   LIG    1      -20.535  71.919  16.856  0.00  0.00    +0.111 A 
ATOM     30  N   LIG    1      -21.192  72.754  16.010  0.00  0.00    -0.252 NA
ENDBRANCH  22  24
ENDBRANCH  14  16
ENDBRANCH   4  12
BRANCH   1  32
ATOM     31  N   LIG    1      -22.293  84.664  14.645  0.00  0.00    -0.243 NA
ATOM     32  C   LIG    1      -22.396  83.945  15.702  0.00  0.00    +0.236 C 
BRANCH  32  33
ATOM     33  O   LIG    1      -22.814  84.373  16.911  0.00  0.00    -0.491 OA
ATOM     34  H   LIG    1      -22.258  84.065  17.634  0.00  0.00    +0.294 HD
ENDBRANCH  32  33
BRANCH  31  35
ATOM     35  C   LIG    1      -22.607  86.082  14.649  0.00  0.00    +0.202 C 
BRANCH  35  38
ATOM     36  C   LIG    1      -22.701  88.431  12.560  0.00  0.00    +0.174 C 
ATOM     37  N   LIG    1      -21.543  87.885  13.219  0.00  0.00    -0.250 N 
ATOM     38  C   LIG    1      -21.462  86.863  14.132  0.00  0.00    +0.080 A 
ATOM     39  C   LIG    1      -20.113  86.804  14.415  0.00  0.00    +0.161 A 
ATOM     40  N   LIG    1      -19.443  87.737  13.682  0.00  0.00    -0.138 NA
ATOM     41  N   LIG    1      -20.329  88.396  12.951  0.00  0.00    -0.066 NA
ENDBRANCH  35  38
ENDBRANCH  31  35
ENDBRANCH   1  32
TORSDOF 8
ENDMDL
MODEL 7
REMARK VINA RESULT:      -6.4      5.025     10.809
REMARK  Name = pdb/CHEMBL3922194.pdb
REMARK                            x       y       z     vdW  Elec       q    Type
REMARK                         _______ _______ _______ _____ _____    ______ ____
ROOT
ATOM      1  C   LIG    1      -33.298  73.514  28.962  0.00  0.00    +0.149 A 
ATOM      2  N   LIG    1      -33.712  74.698  28.498  0.00  0.00    -0.160 NA
ATOM      3  N   LIG    1      -32.712  75.571  28.770  0.00  0.00    -0.218 N 
ATOM      4  C   LIG    1      -31.722  74.975  29.565  0.00  0.00    +0.129 A 
ATOM      5  C   LIG    1      -32.062  73.646  29.630  0.00  0.00    +0.078 A 
ENDROOT
BRANCH   3   6
ATOM      6  C   LIG    1      -32.831  76.904  28.291  0.00  0.00    +0.067 A 
ATOM      7  C   LIG    1      -32.139  77.358  27.166  0.00  0.00    +0.028 A 
ATOM      8  C   LIG    1      -32.304  78.678  26.731  0.00  0.00    +0.002 A 
ATOM      9  C   LIG    1      -33.161  79.545  27.412  0.00  0.00    +0.000 A 
ATOM     10  C   LIG    1      -33.872  79.091  28.518  0.00  0.00    +0.002 A 
ATOM     11  C   LIG    1      -33.721  77.774  28.948  0.00  0.00    +0.028 A 
ENDBRANCH   3   6
BRANCH   4  12
ATOM     12  N   LIG    1      -30.657  75.607  30.239  0.00  0.00    -0.266 N 
ATOM     13  H   LIG    1      -30.366  76.516  29.913  0.00  0.00    +0.157 HD
ATOM     14  C   LIG    1      -30.021  75.062  31.415  0.00  0.00    +0.251 C 
ATOM     15  O   LIG    1      -30.396  73.995  31.896  0.00  0.00    -0.270 OA
BRANCH  14  16
ATOM     16  C   LIG    1      -28.955  75.829  32.093  0.00  0.00    +0.056 A 
ATOM     17  C   LIG    1      -29.172  76.620  33.215  0.00  0.00    +0.054 A 
ATOM     18 CL   LIG    1      -30.725  76.891  33.907  0.00  0.00    -0.083 Cl
ATOM     19  C   LIG    1      -28.094  77.266  33.820  0.00  0.00    +0.041 A 
ATOM     20  C   LIG    1      -26.797  77.161  33.293  0.00  0.00    +0.052 A 
ATOM     21 CL   LIG    1      -25.555  77.824  34.301  0.00  0.00    -0.083 Cl
ATOM     22  C   LIG    1      -26.551  76.477  32.087  0.00  0.00    +0.022 A 
ATOM     23  C   LIG    1      -27.657  75.781  31.533  0.00  0.00    +0.026 A 
BRANCH  22  24
ATOM     24  C   LIG    1      -25.240  76.429  31.381  0.00  0.00    +0.107 A 
ATOM     25  C   LIG    1      -24.726  77.464  30.594  0.00  0.00    +0.149 A 
ATOM     26  F   LIG    1      -25.437  78.566  30.320  0.00  0.00    -0.203 F 
ATOM     27  C   LIG    1      -23.467  77.348  30.014  0.00  0.00    +0.042 A 
ATOM     28  C   LIG    1      -22.766  76.161  30.153  0.00  0.00    +0.023 A 
ATOM     29  C   LIG    1      -23.363  75.139  30.871  0.00  0.00    +0.111 A 
ATOM     30  N   LIG    1      -24.564  75.248  31.496  0.00  0.00    -0.252 NA
ENDBRANCH  22  24
ENDBRANCH  14  16
ENDBRANCH   4  12
BRANCH   1  32
ATOM     31  N   LIG    1      -35.021  72.261  27.920  0.00  0.00    -0.243 NA
ATOM     32  C   LIG    1      -34.090  72.296  28.800  0.00  0.00    +0.236 C 
BRANCH  32  33
ATOM     33  O   LIG    1      -33.738  71.284  29.619  0.00  0.00    -0.491 OA
ATOM     34  H   LIG    1      -33.964  71.447  30.540  0.00  0.00    +0.294 HD
ENDBRANCH  32  33
BRANCH  31  35
ATOM     35  C   LIG    1      -35.846  71.082  27.724  0.00  0.00    +0.202 C 
BRANCH  35  38
ATOM     36  C   LIG    1      -37.599  70.364  25.214  0.00  0.00    +0.174 C 
ATOM     37  N   LIG    1      -36.210  70.055  25.435  0.00  0.00    -0.250 N 
ATOM     38  C   LIG    1      -35.414  70.349  26.513  0.00  0.00    +0.080 A 
ATOM     39  C   LIG    1      -34.191  69.823  26.151  0.00  0.00    +0.161 A 
ATOM     40  N   LIG    1      -34.283  69.234  24.925  0.00  0.00    -0.138 NA
ATOM     41  N   LIG    1      -35.526  69.381  24.493  0.00  0.00    -0.066 NA
ENDBRANCH  35  38
ENDBRANCH  31  35
ENDBRANCH   1  32
TORSDOF 8
ENDMDL
MODEL 8
REMARK VINA RESULT:      -6.4      5.057      8.940
REMARK  Name = pdb/CHEMBL3922194.pdb
REMARK                            x       y       z     vdW  Elec       q    Type
REMARK                         _______ _______ _______ _____ _____    ______ ____
ROOT
ATOM      1  C   LIG    1      -37.903  76.433  25.743  0.00  0.00    +0.149 A 
ATOM      2  N   LIG    1      -38.707  75.405  25.451  0.00  0.00    -0.160 NA
ATOM      3  N   LIG    1      -39.625  75.889  24.580  0.00  0.00    -0.218 N 
ATOM      4  C   LIG    1      -39.509  77.280  24.444  0.00  0.00    +0.129 A 
ATOM      5  C   LIG    1      -38.370  77.617  25.132  0.00  0.00    +0.078 A 
ENDROOT
BRANCH   3   6
ATOM      6  C   LIG    1      -40.559  74.981  24.010  0.00  0.00    +0.067 A 
ATOM      7  C   LIG    1      -41.782  75.401  23.482  0.00  0.00    +0.028 A 
ATOM      8  C   LIG    1      -42.658  74.464  22.922  0.00  0.00    +0.002 A 
ATOM      9  C   LIG    1      -42.316  73.111  22.883  0.00  0.00    +0.000 A 
ATOM     10  C   LIG    1      -41.089  72.691  23.384  0.00  0.00    +0.002 A 
ATOM     11  C   LIG    1      -40.208  73.621  23.932  0.00  0.00    +0.028 A 
ENDBRANCH   3   6
BRANCH   4  12
ATOM     12  N   LIG    1      -40.412  78.166  23.821  0.00  0.00    -0.266 N 
ATOM     13  H   LIG    1      -40.434  78.186  22.813  0.00  0.00    +0.157 HD
ATOM     14  C   LIG    1      -41.358  78.981  24.546  0.00  0.00    +0.251 C 
ATOM     15  O   LIG    1      -41.422  78.932  25.773  0.00  0.00    -0.270 OA
BRANCH  14  16
ATOM     16  C   LIG    1      -42.311  79.832  23.804  0.00  0.00    +0.056 A 
ATOM     17  C   LIG    1      -43.641  79.491  23.588  0.00  0.00    +0.054 A 
ATOM     18 CL   LIG    1      -44.331  77.989  24.070  0.00  0.00    -0.083 Cl
ATOM     19  C   LIG    1      -44.480  80.382  22.921  0.00  0.00    +0.041 A 
ATOM     20  C   LIG    1      -43.997  81.606  22.430  0.00  0.00    +0.052 A 
ATOM     21 CL   LIG    1      -45.222  82.683  21.848  0.00  0.00    -0.083 Cl
ATOM     22  C   LIG    1      -42.631  81.937  22.511  0.00  0.00    +0.022 A 
ATOM     23  C   LIG    1      -41.818  81.037  23.250  0.00  0.00    +0.026 A 
BRANCH  22  24
ATOM     24  C   LIG    1      -42.003  83.141  21.900  0.00  0.00    +0.107 A 
ATOM     25  C   LIG    1      -42.021  83.436  20.533  0.00  0.00    +0.149 A 
ATOM     26  F   LIG    1      -42.525  82.584  19.631  0.00  0.00    -0.203 F 
ATOM     27  C   LIG    1      -41.451  84.613  20.060  0.00  0.00    +0.042 A 
ATOM     28  C   LIG    1      -40.789  85.448  20.947  0.00  0.00    +0.023 A 
ATOM     29  C   LIG    1      -40.729  85.061  22.274  0.00  0.00    +0.111 A 
ATOM     30  N   LIG    1      -41.328  83.947  22.771  0.00  0.00    -0.252 NA
ENDBRANCH  22  24
ENDBRANCH  14  16
ENDBRANCH   4  12
BRANCH   1  32
ATOM     31  N   LIG    1      -36.244  77.325  27.183  0.00  0.00    -0.243 NA
ATOM     32  C   LIG    1      -36.741  76.288  26.617  0.00  0.00    +0.236 C 
BRANCH  32  33
ATOM     33  O   LIG    1      -36.298  75.022  26.756  0.00  0.00    -0.491 OA
ATOM     34  H   LIG    1      -36.752  74.537  27.452  0.00  0.00    +0.294 HD
ENDBRANCH  32  33
BRANCH  31  35
ATOM     35  C   LIG    1      -35.083  77.241  28.052  0.00  0.00    +0.202 C 
BRANCH  35  38
ATOM     36  C   LIG    1      -34.128  80.213  27.673  0.00  0.00    +0.174 C 
ATOM     37  N   LIG    1      -33.487  79.015  27.196  0.00  0.00    -0.250 N 
ATOM     38  C   LIG    1      -33.873  77.706  27.339  0.00  0.00    +0.080 A 
ATOM     39  C   LIG    1      -32.868  77.013  26.696  0.00  0.00    +0.161 A 
ATOM     40  N   LIG    1      -31.954  77.886  26.186  0.00  0.00    -0.138 NA
ATOM     41  N   LIG    1      -32.342  79.112  26.498  0.00  0.00    -0.066 NA
ENDBRANCH  35  38
ENDBRANCH  31  35
ENDBRANCH   1  32
TORSDOF 8
ENDMDL
MODEL 9
REMARK VINA RESULT:      -6.4      5.164      8.486
REMARK  Name = pdb/CHEMBL3922194.pdb
REMARK                            x       y       z     vdW  Elec       q    Type
REMARK                         _______ _______ _______ _____ _____    ______ ____
ROOT
ATOM      1  C   LIG    1      -37.952  76.754  25.707  0.00  0.00    +0.149 A 
ATOM      2  N   LIG    1      -38.363  77.986  25.387  0.00  0.00    -0.160 NA
ATOM      3  N   LIG    1      -39.491  77.819  24.654  0.00  0.00    -0.218 N 
ATOM      4  C   LIG    1      -39.710  76.466  24.362  0.00  0.00    +0.129 A 
ATOM      5  C   LIG    1      -38.767  75.781  25.089  0.00  0.00    +0.078 A 
ENDROOT
BRANCH   3   6
ATOM      6  C   LIG    1      -40.216  78.977  24.259  0.00  0.00    +0.067 A 
ATOM      7  C   LIG    1      -41.555  79.174  24.604  0.00  0.00    +0.028 A 
ATOM      8  C   LIG    1      -42.216  80.339  24.198  0.00  0.00    +0.002 A 
ATOM      9  C   LIG    1      -41.544  81.310  23.454  0.00  0.00    +0.000 A 
ATOM     10  C   LIG    1      -40.203  81.132  23.130  0.00  0.00    +0.002 A 
ATOM     11  C   LIG    1      -39.537  79.979  23.542  0.00  0.00    +0.028 A 
ENDBRANCH   3   6
BRANCH   4  12
ATOM     12  N   LIG    1      -40.630  75.916  23.446  0.00  0.00    -0.266 N 
ATOM     13  H   LIG    1      -40.303  75.714  22.513  0.00  0.00    +0.157 HD
ATOM     14  C   LIG    1      -41.983  75.553  23.794  0.00  0.00    +0.251 C 
ATOM     15  O   LIG    1      -42.401  75.706  24.940  0.00  0.00    -0.270 OA
BRANCH  14  16
ATOM     16  C   LIG    1      -42.855  74.920  22.782  0.00  0.00    +0.056 A 
ATOM     17  C   LIG    1      -43.824  75.609  22.063  0.00  0.00    +0.054 A 
ATOM     18 CL   LIG    1      -44.205  77.268  22.321  0.00  0.00    -0.083 Cl
ATOM     19  C   LIG    1      -44.565  74.939  21.090  0.00  0.00    +0.041 A 
ATOM     20  C   LIG    1      -44.375  73.569  20.848  0.00  0.00    +0.052 A 
ATOM     21 CL   LIG    1      -45.201  72.962  19.453  0.00  0.00    -0.083 Cl
ATOM     22  C   LIG    1      -43.498  72.803  21.639  0.00  0.00    +0.022 A 
ATOM     23  C   LIG    1      -42.716  73.527  22.578  0.00  0.00    +0.026 A 
BRANCH  22  24
ATOM     24  C   LIG    1      -43.333  71.325  21.551  0.00  0.00    +0.107 A 
ATOM     25  C   LIG    1      -44.310  70.396  21.925  0.00  0.00    +0.149 A 
ATOM     26  F   LIG    1      -45.458  70.769  22.505  0.00  0.00    -0.203 F 
ATOM     27  C   LIG    1      -44.084  69.034  21.758  0.00  0.00    +0.042 A 
ATOM     28  C   LIG    1      -42.849  68.604  21.300  0.00  0.00    +0.023 A 
ATOM     29  C   LIG    1      -41.891  69.565  21.028  0.00  0.00    +0.111 A 
ATOM     30  N   LIG    1      -42.107  70.903  21.126  0.00  0.00    -0.252 NA
ENDBRANCH  22  24
ENDBRANCH  14  16
ENDBRANCH   4  12
BRANCH   1  32
ATOM     31  N   LIG    1      -36.294  77.489  27.235  0.00  0.00    -0.243 NA
ATOM     32  C   LIG    1      -36.784  76.520  26.552  0.00  0.00    +0.236 C 
BRANCH  32  33
ATOM     33  O   LIG    1      -36.325  75.252  26.540  0.00  0.00    -0.491 OA
ATOM     34  H   LIG    1      -36.262  74.865  27.418  0.00  0.00    +0.294 HD
ENDBRANCH  32  33
BRANCH  31  35
ATOM     35  C   LIG    1      -35.128  77.317  28.083  0.00  0.00    +0.202 C 
BRANCH  35  38
ATOM     36  C   LIG    1      -34.097  80.260  27.677  0.00  0.00    +0.174 C 
ATOM     37  N   LIG    1      -33.486  79.041  27.213  0.00  0.00    -0.250 N 
ATOM     38  C   LIG    1      -33.905  77.744  27.368  0.00  0.00    +0.080 A 
ATOM     39  C   LIG    1      -32.917  77.019  26.734  0.00  0.00    +0.161 A 
ATOM     40  N   LIG    1      -31.980  77.863  26.218  0.00  0.00    -0.138 NA
ATOM     41  N   LIG    1      -32.337  79.103  26.517  0.00  0.00    -0.066 NA
ENDBRANCH  35  38
ENDBRANCH  31  35
ENDBRANCH   1  32
TORSDOF 8
ENDMDL
