MODEL 1
REMARK VINA RESULT:      -7.3      0.000      0.000
REMARK  Name = pdb/CHEMBL3963962.pdb
REMARK                            x       y       z     vdW  Elec       q    Type
REMARK                         _______ _______ _______ _____ _____    ______ ____
ROOT
ATOM      1  C   LIG    1      -35.812  71.707  26.765  0.00  0.00    +0.149 A 
ATOM      2  N   LIG    1      -36.766  72.589  26.422  0.00  0.00    -0.160 NA
ATOM      3  N   LIG    1      -37.387  72.033  25.338  0.00  0.00    -0.218 N 
ATOM      4  C   LIG    1      -36.661  70.929  24.852  0.00  0.00    +0.129 A 
ATOM      5  C   LIG    1      -35.713  70.668  25.817  0.00  0.00    +0.078 A 
ENDROOT
BRANCH   3   6
ATOM      6  C   LIG    1      -38.570  72.648  24.816  0.00  0.00    +0.067 A 
ATOM      7  C   LIG    1      -38.681  74.049  24.835  0.00  0.00    +0.028 A 
ATOM      8  C   LIG    1      -39.809  74.685  24.302  0.00  0.00    +0.002 A 
ATOM      9  C   LIG    1      -40.842  73.931  23.756  0.00  0.00    +0.000 A 
ATOM     10  C   LIG    1      -40.762  72.540  23.769  0.00  0.00    +0.002 A 
ATOM     11  C   LIG    1      -39.640  71.897  24.315  0.00  0.00    +0.028 A 
ENDBRANCH   3   6
BRANCH   4  12
ATOM     12  N   LIG    1      -36.793  70.281  23.612  0.00  0.00    -0.266 N 
ATOM     13  H   LIG    1      -36.352  70.723  22.813  0.00  0.00    +0.157 HD
ATOM     14  C   LIG    1      -37.414  68.992  23.416  0.00  0.00    +0.251 C 
ATOM     15  O   LIG    1      -37.878  68.381  24.379  0.00  0.00    -0.270 OA
BRANCH  14  16
ATOM     16  C   LIG    1      -37.479  68.397  22.045  0.00  0.00    +0.056 A 
ATOM     17  C   LIG    1      -38.539  68.543  21.154  0.00  0.00    +0.054 A 
ATOM     18 CL   LIG    1      -39.981  69.429  21.479  0.00  0.00    -0.083 Cl
ATOM     19  C   LIG    1      -38.475  67.959  19.887  0.00  0.00    +0.041 A 
ATOM     20  C   LIG    1      -37.365  67.210  19.478  0.00  0.00    +0.052 A 
ATOM     21 CL   LIG    1      -37.490  66.575  17.873  0.00  0.00    -0.083 Cl
ATOM     22  C   LIG    1      -36.280  66.998  20.346  0.00  0.00    +0.019 A 
ATOM     23  C   LIG    1      -36.369  67.619  21.625  0.00  0.00    +0.026 A 
BRANCH  22  24
ATOM     24  C   LIG    1      -35.098  66.143  20.049  0.00  0.00    +0.072 A 
ATOM     25  N   LIG    1      -35.400  64.860  19.714  0.00  0.00    -0.255 NA
ATOM     26  C   LIG    1      -34.385  64.025  19.385  0.00  0.00    +0.111 A 
ATOM     27  C   LIG    1      -33.055  64.399  19.369  0.00  0.00    +0.020 A 
ATOM     28  C   LIG    1      -32.746  65.698  19.734  0.00  0.00    +0.004 A 
ATOM     29  C   LIG    1      -33.772  66.572  20.091  0.00  0.00    +0.028 A 
ENDBRANCH  22  24
ENDBRANCH  14  16
ENDBRANCH   4  12
BRANCH   1  30
ATOM     30  C   LIG    1      -34.958  71.926  27.932  0.00  0.00    +0.236 C 
ATOM     31  N   LIG    1      -34.186  72.948  28.000  0.00  0.00    -0.248 NA
BRANCH  30  32
ATOM     32  O   LIG    1      -35.075  70.995  28.906  0.00  0.00    -0.491 OA
ATOM     33  H   LIG    1      -34.845  70.120  28.545  0.00  0.00    +0.294 HD
ENDBRANCH  30  32
BRANCH  31  34
ATOM     34  C   LIG    1      -33.346  73.085  29.192  0.00  0.00    +0.162 C 
BRANCH  34  35
ATOM     35  C   LIG    1      -32.743  74.465  29.213  0.00  0.00    +0.052 C 
ATOM     36  C   LIG    1      -33.423  75.503  28.436  0.00  0.00    +0.028 C 
ATOM     37  C   LIG    1      -32.890  76.732  28.357  0.00  0.00    +0.184 C 
ATOM     38  N   LIG    1      -31.729  77.042  29.013  0.00  0.00    -0.210 N 
ATOM     39  H   LIG    1      -31.360  77.983  28.974  0.00  0.00    +0.298 HD
ATOM     40  C   LIG    1      -31.095  76.150  29.836  0.00  0.00    +0.295 C 
ATOM     41  C   LIG    1      -31.634  74.756  29.929  0.00  0.00    +0.083 C 
BRANCH  40  42
ATOM     42  N   LIG    1      -30.056  76.525  30.512  0.00  0.00    -0.071 NA
ATOM     43  H   LIG    1      -29.250  75.939  30.280  0.00  0.00    +0.348 HD
ENDBRANCH  40  42
ENDBRANCH  34  35
ENDBRANCH  31  34
ENDBRANCH   1  30
TORSDOF 9
ENDMDL
MODEL 2
REMARK VINA RESULT:      -7.2      5.252      8.902
REMARK  Name = pdb/CHEMBL3963962.pdb
REMARK                            x       y       z     vdW  Elec       q    Type
REMARK                         _______ _______ _______ _____ _____    ______ ____
ROOT
ATOM      1  C   LIG    1      -29.841  75.737  31.022  0.00  0.00    +0.149 A 
ATOM      2  N   LIG    1      -30.693  76.201  30.093  0.00  0.00    -0.160 NA
ATOM      3  N   LIG    1      -31.626  75.211  29.944  0.00  0.00    -0.218 N 
ATOM      4  C   LIG    1      -31.216  74.030  30.593  0.00  0.00    +0.129 A 
ATOM      5  C   LIG    1      -30.128  74.397  31.355  0.00  0.00    +0.078 A 
ENDROOT
BRANCH   3   6
ATOM      6  C   LIG    1      -32.781  75.452  29.135  0.00  0.00    +0.067 A 
ATOM      7  C   LIG    1      -32.703  76.386  28.087  0.00  0.00    +0.028 A 
ATOM      8  C   LIG    1      -33.804  76.622  27.255  0.00  0.00    +0.002 A 
ATOM      9  C   LIG    1      -34.997  75.939  27.466  0.00  0.00    +0.000 A 
ATOM     10  C   LIG    1      -35.100  75.042  28.527  0.00  0.00    +0.002 A 
ATOM     11  C   LIG    1      -34.004  74.813  29.373  0.00  0.00    +0.028 A 
ENDBRANCH   3   6
BRANCH   4  12
ATOM     12  N   LIG    1      -31.728  72.731  30.437  0.00  0.00    -0.266 N 
ATOM     13  H   LIG    1      -32.667  72.563  30.779  0.00  0.00    +0.157 HD
ATOM     14  C   LIG    1      -31.059  71.659  29.738  0.00  0.00    +0.251 C 
ATOM     15  O   LIG    1      -29.957  71.852  29.226  0.00  0.00    -0.270 OA
BRANCH  14  16
ATOM     16  C   LIG    1      -31.717  70.320  29.624  0.00  0.00    +0.056 A 
ATOM     17  C   LIG    1      -31.434  69.214  30.422  0.00  0.00    +0.054 A 
ATOM     18 CL   LIG    1      -30.258  69.186  31.681  0.00  0.00    -0.083 Cl
ATOM     19  C   LIG    1      -32.133  68.020  30.238  0.00  0.00    +0.041 A 
ATOM     20  C   LIG    1      -33.121  67.890  29.255  0.00  0.00    +0.052 A 
ATOM     21 CL   LIG    1      -33.863  66.328  29.195  0.00  0.00    -0.083 Cl
ATOM     22  C   LIG    1      -33.427  68.960  28.395  0.00  0.00    +0.019 A 
ATOM     23  C   LIG    1      -32.707  70.169  28.618  0.00  0.00    +0.026 A 
BRANCH  22  24
ATOM     24  C   LIG    1      -34.387  68.901  27.260  0.00  0.00    +0.072 A 
ATOM     25  N   LIG    1      -35.609  69.434  27.527  0.00  0.00    -0.255 NA
ATOM     26  C   LIG    1      -36.530  69.461  26.534  0.00  0.00    +0.111 A 
ATOM     27  C   LIG    1      -36.303  68.977  25.260  0.00  0.00    +0.020 A 
ATOM     28  C   LIG    1      -35.067  68.412  24.995  0.00  0.00    +0.004 A 
ATOM     29  C   LIG    1      -34.108  68.360  26.005  0.00  0.00    +0.028 A 
ENDBRANCH  22  24
ENDBRANCH  14  16
ENDBRANCH   4  12
BRANCH   1  30
ATOM     30  C   LIG    1      -28.720  76.548  31.498  0.00  0.00    +0.236 C 
ATOM     31  N   LIG    1      -27.679  75.997  32.005  0.00  0.00    -0.248 NA
BRANCH  30  32
ATOM     32  O   LIG    1      -28.872  77.882  31.335  0.00  0.00    -0.491 OA
ATOM     33  H   LIG    1      -29.104  78.069  30.407  0.00  0.00    +0.294 HD
ENDBRANCH  30  32
BRANCH  31  34
ATOM     34  C   LIG    1      -26.609  76.879  32.478  0.00  0.00    +0.162 C 
BRANCH  34  35
ATOM     35  C   LIG    1      -25.387  76.673  31.622  0.00  0.00    +0.052 C 
ATOM     36  C   LIG    1      -24.670  75.405  31.777  0.00  0.00    +0.028 C 
ATOM     37  C   LIG    1      -23.532  75.197  31.095  0.00  0.00    +0.184 C 
ATOM     38  N   LIG    1      -23.039  76.142  30.236  0.00  0.00    -0.210 N 
ATOM     39  H   LIG    1      -22.202  75.954  29.702  0.00  0.00    +0.298 HD
ATOM     40  C   LIG    1      -23.710  77.305  29.969  0.00  0.00    +0.295 C 
ATOM     41  C   LIG    1      -24.966  77.598  30.731  0.00  0.00    +0.083 C 
BRANCH  40  42
ATOM     42  N   LIG    1      -23.252  78.121  29.073  0.00  0.00    -0.071 NA
ATOM     43  H   LIG    1      -22.229  78.109  29.071  0.00  0.00    +0.348 HD
ENDBRANCH  40  42
ENDBRANCH  34  35
ENDBRANCH  31  34
ENDBRANCH   1  30
TORSDOF 9
ENDMDL
MODEL 3
REMARK VINA RESULT:      -7.2      6.462     10.433
REMARK  Name = pdb/CHEMBL3963962.pdb
REMARK                            x       y       z     vdW  Elec       q    Type
REMARK                         _______ _______ _______ _____ _____    ______ ____
ROOT
ATOM      1  C   LIG    1      -39.964  78.369  24.427  0.00  0.00    +0.149 A 
ATOM      2  N   LIG    1      -40.142  77.113  23.983  0.00  0.00    -0.160 NA
ATOM      3  N   LIG    1      -39.231  76.362  24.674  0.00  0.00    -0.218 N 
ATOM      4  C   LIG    1      -38.319  77.184  25.363  0.00  0.00    +0.129 A 
ATOM      5  C   LIG    1      -38.844  78.455  25.280  0.00  0.00    +0.078 A 
ENDROOT
BRANCH   3   6
ATOM      6  C   LIG    1      -39.264  74.936  24.555  0.00  0.00    +0.067 A 
ATOM      7  C   LIG    1      -40.395  74.320  23.992  0.00  0.00    +0.028 A 
ATOM      8  C   LIG    1      -40.446  72.930  23.829  0.00  0.00    +0.002 A 
ATOM      9  C   LIG    1      -39.376  72.140  24.235  0.00  0.00    +0.000 A 
ATOM     10  C   LIG    1      -38.266  72.736  24.833  0.00  0.00    +0.002 A 
ATOM     11  C   LIG    1      -38.216  74.126  25.012  0.00  0.00    +0.028 A 
ENDBRANCH   3   6
BRANCH   4  12
ATOM     12  N   LIG    1      -37.086  76.824  25.933  0.00  0.00    -0.266 N 
ATOM     13  H   LIG    1      -36.288  76.772  25.309  0.00  0.00    +0.157 HD
ATOM     14  C   LIG    1      -36.855  76.630  27.345  0.00  0.00    +0.251 C 
ATOM     15  O   LIG    1      -37.779  76.778  28.145  0.00  0.00    -0.270 OA
BRANCH  14  16
ATOM     16  C   LIG    1      -35.489  76.264  27.833  0.00  0.00    +0.056 A 
ATOM     17  C   LIG    1      -34.474  77.168  28.137  0.00  0.00    +0.054 A 
ATOM     18 CL   LIG    1      -34.608  78.880  27.992  0.00  0.00    -0.083 Cl
ATOM     19  C   LIG    1      -33.244  76.708  28.609  0.00  0.00    +0.041 A 
ATOM     20  C   LIG    1      -32.986  75.342  28.781  0.00  0.00    +0.052 A 
ATOM     21 CL   LIG    1      -31.400  74.988  29.375  0.00  0.00    -0.083 Cl
ATOM     22  C   LIG    1      -33.958  74.380  28.458  0.00  0.00    +0.019 A 
ATOM     23  C   LIG    1      -35.208  74.882  27.993  0.00  0.00    +0.026 A 
BRANCH  22  24
ATOM     24  C   LIG    1      -33.758  72.906  28.512  0.00  0.00    +0.072 A 
ATOM     25  N   LIG    1      -34.504  72.203  27.619  0.00  0.00    -0.255 NA
ATOM     26  C   LIG    1      -34.350  70.857  27.571  0.00  0.00    +0.111 A 
ATOM     27  C   LIG    1      -33.477  70.152  28.378  0.00  0.00    +0.020 A 
ATOM     28  C   LIG    1      -32.736  70.866  29.303  0.00  0.00    +0.004 A 
ATOM     29  C   LIG    1      -32.887  72.250  29.382  0.00  0.00    +0.028 A 
ENDBRANCH  22  24
ENDBRANCH  14  16
ENDBRANCH   4  12
BRANCH   1  30
ATOM     30  C   LIG    1      -40.806  79.468  23.956  0.00  0.00    +0.236 C 
ATOM     31  N   LIG    1      -40.296  80.609  23.667  0.00  0.00    -0.248 NA
BRANCH  30  32
ATOM     32  O   LIG    1      -42.119  79.169  23.834  0.00  0.00    -0.491 OA
ATOM     33  H   LIG    1      -42.293  78.842  22.933  0.00  0.00    +0.294 HD
ENDBRANCH  30  32
BRANCH  31  34
ATOM     34  C   LIG    1      -41.208  81.665  23.222  0.00  0.00    +0.162 C 
BRANCH  34  35
ATOM     35  C   LIG    1      -40.404  82.798  22.640  0.00  0.00    +0.052 C 
ATOM     36  C   LIG    1      -39.226  83.235  23.393  0.00  0.00    +0.028 C 
ATOM     37  C   LIG    1      -38.514  84.288  22.961  0.00  0.00    +0.184 C 
ATOM     38  N   LIG    1      -38.855  84.949  21.812  0.00  0.00    -0.210 N 
ATOM     39  H   LIG    1      -38.286  85.717  21.480  0.00  0.00    +0.298 HD
ATOM     40  C   LIG    1      -39.883  84.532  21.008  0.00  0.00    +0.295 C 
ATOM     41  C   LIG    1      -40.727  83.383  21.465  0.00  0.00    +0.083 C 
BRANCH  40  42
ATOM     42  N   LIG    1      -40.101  85.131  19.880  0.00  0.00    -0.071 NA
ATOM     43  H   LIG    1      -40.614  84.516  19.244  0.00  0.00    +0.348 HD
ENDBRANCH  40  42
ENDBRANCH  34  35
ENDBRANCH  31  34
ENDBRANCH   1  30
TORSDOF 9
ENDMDL
MODEL 4
REMARK VINA RESULT:      -7.1      5.915      8.925
REMARK  Name = pdb/CHEMBL3963962.pdb
REMARK                            x       y       z     vdW  Elec       q    Type
REMARK                         _______ _______ _______ _____ _____    ______ ____
ROOT
ATOM      1  C   LIG    1      -31.715  74.407  29.754  0.00  0.00    +0.149 A 
ATOM      2  N   LIG    1      -31.621  75.681  29.339  0.00  0.00    -0.160 NA
ATOM      3  N   LIG    1      -32.788  75.920  28.666  0.00  0.00    -0.218 N 
ATOM      4  C   LIG    1      -33.497  74.723  28.446  0.00  0.00    +0.129 A 
ATOM      5  C   LIG    1      -32.859  73.779  29.220  0.00  0.00    +0.078 A 
ENDROOT
BRANCH   3   6
ATOM      6  C   LIG    1      -33.084  77.250  28.227  0.00  0.00    +0.067 A 
ATOM      7  C   LIG    1      -34.135  77.957  28.836  0.00  0.00    +0.028 A 
ATOM      8  C   LIG    1      -34.429  79.271  28.453  0.00  0.00    +0.002 A 
ATOM      9  C   LIG    1      -33.687  79.890  27.453  0.00  0.00    +0.000 A 
ATOM     10  C   LIG    1      -32.670  79.184  26.813  0.00  0.00    +0.002 A 
ATOM     11  C   LIG    1      -32.380  77.862  27.182  0.00  0.00    +0.028 A 
ENDBRANCH   3   6
BRANCH   4  12
ATOM     12  N   LIG    1      -34.563  74.497  27.560  0.00  0.00    -0.266 N 
ATOM     13  H   LIG    1      -34.327  74.180  26.627  0.00  0.00    +0.157 HD
ATOM     14  C   LIG    1      -35.961  74.583  27.912  0.00  0.00    +0.251 C 
ATOM     15  O   LIG    1      -36.289  74.874  29.062  0.00  0.00    -0.270 OA
BRANCH  14  16
ATOM     16  C   LIG    1      -37.007  74.302  26.881  0.00  0.00    +0.056 A 
ATOM     17  C   LIG    1      -37.329  73.041  26.384  0.00  0.00    +0.054 A 
ATOM     18 CL   LIG    1      -36.566  71.572  26.863  0.00  0.00    -0.083 Cl
ATOM     19  C   LIG    1      -38.345  72.899  25.437  0.00  0.00    +0.041 A 
ATOM     20  C   LIG    1      -39.058  74.002  24.953  0.00  0.00    +0.052 A 
ATOM     21 CL   LIG    1      -40.273  73.606  23.785  0.00  0.00    -0.083 Cl
ATOM     22  C   LIG    1      -38.755  75.304  25.389  0.00  0.00    +0.019 A 
ATOM     23  C   LIG    1      -37.724  75.414  26.366  0.00  0.00    +0.026 A 
BRANCH  22  24
ATOM     24  C   LIG    1      -39.382  76.550  24.871  0.00  0.00    +0.072 A 
ATOM     25  N   LIG    1      -40.620  76.808  25.372  0.00  0.00    -0.255 NA
ATOM     26  C   LIG    1      -41.245  77.947  24.987  0.00  0.00    +0.111 A 
ATOM     27  C   LIG    1      -40.700  78.866  24.112  0.00  0.00    +0.020 A 
ATOM     28  C   LIG    1      -39.450  78.592  23.584  0.00  0.00    +0.004 A 
ATOM     29  C   LIG    1      -38.793  77.419  23.953  0.00  0.00    +0.028 A 
ENDBRANCH  22  24
ENDBRANCH  14  16
ENDBRANCH   4  12
BRANCH   1  30
ATOM     30  C   LIG    1      -30.666  73.794  30.569  0.00  0.00    +0.236 C 
ATOM     31  N   LIG    1      -30.227  74.377  31.623  0.00  0.00    -0.248 NA
BRANCH  30  32
ATOM     32  O   LIG    1      -30.238  72.587  30.133  0.00  0.00    -0.491 OA
ATOM     33  H   LIG    1      -29.700  72.707  29.329  0.00  0.00    +0.294 HD
ENDBRANCH  30  32
BRANCH  31  34
ATOM     34  C   LIG    1      -29.161  73.708  32.373  0.00  0.00    +0.162 C 
BRANCH  34  35
ATOM     35  C   LIG    1      -27.846  74.373  32.060  0.00  0.00    +0.052 C 
ATOM     36  C   LIG    1      -26.682  73.500  31.889  0.00  0.00    +0.028 C 
ATOM     37  C   LIG    1      -25.471  74.040  31.683  0.00  0.00    +0.184 C 
ATOM     38  N   LIG    1      -25.305  75.397  31.604  0.00  0.00    -0.210 N 
ATOM     39  H   LIG    1      -24.393  75.786  31.411  0.00  0.00    +0.298 HD
ATOM     40  C   LIG    1      -26.364  76.265  31.655  0.00  0.00    +0.295 C 
ATOM     41  C   LIG    1      -27.731  75.711  31.918  0.00  0.00    +0.083 C 
BRANCH  40  42
ATOM     42  N   LIG    1      -26.165  77.532  31.475  0.00  0.00    -0.071 NA
ATOM     43  H   LIG    1      -25.253  77.691  31.039  0.00  0.00    +0.348 HD
ENDBRANCH  40  42
ENDBRANCH  34  35
ENDBRANCH  31  34
ENDBRANCH   1  30
TORSDOF 9
ENDMDL
MODEL 5
REMARK VINA RESULT:      -6.9     17.250     19.054
REMARK  Name = pdb/CHEMBL3963962.pdb
REMARK                            x       y       z     vdW  Elec       q    Type
REMARK                         _______ _______ _______ _____ _____    ______ ____
ROOT
ATOM      1  C   LIG    1      -22.975  81.541  15.321  0.00  0.00    +0.149 A 
ATOM      2  N   LIG    1      -22.340  80.438  15.751  0.00  0.00    -0.160 NA
ATOM      3  N   LIG    1      -22.842  79.420  14.986  0.00  0.00    -0.218 N 
ATOM      4  C   LIG    1      -23.967  79.848  14.255  0.00  0.00    +0.129 A 
ATOM      5  C   LIG    1      -23.991  81.218  14.397  0.00  0.00    +0.078 A 
ENDROOT
BRANCH   3   6
ATOM      6  C   LIG    1      -22.256  78.118  15.080  0.00  0.00    +0.067 A 
ATOM      7  C   LIG    1      -23.076  77.016  15.378  0.00  0.00    +0.028 A 
ATOM      8  C   LIG    1      -22.541  75.723  15.444  0.00  0.00    +0.002 A 
ATOM      9  C   LIG    1      -21.183  75.518  15.226  0.00  0.00    +0.000 A 
ATOM     10  C   LIG    1      -20.353  76.609  14.971  0.00  0.00    +0.002 A 
ATOM     11  C   LIG    1      -20.881  77.907  14.918  0.00  0.00    +0.028 A 
ENDBRANCH   3   6
BRANCH   4  12
ATOM     12  N   LIG    1      -24.926  79.058  13.598  0.00  0.00    -0.266 N 
ATOM     13  H   LIG    1      -24.787  78.896  12.607  0.00  0.00    +0.157 HD
ATOM     14  C   LIG    1      -26.025  78.383  14.248  0.00  0.00    +0.251 C 
ATOM     15  O   LIG    1      -26.172  78.480  15.466  0.00  0.00    -0.270 OA
BRANCH  14  16
ATOM     16  C   LIG    1      -26.973  77.555  13.439  0.00  0.00    +0.056 A 
ATOM     17  C   LIG    1      -26.948  76.166  13.345  0.00  0.00    +0.054 A 
ATOM     18 CL   LIG    1      -25.807  75.148  14.137  0.00  0.00    -0.083 Cl
ATOM     19  C   LIG    1      -27.904  75.499  12.576  0.00  0.00    +0.041 A 
ATOM     20  C   LIG    1      -28.897  76.192  11.874  0.00  0.00    +0.052 A 
ATOM     21 CL   LIG    1      -29.978  75.175  10.983  0.00  0.00    -0.083 Cl
ATOM     22  C   LIG    1      -28.952  77.596  11.902  0.00  0.00    +0.019 A 
ATOM     23  C   LIG    1      -27.973  78.247  12.707  0.00  0.00    +0.026 A 
BRANCH  22  24
ATOM     24  C   LIG    1      -29.903  78.433  11.121  0.00  0.00    +0.072 A 
ATOM     25  N   LIG    1      -30.847  79.062  11.871  0.00  0.00    -0.255 NA
ATOM     26  C   LIG    1      -31.727  79.880  11.244  0.00  0.00    +0.111 A 
ATOM     27  C   LIG    1      -31.725  80.115   9.882  0.00  0.00    +0.020 A 
ATOM     28  C   LIG    1      -30.779  79.455   9.116  0.00  0.00    +0.004 A 
ATOM     29  C   LIG    1      -29.872  78.597   9.736  0.00  0.00    +0.028 A 
ENDBRANCH  22  24
ENDBRANCH  14  16
ENDBRANCH   4  12
BRANCH   1  30
ATOM     30  C   LIG    1      -22.662  82.860  15.868  0.00  0.00    +0.236 C 
ATOM     31  N   LIG    1      -22.781  83.916  15.150  0.00  0.00    -0.248 NA
BRANCH  30  32
ATOM     32  O   LIG    1      -22.273  82.862  17.163  0.00  0.00    -0.491 OA
ATOM     33  H   LIG    1      -21.440  82.363  17.251  0.00  0.00    +0.294 HD
ENDBRANCH  30  32
BRANCH  31  34
ATOM     34  C   LIG    1      -22.428  85.198  15.764  0.00  0.00    +0.162 C 
BRANCH  34  35
ATOM     35  C   LIG    1      -22.310  86.245  14.688  0.00  0.00    +0.052 C 
ATOM     36  C   LIG    1      -23.130  86.062  13.487  0.00  0.00    +0.028 C 
ATOM     37  C   LIG    1      -23.011  86.922  12.464  0.00  0.00    +0.184 C 
ATOM     38  N   LIG    1      -22.152  87.986  12.530  0.00  0.00    -0.210 N 
ATOM     39  H   LIG    1      -22.102  88.647  11.766  0.00  0.00    +0.298 HD
ATOM     40  C   LIG    1      -21.432  88.272  13.659  0.00  0.00    +0.295 C 
ATOM     41  C   LIG    1      -21.505  87.322  14.815  0.00  0.00    +0.083 C 
BRANCH  40  42
ATOM     42  N   LIG    1      -20.710  89.348  13.707  0.00  0.00    -0.071 NA
ATOM     43  H   LIG    1      -20.296  89.539  12.791  0.00  0.00    +0.348 HD
ENDBRANCH  40  42
ENDBRANCH  34  35
ENDBRANCH  31  34
ENDBRANCH   1  30
TORSDOF 9
ENDMDL
MODEL 6
REMARK VINA RESULT:      -6.9     17.956     20.075
REMARK  Name = pdb/CHEMBL3963962.pdb
REMARK                            x       y       z     vdW  Elec       q    Type
REMARK                         _______ _______ _______ _____ _____    ______ ____
ROOT
ATOM      1  C   LIG    1      -22.160  82.556  15.684  0.00  0.00    +0.149 A 
ATOM      2  N   LIG    1      -20.932  82.063  15.915  0.00  0.00    -0.160 NA
ATOM      3  N   LIG    1      -21.018  80.735  15.596  0.00  0.00    -0.218 N 
ATOM      4  C   LIG    1      -22.359  80.349  15.407  0.00  0.00    +0.129 A 
ATOM      5  C   LIG    1      -23.073  81.527  15.371  0.00  0.00    +0.078 A 
ENDROOT
BRANCH   3   6
ATOM      6  C   LIG    1      -19.829  79.940  15.577  0.00  0.00    +0.067 A 
ATOM      7  C   LIG    1      -18.960  80.030  14.475  0.00  0.00    +0.028 A 
ATOM      8  C   LIG    1      -17.771  79.291  14.440  0.00  0.00    +0.002 A 
ATOM      9  C   LIG    1      -17.441  78.448  15.496  0.00  0.00    +0.000 A 
ATOM     10  C   LIG    1      -18.314  78.319  16.574  0.00  0.00    +0.002 A 
ATOM     11  C   LIG    1      -19.514  79.046  16.608  0.00  0.00    +0.028 A 
ENDBRANCH   3   6
BRANCH   4  12
ATOM     12  N   LIG    1      -22.889  79.048  15.362  0.00  0.00    -0.266 N 
ATOM     13  H   LIG    1      -23.496  78.772  16.125  0.00  0.00    +0.157 HD
ATOM     14  C   LIG    1      -22.718  78.125  14.264  0.00  0.00    +0.251 C 
ATOM     15  O   LIG    1      -22.065  78.460  13.275  0.00  0.00    -0.270 OA
BRANCH  14  16
ATOM     16  C   LIG    1      -23.348  76.770  14.326  0.00  0.00    +0.056 A 
ATOM     17  C   LIG    1      -24.450  76.360  13.580  0.00  0.00    +0.054 A 
ATOM     18 CL   LIG    1      -25.298  77.352  12.455  0.00  0.00    -0.083 Cl
ATOM     19  C   LIG    1      -24.936  75.057  13.705  0.00  0.00    +0.041 A 
ATOM     20  C   LIG    1      -24.349  74.135  14.578  0.00  0.00    +0.052 A 
ATOM     21 CL   LIG    1      -25.106  72.578  14.581  0.00  0.00    -0.083 Cl
ATOM     22  C   LIG    1      -23.257  74.500  15.384  0.00  0.00    +0.019 A 
ATOM     23  C   LIG    1      -22.775  75.831  15.222  0.00  0.00    +0.026 A 
BRANCH  22  24
ATOM     24  C   LIG    1      -22.620  73.631  16.411  0.00  0.00    +0.072 A 
ATOM     25  N   LIG    1      -21.732  72.729  15.914  0.00  0.00    -0.255 NA
ATOM     26  C   LIG    1      -21.073  71.927  16.785  0.00  0.00    +0.111 A 
ATOM     27  C   LIG    1      -21.249  71.970  18.155  0.00  0.00    +0.020 A 
ATOM     28  C   LIG    1      -22.171  72.871  18.659  0.00  0.00    +0.004 A 
ATOM     29  C   LIG    1      -22.872  73.697  17.781  0.00  0.00    +0.028 A 
ENDBRANCH  22  24
ENDBRANCH  14  16
ENDBRANCH   4  12
BRANCH   1  30
ATOM     30  C   LIG    1      -22.454  83.978  15.859  0.00  0.00    +0.236 C 
ATOM     31  N   LIG    1      -22.311  84.803  14.888  0.00  0.00    -0.248 NA
BRANCH  30  32
ATOM     32  O   LIG    1      -22.896  84.321  17.090  0.00  0.00    -0.491 OA
ATOM     33  H   LIG    1      -22.475  85.157  17.363  0.00  0.00    +0.294 HD
ENDBRANCH  30  32
BRANCH  31  34
ATOM     34  C   LIG    1      -22.606  86.214  15.149  0.00  0.00    +0.162 C 
BRANCH  34  35
ATOM     35  C   LIG    1      -21.654  87.071  14.356  0.00  0.00    +0.052 C 
ATOM     36  C   LIG    1      -22.151  88.369  13.895  0.00  0.00    +0.028 C 
ATOM     37  C   LIG    1      -21.374  89.143  13.121  0.00  0.00    +0.184 C 
ATOM     38  N   LIG    1      -20.109  88.750  12.772  0.00  0.00    -0.210 N 
ATOM     39  H   LIG    1      -19.523  89.361  12.220  0.00  0.00    +0.298 HD
ATOM     40  C   LIG    1      -19.547  87.597  13.250  0.00  0.00    +0.295 C 
ATOM     41  C   LIG    1      -20.387  86.684  14.089  0.00  0.00    +0.083 C 
BRANCH  40  42
ATOM     42  N   LIG    1      -18.312  87.321  12.971  0.00  0.00    -0.071 NA
ATOM     43  H   LIG    1      -17.772  88.183  12.856  0.00  0.00    +0.348 HD
ENDBRANCH  40  42
ENDBRANCH  34  35
ENDBRANCH  31  34
ENDBRANCH   1  30
TORSDOF 9
ENDMDL
MODEL 7
REMARK VINA RESULT:      -6.9     15.999     17.667
REMARK  Name = pdb/CHEMBL3963962.pdb
REMARK                            x       y       z     vdW  Elec       q    Type
REMARK                         _______ _______ _______ _____ _____    ______ ____
ROOT
ATOM      1  C   LIG    1      -26.031  77.895  14.193  0.00  0.00    +0.149 A 
ATOM      2  N   LIG    1      -26.387  76.600  14.230  0.00  0.00    -0.160 NA
ATOM      3  N   LIG    1      -27.413  76.489  13.333  0.00  0.00    -0.218 N 
ATOM      4  C   LIG    1      -27.863  77.759  12.922  0.00  0.00    +0.129 A 
ATOM      5  C   LIG    1      -26.922  78.646  13.397  0.00  0.00    +0.078 A 
ENDROOT
BRANCH   3   6
ATOM      6  C   LIG    1      -27.923  75.192  13.008  0.00  0.00    +0.067 A 
ATOM      7  C   LIG    1      -27.374  74.061  13.637  0.00  0.00    +0.028 A 
ATOM      8  C   LIG    1      -27.872  72.780  13.367  0.00  0.00    +0.002 A 
ATOM      9  C   LIG    1      -28.914  72.612  12.461  0.00  0.00    +0.000 A 
ATOM     10  C   LIG    1      -29.438  73.722  11.800  0.00  0.00    +0.002 A 
ATOM     11  C   LIG    1      -28.933  75.006  12.056  0.00  0.00    +0.028 A 
ENDBRANCH   3   6
BRANCH   4  12
ATOM     12  N   LIG    1      -29.058  78.083  12.258  0.00  0.00    -0.266 N 
ATOM     13  H   LIG    1      -29.902  78.113  12.818  0.00  0.00    +0.157 HD
ATOM     14  C   LIG    1      -29.150  78.476  10.871  0.00  0.00    +0.251 C 
ATOM     15  O   LIG    1      -28.133  78.543  10.182  0.00  0.00    -0.270 OA
BRANCH  14  16
ATOM     16  C   LIG    1      -30.482  78.815  10.281  0.00  0.00    +0.056 A 
ATOM     17  C   LIG    1      -31.211  77.999   9.418  0.00  0.00    +0.054 A 
ATOM     18 CL   LIG    1      -30.699  76.451   8.863  0.00  0.00    -0.083 Cl
ATOM     19  C   LIG    1      -32.459  78.413   8.949  0.00  0.00    +0.041 A 
ATOM     20  C   LIG    1      -33.009  79.648   9.316  0.00  0.00    +0.052 A 
ATOM     21 CL   LIG    1      -34.563  79.966   8.623  0.00  0.00    -0.083 Cl
ATOM     22  C   LIG    1      -32.306  80.529  10.155  0.00  0.00    +0.019 A 
ATOM     23  C   LIG    1      -31.043  80.072  10.628  0.00  0.00    +0.026 A 
BRANCH  22  24
ATOM     24  C   LIG    1      -32.754  81.899  10.528  0.00  0.00    +0.072 A 
ATOM     25  N   LIG    1      -31.805  82.861  10.383  0.00  0.00    -0.255 NA
ATOM     26  C   LIG    1      -32.142  84.144  10.659  0.00  0.00    +0.111 A 
ATOM     27  C   LIG    1      -33.397  84.537  11.083  0.00  0.00    +0.020 A 
ATOM     28  C   LIG    1      -34.357  83.553  11.254  0.00  0.00    +0.004 A 
ATOM     29  C   LIG    1      -34.029  82.224  10.990  0.00  0.00    +0.028 A 
ENDBRANCH  22  24
ENDBRANCH  14  16
ENDBRANCH   4  12
BRANCH   1  30
ATOM     30  C   LIG    1      -24.912  78.399  14.988  0.00  0.00    +0.236 C 
ATOM     31  N   LIG    1      -23.812  78.748  14.428  0.00  0.00    -0.248 NA
BRANCH  30  32
ATOM     32  O   LIG    1      -25.149  78.482  16.316  0.00  0.00    -0.491 OA
ATOM     33  H   LIG    1      -25.748  77.761  16.583  0.00  0.00    +0.294 HD
ENDBRANCH  30  32
BRANCH  31  34
ATOM     34  C   LIG    1      -22.731  79.223  15.295  0.00  0.00    +0.162 C 
BRANCH  34  35
ATOM     35  C   LIG    1      -22.806  80.724  15.398  0.00  0.00    +0.052 C 
ATOM     36  C   LIG    1      -23.155  81.459  14.180  0.00  0.00    +0.028 C 
ATOM     37  C   LIG    1      -23.163  82.801  14.193  0.00  0.00    +0.184 C 
ATOM     38  N   LIG    1      -22.873  83.500  15.334  0.00  0.00    -0.210 N 
ATOM     39  H   LIG    1      -22.921  84.510  15.337  0.00  0.00    +0.298 HD
ATOM     40  C   LIG    1      -22.636  82.876  16.530  0.00  0.00    +0.295 C 
ATOM     41  C   LIG    1      -22.584  81.379  16.558  0.00  0.00    +0.083 C 
BRANCH  40  42
ATOM     42  N   LIG    1      -22.467  83.584  17.602  0.00  0.00    -0.071 NA
ATOM     43  H   LIG    1      -21.801  84.340  17.427  0.00  0.00    +0.348 HD
ENDBRANCH  40  42
ENDBRANCH  34  35
ENDBRANCH  31  34
ENDBRANCH   1  30
TORSDOF 9
ENDMDL
MODEL 8
REMARK VINA RESULT:      -6.8      4.606      8.641
REMARK  Name = pdb/CHEMBL3963962.pdb
REMARK                            x       y       z     vdW  Elec       q    Type
REMARK                         _______ _______ _______ _____ _____    ______ ____
ROOT
ATOM      1  C   LIG    1      -29.903  75.491  31.157  0.00  0.00    +0.149 A 
ATOM      2  N   LIG    1      -30.656  76.364  30.468  0.00  0.00    -0.160 NA
ATOM      3  N   LIG    1      -31.618  75.601  29.863  0.00  0.00    -0.218 N 
ATOM      4  C   LIG    1      -31.315  74.230  29.972  0.00  0.00    +0.129 A 
ATOM      5  C   LIG    1      -30.277  74.160  30.875  0.00  0.00    +0.078 A 
ENDROOT
BRANCH   3   6
ATOM      6  C   LIG    1      -32.691  76.246  29.171  0.00  0.00    +0.067 A 
ATOM      7  C   LIG    1      -32.397  77.149  28.135  0.00  0.00    +0.028 A 
ATOM      8  C   LIG    1      -33.424  77.772  27.415  0.00  0.00    +0.002 A 
ATOM      9  C   LIG    1      -34.754  77.511  27.728  0.00  0.00    +0.000 A 
ATOM     10  C   LIG    1      -35.058  76.650  28.781  0.00  0.00    +0.002 A 
ATOM     11  C   LIG    1      -34.032  76.035  29.515  0.00  0.00    +0.028 A 
ENDBRANCH   3   6
BRANCH   4  12
ATOM     12  N   LIG    1      -31.872  73.159  29.253  0.00  0.00    -0.266 N 
ATOM     13  H   LIG    1      -31.376  72.854  28.424  0.00  0.00    +0.157 HD
ATOM     14  C   LIG    1      -33.031  72.402  29.666  0.00  0.00    +0.251 C 
ATOM     15  O   LIG    1      -33.606  72.682  30.717  0.00  0.00    -0.270 OA
BRANCH  14  16
ATOM     16  C   LIG    1      -33.519  71.269  28.820  0.00  0.00    +0.056 A 
ATOM     17  C   LIG    1      -32.931  70.008  28.746  0.00  0.00    +0.054 A 
ATOM     18 CL   LIG    1      -31.520  69.531  29.611  0.00  0.00    -0.083 Cl
ATOM     19  C   LIG    1      -33.493  69.019  27.937  0.00  0.00    +0.041 A 
ATOM     20  C   LIG    1      -34.643  69.258  27.175  0.00  0.00    +0.052 A 
ATOM     21 CL   LIG    1      -35.173  67.899  26.243  0.00  0.00    -0.083 Cl
ATOM     22  C   LIG    1      -35.262  70.520  27.181  0.00  0.00    +0.019 A 
ATOM     23  C   LIG    1      -34.673  71.504  28.028  0.00  0.00    +0.026 A 
BRANCH  22  24
ATOM     24  C   LIG    1      -36.427  70.909  26.340  0.00  0.00    +0.072 A 
ATOM     25  N   LIG    1      -36.230  70.764  25.002  0.00  0.00    -0.255 NA
ATOM     26  C   LIG    1      -37.256  71.054  24.166  0.00  0.00    +0.111 A 
ATOM     27  C   LIG    1      -38.496  71.490  24.591  0.00  0.00    +0.020 A 
ATOM     28  C   LIG    1      -38.688  71.660  25.951  0.00  0.00    +0.004 A 
ATOM     29  C   LIG    1      -37.643  71.383  26.831  0.00  0.00    +0.028 A 
ENDBRANCH  22  24
ENDBRANCH  14  16
ENDBRANCH   4  12
BRANCH   1  30
ATOM     30  C   LIG    1      -28.790  75.940  31.992  0.00  0.00    +0.236 C 
ATOM     31  N   LIG    1      -27.683  76.317  31.464  0.00  0.00    -0.248 NA
BRANCH  30  32
ATOM     32  O   LIG    1      -29.038  75.942  33.321  0.00  0.00    -0.491 OA
ATOM     33  H   LIG    1      -28.475  76.610  33.753  0.00  0.00    +0.294 HD
ENDBRANCH  30  32
BRANCH  31  34
ATOM     34  C   LIG    1      -26.608  76.733  32.368  0.00  0.00    +0.162 C 
BRANCH  34  35
ATOM     35  C   LIG    1      -25.290  76.630  31.647  0.00  0.00    +0.052 C 
ATOM     36  C   LIG    1      -24.361  75.591  32.100  0.00  0.00    +0.028 C 
ATOM     37  C   LIG    1      -23.143  75.501  31.544  0.00  0.00    +0.184 C 
ATOM     38  N   LIG    1      -22.758  76.349  30.541  0.00  0.00    -0.210 N 
ATOM     39  H   LIG    1      -21.851  76.243  30.107  0.00  0.00    +0.298 HD
ATOM     40  C   LIG    1      -23.611  77.276  30.003  0.00  0.00    +0.295 C 
ATOM     41  C   LIG    1      -24.969  77.437  30.612  0.00  0.00    +0.083 C 
BRANCH  40  42
ATOM     42  N   LIG    1      -23.231  77.986  28.988  0.00  0.00    -0.071 NA
ATOM     43  H   LIG    1      -22.249  77.799  28.770  0.00  0.00    +0.348 HD
ENDBRANCH  40  42
ENDBRANCH  34  35
ENDBRANCH  31  34
ENDBRANCH   1  30
TORSDOF 9
ENDMDL
MODEL 9
REMARK VINA RESULT:      -6.7     12.958     16.463
REMARK  Name = pdb/CHEMBL3963962.pdb
REMARK                            x       y       z     vdW  Elec       q    Type
REMARK                         _______ _______ _______ _____ _____    ______ ____
ROOT
ATOM      1  C   LIG    1      -24.140  78.906  34.234  0.00  0.00    +0.149 A 
ATOM      2  N   LIG    1      -23.076  78.787  33.422  0.00  0.00    -0.160 NA
ATOM      3  N   LIG    1      -23.335  77.680  32.661  0.00  0.00    -0.218 N 
ATOM      4  C   LIG    1      -24.439  76.967  33.168  0.00  0.00    +0.129 A 
ATOM      5  C   LIG    1      -25.005  77.799  34.109  0.00  0.00    +0.078 A 
ENDROOT
BRANCH   3   6
ATOM      6  C   LIG    1      -22.465  77.360  31.571  0.00  0.00    +0.067 A 
ATOM      7  C   LIG    1      -21.079  77.536  31.724  0.00  0.00    +0.028 A 
ATOM      8  C   LIG    1      -20.196  77.201  30.690  0.00  0.00    +0.002 A 
ATOM      9  C   LIG    1      -20.686  76.698  29.490  0.00  0.00    +0.000 A 
ATOM     10  C   LIG    1      -22.061  76.558  29.311  0.00  0.00    +0.002 A 
ATOM     11  C   LIG    1      -22.951  76.906  30.339  0.00  0.00    +0.028 A 
ENDBRANCH   3   6
BRANCH   4  12
ATOM     12  N   LIG    1      -24.837  75.654  32.865  0.00  0.00    -0.266 N 
ATOM     13  H   LIG    1      -24.487  74.917  33.467  0.00  0.00    +0.157 HD
ATOM     14  C   LIG    1      -25.782  75.295  31.833  0.00  0.00    +0.251 C 
ATOM     15  O   LIG    1      -26.301  76.172  31.143  0.00  0.00    -0.270 OA
BRANCH  14  16
ATOM     16  C   LIG    1      -26.139  73.858  31.618  0.00  0.00    +0.056 A 
ATOM     17  C   LIG    1      -27.360  73.275  31.945  0.00  0.00    +0.054 A 
ATOM     18 CL   LIG    1      -28.682  74.106  32.672  0.00  0.00    -0.083 Cl
ATOM     19  C   LIG    1      -27.587  71.924  31.673  0.00  0.00    +0.041 A 
ATOM     20  C   LIG    1      -26.607  71.119  31.081  0.00  0.00    +0.052 A 
ATOM     21 CL   LIG    1      -27.093  69.476  30.832  0.00  0.00    -0.083 Cl
ATOM     22  C   LIG    1      -25.342  71.641  30.761  0.00  0.00    +0.019 A 
ATOM     23  C   LIG    1      -25.147  73.026  31.037  0.00  0.00    +0.026 A 
BRANCH  22  24
ATOM     24  C   LIG    1      -24.201  70.854  30.220  0.00  0.00    +0.072 A 
ATOM     25  N   LIG    1      -23.234  70.564  31.130  0.00  0.00    -0.255 NA
ATOM     26  C   LIG    1      -22.179  69.812  30.732  0.00  0.00    +0.111 A 
ATOM     27  C   LIG    1      -22.025  69.321  29.449  0.00  0.00    +0.020 A 
ATOM     28  C   LIG    1      -22.997  69.638  28.516  0.00  0.00    +0.004 A 
ATOM     29  C   LIG    1      -24.084  70.422  28.899  0.00  0.00    +0.028 A 
ENDBRANCH  22  24
ENDBRANCH  14  16
ENDBRANCH   4  12
BRANCH   1  30
ATOM     30  C   LIG    1      -24.259  80.021  35.172  0.00  0.00    +0.236 C 
ATOM     31  N   LIG    1      -23.288  80.842  35.345  0.00  0.00    -0.248 NA
BRANCH  30  32
ATOM     32  O   LIG    1      -25.454  80.114  35.799  0.00  0.00    -0.491 OA
ATOM     33  H   LIG    1      -25.840  80.993  35.629  0.00  0.00    +0.294 HD
ENDBRANCH  30  32
BRANCH  31  34
ATOM     34  C   LIG    1      -23.477  81.920  36.318  0.00  0.00    +0.162 C 
BRANCH  34  35
ATOM     35  C   LIG    1      -22.178  82.166  37.040  0.00  0.00    +0.052 C 
ATOM     36  C   LIG    1      -21.070  81.253  36.748  0.00  0.00    +0.028 C 
ATOM     37  C   LIG    1      -19.913  81.378  37.416  0.00  0.00    +0.184 C 
ATOM     38  N   LIG    1      -19.739  82.361  38.352  0.00  0.00    -0.210 N 
ATOM     39  H   LIG    1      -18.848  82.465  38.819  0.00  0.00    +0.298 HD
ATOM     40  C   LIG    1      -20.696  83.308  38.602  0.00  0.00    +0.295 C 
ATOM     41  C   LIG    1      -22.017  83.190  37.906  0.00  0.00    +0.083 C 
BRANCH  40  42
ATOM     42  N   LIG    1      -20.443  84.276  39.425  0.00  0.00    -0.071 NA
ATOM     43  H   LIG    1      -21.213  84.951  39.427  0.00  0.00    +0.348 HD
ENDBRANCH  40  42
ENDBRANCH  34  35
ENDBRANCH  31  34
ENDBRANCH   1  30
TORSDOF 9
ENDMDL
