MODEL 1
REMARK VINA RESULT:      -5.9      0.000      0.000
REMARK  Name = pdb/CHEMBL3937419.pdb
REMARK                            x       y       z     vdW  Elec       q    Type
REMARK                         _______ _______ _______ _____ _____    ______ ____
ROOT
ATOM      1  C   LIG    1      -23.745  79.652  35.021  0.00  0.00    +0.126 A 
ATOM      2  N   LIG    1      -23.855  79.171  33.797  0.00  0.00    -0.212 NA
ATOM      3  C   LIG    1      -24.885  78.299  33.529  0.00  0.00    +0.170 A 
ATOM      4  C   LIG    1      -25.312  77.708  32.347  0.00  0.00    +0.100 A 
ATOM      5  C   LIG    1      -26.323  76.820  32.769  0.00  0.00    +0.150 A 
ATOM      6  N   LIG    1      -26.607  76.913  34.068  0.00  0.00    -0.173 NA
ATOM      7  N   LIG    1      -25.753  77.855  34.524  0.00  0.00    -0.221 N 
ATOM      8  C   LIG    1      -25.685  78.386  35.798  0.00  0.00    +0.118 A 
ATOM      9  C   LIG    1      -24.752  79.297  36.097  0.00  0.00    +0.063 A 
ENDROOT
BRANCH   1  11
ATOM     10  C   LIG    1      -21.567  80.095  36.219  0.00  0.00    +0.110 C 
ATOM     11  N   LIG    1      -22.692  80.506  35.343  0.00  0.00    -0.308 N 
ATOM     12  C   LIG    1      -22.831  81.965  35.370  0.00  0.00    +0.107 C 
ATOM     13  C   LIG    1      -21.993  82.420  36.556  0.00  0.00    +0.021 C 
ATOM     14  C   LIG    1      -20.858  81.417  36.563  0.00  0.00    +0.029 C 
BRANCH  10  19
ATOM     15  C   LIG    1      -20.188  75.351  35.469  0.00  0.00    +0.152 C 
ATOM     16  N   LIG    1      -19.995  76.772  35.230  0.00  0.00    -0.315 N 
ATOM     17  C   LIG    1      -20.799  77.691  35.913  0.00  0.00    +0.256 A 
ATOM     18  O   LIG    1      -21.609  77.378  36.783  0.00  0.00    -0.267 OA
ATOM     19  C   LIG    1      -20.624  79.139  35.540  0.00  0.00    +0.040 A 
ATOM     20  C   LIG    1      -19.684  79.465  34.633  0.00  0.00    +0.050 A 
ATOM     21  C   LIG    1      -18.892  78.458  33.990  0.00  0.00    +0.140 A 
ATOM     22  F   LIG    1      -17.988  78.842  33.067  0.00  0.00    -0.204 F 
ATOM     23  C   LIG    1      -19.072  77.167  34.277  0.00  0.00    +0.127 A 
ENDBRANCH  10  19
ENDBRANCH   1  11
BRANCH   4  24
ATOM     24  C   LIG    1      -24.745  77.938  31.035  0.00  0.00    +0.221 C 
ATOM     25  N   LIG    1      -23.651  77.501  30.550  0.00  0.00    -0.247 NA
BRANCH  25  26
ATOM     26  C   LIG    1      -22.723  76.564  31.170  0.00  0.00    +0.109 C 
ATOM     27  C   LIG    1      -21.624  77.360  31.883  0.00  0.00    +0.029 C 
ATOM     28  C   LIG    1      -20.750  78.154  30.906  0.00  0.00    +0.033 C 
ATOM     29  C   LIG    1      -20.167  77.272  29.802  0.00  0.00    +0.115 C 
ATOM     30  C   LIG    1      -21.238  76.445  29.095  0.00  0.00    +0.033 C 
ATOM     31  C   LIG    1      -22.121  75.672  30.076  0.00  0.00    +0.029 C 
BRANCH  29  32
ATOM     32  O   LIG    1      -19.202  76.383  30.367  0.00  0.00    -0.392 OA
ATOM     33  H   LIG    1      -18.399  76.448  29.821  0.00  0.00    +0.210 HD
ENDBRANCH  29  32
ENDBRANCH  25  26
BRANCH  24  34
ATOM     34  O   LIG    1      -25.500  78.715  30.220  0.00  0.00    -0.492 OA
ATOM     35  H   LIG    1      -24.948  79.203  29.579  0.00  0.00    +0.294 HD
ENDBRANCH  24  34
ENDBRANCH   4  24
TORSDOF 6
ENDMDL
MODEL 2
REMARK VINA RESULT:      -5.8     19.491     22.539
REMARK  Name = pdb/CHEMBL3937419.pdb
REMARK                            x       y       z     vdW  Elec       q    Type
REMARK                         _______ _______ _______ _____ _____    ______ ____
ROOT
ATOM      1  C   LIG    1      -32.940  67.116  17.814  0.00  0.00    +0.126 A 
ATOM      2  N   LIG    1      -32.813  68.382  17.463  0.00  0.00    -0.212 NA
ATOM      3  C   LIG    1      -31.638  69.028  17.773  0.00  0.00    +0.170 A 
ATOM      4  C   LIG    1      -31.174  70.301  17.465  0.00  0.00    +0.100 A 
ATOM      5  C   LIG    1      -29.968  70.397  18.188  0.00  0.00    +0.150 A 
ATOM      6  N   LIG    1      -29.623  69.265  18.803  0.00  0.00    -0.173 NA
ATOM      7  N   LIG    1      -30.629  68.412  18.509  0.00  0.00    -0.221 N 
ATOM      8  C   LIG    1      -30.724  67.074  18.840  0.00  0.00    +0.118 A 
ATOM      9  C   LIG    1      -31.809  66.373  18.497  0.00  0.00    +0.063 A 
ENDROOT
BRANCH   1  11
ATOM     10  C   LIG    1      -34.822  65.617  18.579  0.00  0.00    +0.110 C 
ATOM     11  N   LIG    1      -34.129  66.437  17.555  0.00  0.00    -0.308 N 
ATOM     12  C   LIG    1      -34.507  65.976  16.216  0.00  0.00    +0.107 C 
ATOM     13  C   LIG    1      -35.174  64.627  16.435  0.00  0.00    +0.021 C 
ATOM     14  C   LIG    1      -35.857  64.809  17.775  0.00  0.00    +0.029 C 
BRANCH  10  19
ATOM     15  C   LIG    1      -34.860  67.195  23.320  0.00  0.00    +0.152 C 
ATOM     16  N   LIG    1      -35.454  67.178  21.993  0.00  0.00    -0.315 N 
ATOM     17  C   LIG    1      -34.905  66.344  21.014  0.00  0.00    +0.256 A 
ATOM     18  O   LIG    1      -33.996  65.544  21.227  0.00  0.00    -0.267 OA
ATOM     19  C   LIG    1      -35.495  66.454  19.633  0.00  0.00    +0.040 A 
ATOM     20  C   LIG    1      -36.534  67.289  19.438  0.00  0.00    +0.050 A 
ATOM     21  C   LIG    1      -37.045  68.100  20.504  0.00  0.00    +0.140 A 
ATOM     22  F   LIG    1      -38.065  68.939  20.241  0.00  0.00    -0.204 F 
ATOM     23  C   LIG    1      -36.497  68.046  21.720  0.00  0.00    +0.127 A 
ENDBRANCH  10  19
ENDBRANCH   1  11
BRANCH   4  24
ATOM     24  C   LIG    1      -31.866  71.277  16.649  0.00  0.00    +0.221 C 
ATOM     25  N   LIG    1      -31.823  71.437  15.386  0.00  0.00    -0.247 NA
BRANCH  25  26
ATOM     26  C   LIG    1      -31.129  70.601  14.414  0.00  0.00    +0.109 C 
ATOM     27  C   LIG    1      -30.565  71.500  13.307  0.00  0.00    +0.029 C 
ATOM     28  C   LIG    1      -31.667  72.182  12.490  0.00  0.00    +0.033 C 
ATOM     29  C   LIG    1      -32.676  71.179  11.929  0.00  0.00    +0.115 C 
ATOM     30  C   LIG    1      -33.231  70.252  13.006  0.00  0.00    +0.033 C 
ATOM     31  C   LIG    1      -32.127  69.591  13.833  0.00  0.00    +0.029 C 
BRANCH  29  32
ATOM     32  O   LIG    1      -32.044  70.386  10.923  0.00  0.00    -0.392 OA
ATOM     33  H   LIG    1      -32.660  70.333  10.172  0.00  0.00    +0.210 HD
ENDBRANCH  29  32
ENDBRANCH  25  26
BRANCH  24  34
ATOM     34  O   LIG    1      -32.676  72.118  17.338  0.00  0.00    -0.492 OA
ATOM     35  H   LIG    1      -33.615  71.973  17.115  0.00  0.00    +0.294 HD
ENDBRANCH  24  34
ENDBRANCH   4  24
TORSDOF 6
ENDMDL
MODEL 3
REMARK VINA RESULT:      -5.7     17.567     19.379
REMARK  Name = pdb/CHEMBL3937419.pdb
REMARK                            x       y       z     vdW  Elec       q    Type
REMARK                         _______ _______ _______ _____ _____    ______ ____
ROOT
ATOM      1  C   LIG    1      -22.993  75.267  14.952  0.00  0.00    +0.126 A 
ATOM      2  N   LIG    1      -23.587  76.435  15.108  0.00  0.00    -0.212 NA
ATOM      3  C   LIG    1      -24.550  76.803  14.196  0.00  0.00    +0.170 A 
ATOM      4  C   LIG    1      -25.400  77.900  14.141  0.00  0.00    +0.100 A 
ATOM      5  C   LIG    1      -26.042  77.758  12.894  0.00  0.00    +0.150 A 
ATOM      6  N   LIG    1      -25.733  76.626  12.260  0.00  0.00    -0.173 NA
ATOM      7  N   LIG    1      -24.851  76.020  13.084  0.00  0.00    -0.221 N 
ATOM      8  C   LIG    1      -24.276  74.772  12.932  0.00  0.00    +0.118 A 
ATOM      9  C   LIG    1      -23.390  74.328  13.830  0.00  0.00    +0.063 A 
ENDROOT
BRANCH   1  11
ATOM     10  C   LIG    1      -20.570  74.726  15.408  0.00  0.00    +0.110 C 
ATOM     11  N   LIG    1      -21.984  74.876  15.830  0.00  0.00    -0.308 N 
ATOM     12  C   LIG    1      -22.236  74.048  17.013  0.00  0.00    +0.107 C 
ATOM     13  C   LIG    1      -21.040  73.112  17.104  0.00  0.00    +0.021 C 
ATOM     14  C   LIG    1      -19.909  73.969  16.574  0.00  0.00    +0.029 C 
BRANCH  10  19
ATOM     15  C   LIG    1      -18.925  78.091  12.100  0.00  0.00    +0.152 C 
ATOM     16  N   LIG    1      -19.095  77.656  13.477  0.00  0.00    -0.315 N 
ATOM     17  C   LIG    1      -19.642  76.394  13.729  0.00  0.00    +0.256 A 
ATOM     18  O   LIG    1      -19.909  75.577  12.850  0.00  0.00    -0.267 OA
ATOM     19  C   LIG    1      -19.892  76.049  15.172  0.00  0.00    +0.040 A 
ATOM     20  C   LIG    1      -19.530  76.933  16.122  0.00  0.00    +0.050 A 
ATOM     21  C   LIG    1      -18.961  78.202  15.776  0.00  0.00    +0.140 A 
ATOM     22  F   LIG    1      -18.647  79.058  16.768  0.00  0.00    -0.204 F 
ATOM     23  C   LIG    1      -18.780  78.538  14.497  0.00  0.00    +0.127 A 
ENDBRANCH  10  19
ENDBRANCH   1  11
BRANCH   4  24
ATOM     24  C   LIG    1      -25.490  78.949  15.135  0.00  0.00    +0.221 C 
ATOM     25  N   LIG    1      -24.703  79.932  15.333  0.00  0.00    -0.247 NA
BRANCH  25  26
ATOM     26  C   LIG    1      -23.545  80.309  14.532  0.00  0.00    +0.109 C 
ATOM     27  C   LIG    1      -22.281  79.761  15.207  0.00  0.00    +0.029 C 
ATOM     28  C   LIG    1      -22.018  80.411  16.569  0.00  0.00    +0.033 C 
ATOM     29  C   LIG    1      -21.983  81.938  16.485  0.00  0.00    +0.115 C 
ATOM     30  C   LIG    1      -23.217  82.508  15.790  0.00  0.00    +0.033 C 
ATOM     31  C   LIG    1      -23.488  81.839  14.441  0.00  0.00    +0.029 C 
BRANCH  29  32
ATOM     32  O   LIG    1      -20.821  82.345  15.761  0.00  0.00    -0.392 OA
ATOM     33  H   LIG    1      -21.094  83.062  15.163  0.00  0.00    +0.210 HD
ENDBRANCH  29  32
ENDBRANCH  25  26
BRANCH  24  34
ATOM     34  O   LIG    1      -26.571  78.868  15.949  0.00  0.00    -0.492 OA
ATOM     35  H   LIG    1      -27.402  79.007  15.455  0.00  0.00    +0.294 HD
ENDBRANCH  24  34
ENDBRANCH   4  24
TORSDOF 6
ENDMDL
MODEL 4
REMARK VINA RESULT:      -5.7     18.271     21.347
REMARK  Name = pdb/CHEMBL3937419.pdb
REMARK                            x       y       z     vdW  Elec       q    Type
REMARK                         _______ _______ _______ _____ _____    ______ ____
ROOT
ATOM      1  C   LIG    1      -24.415  80.805  12.314  0.00  0.00    +0.126 A 
ATOM      2  N   LIG    1      -24.417  82.124  12.358  0.00  0.00    -0.212 NA
ATOM      3  C   LIG    1      -24.092  82.814  11.212  0.00  0.00    +0.170 A 
ATOM      4  C   LIG    1      -24.094  84.172  10.919  0.00  0.00    +0.100 A 
ATOM      5  C   LIG    1      -23.530  84.232   9.628  0.00  0.00    +0.150 A 
ATOM      6  N   LIG    1      -23.299  83.033   9.091  0.00  0.00    -0.173 NA
ATOM      7  N   LIG    1      -23.687  82.164  10.049  0.00  0.00    -0.221 N 
ATOM      8  C   LIG    1      -23.727  80.785   9.970  0.00  0.00    +0.118 A 
ATOM      9  C   LIG    1      -24.111  80.063  11.028  0.00  0.00    +0.063 A 
ENDROOT
BRANCH   1  11
ATOM     10  C   LIG    1      -23.658  79.326  14.215  0.00  0.00    +0.110 C 
ATOM     11  N   LIG    1      -24.698  80.069  13.463  0.00  0.00    -0.308 N 
ATOM     12  C   LIG    1      -26.013  79.476  13.723  0.00  0.00    +0.107 C 
ATOM     13  C   LIG    1      -25.720  78.132  14.374  0.00  0.00    +0.021 C 
ATOM     14  C   LIG    1      -24.459  78.416  15.164  0.00  0.00    +0.029 C 
BRANCH  10  19
ATOM     15  C   LIG    1      -18.986  80.899  15.030  0.00  0.00    +0.152 C 
ATOM     16  N   LIG    1      -20.405  80.950  15.342  0.00  0.00    -0.315 N 
ATOM     17  C   LIG    1      -21.273  80.058  14.704  0.00  0.00    +0.256 A 
ATOM     18  O   LIG    1      -20.900  79.159  13.953  0.00  0.00    -0.267 OA
ATOM     19  C   LIG    1      -22.741  80.234  14.988  0.00  0.00    +0.040 A 
ATOM     20  C   LIG    1      -23.122  81.183  15.865  0.00  0.00    +0.050 A 
ATOM     21  C   LIG    1      -22.162  82.048  16.486  0.00  0.00    +0.140 A 
ATOM     22  F   LIG    1      -22.605  82.999  17.331  0.00  0.00    -0.204 F 
ATOM     23  C   LIG    1      -20.862  81.932  16.205  0.00  0.00    +0.127 A 
ENDBRANCH  10  19
ENDBRANCH   1  11
BRANCH   4  24
ATOM     24  C   LIG    1      -24.516  85.228  11.815  0.00  0.00    +0.221 C 
ATOM     25  N   LIG    1      -23.807  85.949  12.590  0.00  0.00    -0.247 NA
BRANCH  25  26
ATOM     26  C   LIG    1      -22.354  85.958  12.702  0.00  0.00    +0.109 C 
ATOM     27  C   LIG    1      -21.950  85.130  13.928  0.00  0.00    +0.029 C 
ATOM     28  C   LIG    1      -22.427  85.761  15.241  0.00  0.00    +0.033 C 
ATOM     29  C   LIG    1      -21.976  87.216  15.381  0.00  0.00    +0.115 C 
ATOM     30  C   LIG    1      -22.339  88.055  14.159  0.00  0.00    +0.033 C 
ATOM     31  C   LIG    1      -21.881  87.410  12.850  0.00  0.00    +0.029 C 
BRANCH  29  32
ATOM     32  O   LIG    1      -20.560  87.257  15.560  0.00  0.00    -0.392 OA
ATOM     33  H   LIG    1      -20.308  86.447  16.036  0.00  0.00    +0.210 HD
ENDBRANCH  29  32
ENDBRANCH  25  26
BRANCH  24  34
ATOM     34  O   LIG    1      -25.848  85.481  11.805  0.00  0.00    -0.492 OA
ATOM     35  H   LIG    1      -26.364  84.673  11.621  0.00  0.00    +0.294 HD
ENDBRANCH  24  34
ENDBRANCH   4  24
TORSDOF 6
ENDMDL
MODEL 5
REMARK VINA RESULT:      -5.4     18.154     21.704
REMARK  Name = pdb/CHEMBL3937419.pdb
REMARK                            x       y       z     vdW  Elec       q    Type
REMARK                         _______ _______ _______ _____ _____    ______ ____
ROOT
ATOM      1  C   LIG    1      -21.332  85.299  13.871  0.00  0.00    +0.126 A 
ATOM      2  N   LIG    1      -21.784  84.261  14.548  0.00  0.00    -0.212 NA
ATOM      3  C   LIG    1      -20.945  83.184  14.726  0.00  0.00    +0.170 A 
ATOM      4  C   LIG    1      -21.091  82.009  15.452  0.00  0.00    +0.100 A 
ATOM      5  C   LIG    1      -19.939  81.268  15.115  0.00  0.00    +0.150 A 
ATOM      6  N   LIG    1      -19.078  81.939  14.350  0.00  0.00    -0.173 NA
ATOM      7  N   LIG    1      -19.679  83.133  14.149  0.00  0.00    -0.221 N 
ATOM      8  C   LIG    1      -19.170  84.231  13.481  0.00  0.00    +0.118 A 
ATOM      9  C   LIG    1      -19.911  85.335  13.344  0.00  0.00    +0.063 A 
ENDROOT
BRANCH   1  11
ATOM     10  C   LIG    1      -22.465  86.886  12.267  0.00  0.00    +0.110 C 
ATOM     11  N   LIG    1      -22.163  86.392  13.633  0.00  0.00    -0.308 N 
ATOM     12  C   LIG    1      -22.349  87.477  14.602  0.00  0.00    +0.107 C 
ATOM     13  C   LIG    1      -22.431  88.745  13.765  0.00  0.00    +0.021 C 
ATOM     14  C   LIG    1      -23.112  88.263  12.501  0.00  0.00    +0.029 C 
BRANCH  10  19
ATOM     15  C   LIG    1      -23.011  83.406   8.723  0.00  0.00    +0.152 C 
ATOM     16  N   LIG    1      -23.588  84.270   9.741  0.00  0.00    -0.315 N 
ATOM     17  C   LIG    1      -22.764  85.189  10.398  0.00  0.00    +0.256 A 
ATOM     18  O   LIG    1      -21.586  85.384  10.105  0.00  0.00    -0.267 OA
ATOM     19  C   LIG    1      -23.397  85.975  11.515  0.00  0.00    +0.040 A 
ATOM     20  C   LIG    1      -24.706  85.793  11.774  0.00  0.00    +0.050 A 
ATOM     21  C   LIG    1      -25.482  84.837  11.040  0.00  0.00    +0.140 A 
ATOM     22  F   LIG    1      -26.780  84.676  11.364  0.00  0.00    -0.204 F 
ATOM     23  C   LIG    1      -24.919  84.100  10.080  0.00  0.00    +0.127 A 
ENDBRANCH  10  19
ENDBRANCH   1  11
BRANCH   4  24
ATOM     24  C   LIG    1      -22.229  81.661  16.275  0.00  0.00    +0.221 C 
ATOM     25  N   LIG    1      -23.055  80.701  16.134  0.00  0.00    -0.247 NA
BRANCH  25  26
ATOM     26  C   LIG    1      -23.002  79.632  15.144  0.00  0.00    +0.109 C 
ATOM     27  C   LIG    1      -23.436  80.199  13.787  0.00  0.00    +0.029 C 
ATOM     28  C   LIG    1      -24.903  80.640  13.779  0.00  0.00    +0.033 C 
ATOM     29  C   LIG    1      -25.844  79.527  14.240  0.00  0.00    +0.115 C 
ATOM     30  C   LIG    1      -25.418  78.925  15.577  0.00  0.00    +0.033 C 
ATOM     31  C   LIG    1      -23.947  78.507  15.586  0.00  0.00    +0.029 C 
BRANCH  29  32
ATOM     32  O   LIG    1      -25.868  78.490  13.258  0.00  0.00    -0.392 OA
ATOM     33  H   LIG    1      -26.095  78.906  12.409  0.00  0.00    +0.210 HD
ENDBRANCH  29  32
ENDBRANCH  25  26
BRANCH  24  34
ATOM     34  O   LIG    1      -22.422  82.470  17.346  0.00  0.00    -0.492 OA
ATOM     35  H   LIG    1      -23.306  82.885  17.327  0.00  0.00    +0.294 HD
ENDBRANCH  24  34
ENDBRANCH   4  24
TORSDOF 6
ENDMDL
MODEL 6
REMARK VINA RESULT:      -5.3     19.269     22.832
REMARK  Name = pdb/CHEMBL3937419.pdb
REMARK                            x       y       z     vdW  Elec       q    Type
REMARK                         _______ _______ _______ _____ _____    ______ ____
ROOT
ATOM      1  C   LIG    1      -20.848  83.780  14.192  0.00  0.00    +0.126 A 
ATOM      2  N   LIG    1      -21.371  84.990  14.251  0.00  0.00    -0.212 NA
ATOM      3  C   LIG    1      -20.595  86.055  13.855  0.00  0.00    +0.170 A 
ATOM      4  C   LIG    1      -20.883  87.407  13.716  0.00  0.00    +0.100 A 
ATOM      5  C   LIG    1      -19.631  87.981  13.410  0.00  0.00    +0.150 A 
ATOM      6  N   LIG    1      -18.659  87.083  13.246  0.00  0.00    -0.173 NA
ATOM      7  N   LIG    1      -19.264  85.898  13.476  0.00  0.00    -0.221 N 
ATOM      8  C   LIG    1      -18.716  84.634  13.360  0.00  0.00    +0.118 A 
ATOM      9  C   LIG    1      -19.448  83.556  13.656  0.00  0.00    +0.063 A 
ENDROOT
BRANCH   1  11
ATOM     10  C   LIG    1      -23.002  82.464  14.236  0.00  0.00    +0.110 C 
ATOM     11  N   LIG    1      -21.586  82.679  14.622  0.00  0.00    -0.308 N 
ATOM     12  C   LIG    1      -21.304  81.973  15.875  0.00  0.00    +0.107 C 
ATOM     13  C   LIG    1      -22.669  81.607  16.439  0.00  0.00    +0.021 C 
ATOM     14  C   LIG    1      -23.487  81.357  15.189  0.00  0.00    +0.029 C 
BRANCH  10  19
ATOM     15  C   LIG    1      -24.161  83.774   9.555  0.00  0.00    +0.152 C 
ATOM     16  N   LIG    1      -23.753  82.762  10.516  0.00  0.00    -0.315 N 
ATOM     17  C   LIG    1      -23.687  83.100  11.872  0.00  0.00    +0.256 A 
ATOM     18  O   LIG    1      -24.044  84.186  12.325  0.00  0.00    -0.267 OA
ATOM     19  C   LIG    1      -23.153  82.042  12.800  0.00  0.00    +0.040 A 
ATOM     20  C   LIG    1      -22.831  80.837  12.291  0.00  0.00    +0.050 A 
ATOM     21  C   LIG    1      -22.943  80.570  10.887  0.00  0.00    +0.140 A 
ATOM     22  F   LIG    1      -22.577  79.356  10.432  0.00  0.00    -0.204 F 
ATOM     23  C   LIG    1      -23.369  81.517  10.048  0.00  0.00    +0.127 A 
ENDBRANCH  10  19
ENDBRANCH   1  11
BRANCH   4  24
ATOM     24  C   LIG    1      -22.175  88.022  13.934  0.00  0.00    +0.221 C 
ATOM     25  N   LIG    1      -22.923  88.628  13.099  0.00  0.00    -0.247 NA
BRANCH  25  26
ATOM     26  C   LIG    1      -22.706  88.772  11.665  0.00  0.00    +0.109 C 
ATOM     27  C   LIG    1      -23.422  90.041  11.186  0.00  0.00    +0.029 C 
ATOM     28  C   LIG    1      -24.945  89.940  11.322  0.00  0.00    +0.033 C 
ATOM     29  C   LIG    1      -25.506  88.695  10.635  0.00  0.00    +0.115 C 
ATOM     30  C   LIG    1      -24.790  87.419  11.073  0.00  0.00    +0.033 C 
ATOM     31  C   LIG    1      -23.269  87.534  10.956  0.00  0.00    +0.029 C 
BRANCH  29  32
ATOM     32  O   LIG    1      -25.369  88.833   9.220  0.00  0.00    -0.392 OA
ATOM     33  H   LIG    1      -26.172  88.459   8.818  0.00  0.00    +0.210 HD
ENDBRANCH  29  32
ENDBRANCH  25  26
BRANCH  24  34
ATOM     34  O   LIG    1      -22.645  87.919  15.202  0.00  0.00    -0.492 OA
ATOM     35  H   LIG    1      -23.490  87.431  15.231  0.00  0.00    +0.294 HD
ENDBRANCH  24  34
ENDBRANCH   4  24
TORSDOF 6
ENDMDL
MODEL 7
REMARK VINA RESULT:      -5.3     18.373     21.481
REMARK  Name = pdb/CHEMBL3937419.pdb
REMARK                            x       y       z     vdW  Elec       q    Type
REMARK                         _______ _______ _______ _____ _____    ______ ____
ROOT
ATOM      1  C   LIG    1      -22.498  81.523  12.923  0.00  0.00    +0.126 A 
ATOM      2  N   LIG    1      -22.969  82.747  12.780  0.00  0.00    -0.212 NA
ATOM      3  C   LIG    1      -23.223  83.202  11.506  0.00  0.00    +0.170 A 
ATOM      4  C   LIG    1      -23.793  84.380  11.041  0.00  0.00    +0.100 A 
ATOM      5  C   LIG    1      -23.641  84.291   9.642  0.00  0.00    +0.150 A 
ATOM      6  N   LIG    1      -23.136  83.127   9.233  0.00  0.00    -0.173 NA
ATOM      7  N   LIG    1      -22.922  82.442  10.378  0.00  0.00    -0.221 N 
ATOM      8  C   LIG    1      -22.477  81.140  10.511  0.00  0.00    +0.118 A 
ATOM      9  C   LIG    1      -22.287  80.617  11.726  0.00  0.00    +0.063 A 
ENDROOT
BRANCH   1  11
ATOM     10  C   LIG    1      -23.230  80.620  15.165  0.00  0.00    +0.110 C 
ATOM     11  N   LIG    1      -22.190  81.039  14.194  0.00  0.00    -0.308 N 
ATOM     12  C   LIG    1      -20.966  81.409  14.910  0.00  0.00    +0.107 C 
ATOM     13  C   LIG    1      -21.385  81.546  16.366  0.00  0.00    +0.021 C 
ATOM     14  C   LIG    1      -22.469  80.497  16.498  0.00  0.00    +0.029 C 
BRANCH  10  19
ATOM     15  C   LIG    1      -27.060  78.295  12.953  0.00  0.00    +0.152 C 
ATOM     16  N   LIG    1      -25.810  78.240  13.693  0.00  0.00    -0.315 N 
ATOM     17  C   LIG    1      -25.225  79.433  14.130  0.00  0.00    +0.256 A 
ATOM     18  O   LIG    1      -25.751  80.538  14.008  0.00  0.00    -0.267 OA
ATOM     19  C   LIG    1      -23.879  79.315  14.793  0.00  0.00    +0.040 A 
ATOM     20  C   LIG    1      -23.352  78.089  14.976  0.00  0.00    +0.050 A 
ATOM     21  C   LIG    1      -24.027  76.914  14.508  0.00  0.00    +0.140 A 
ATOM     22  F   LIG    1      -23.437  75.717  14.692  0.00  0.00    -0.204 F 
ATOM     23  C   LIG    1      -25.199  77.011  13.875  0.00  0.00    +0.127 A 
ENDBRANCH  10  19
ENDBRANCH   1  11
BRANCH   4  24
ATOM     24  C   LIG    1      -24.325  85.443  11.867  0.00  0.00    +0.221 C 
ATOM     25  N   LIG    1      -23.696  86.296  12.575  0.00  0.00    -0.247 NA
BRANCH  25  26
ATOM     26  C   LIG    1      -22.253  86.479  12.658  0.00  0.00    +0.109 C 
ATOM     27  C   LIG    1      -21.699  85.544  13.739  0.00  0.00    +0.029 C 
ATOM     28  C   LIG    1      -22.200  85.909  15.140  0.00  0.00    +0.033 C 
ATOM     29  C   LIG    1      -21.933  87.374  15.487  0.00  0.00    +0.115 C 
ATOM     30  C   LIG    1      -22.449  88.327  14.412  0.00  0.00    +0.033 C 
ATOM     31  C   LIG    1      -21.964  87.944  13.012  0.00  0.00    +0.029 C 
BRANCH  29  32
ATOM     32  O   LIG    1      -20.528  87.575  15.641  0.00  0.00    -0.392 OA
ATOM     33  H   LIG    1      -20.185  86.822  16.152  0.00  0.00    +0.210 HD
ENDBRANCH  29  32
ENDBRANCH  25  26
BRANCH  24  34
ATOM     34  O   LIG    1      -25.677  85.540  11.865  0.00  0.00    -0.492 OA
ATOM     35  H   LIG    1      -25.994  86.141  12.567  0.00  0.00    +0.294 HD
ENDBRANCH  24  34
ENDBRANCH   4  24
TORSDOF 6
ENDMDL
MODEL 8
REMARK VINA RESULT:      -5.3     17.522     20.055
REMARK  Name = pdb/CHEMBL3937419.pdb
REMARK                            x       y       z     vdW  Elec       q    Type
REMARK                         _______ _______ _______ _____ _____    ______ ____
ROOT
ATOM      1  C   LIG    1      -26.312  74.801  13.517  0.00  0.00    +0.126 A 
ATOM      2  N   LIG    1      -25.977  75.937  14.099  0.00  0.00    -0.212 NA
ATOM      3  C   LIG    1      -25.995  77.086  13.343  0.00  0.00    +0.170 A 
ATOM      4  C   LIG    1      -25.789  78.418  13.680  0.00  0.00    +0.100 A 
ATOM      5  C   LIG    1      -25.811  79.081  12.435  0.00  0.00    +0.150 A 
ATOM      6  N   LIG    1      -26.119  78.283  11.411  0.00  0.00    -0.173 NA
ATOM      7  N   LIG    1      -26.276  77.067  11.978  0.00  0.00    -0.221 N 
ATOM      8  C   LIG    1      -26.678  75.896  11.364  0.00  0.00    +0.118 A 
ATOM      9  C   LIG    1      -26.754  74.762  12.067  0.00  0.00    +0.063 A 
ENDROOT
BRANCH   1  11
ATOM     10  C   LIG    1      -25.086  72.710  14.225  0.00  0.00    +0.110 C 
ATOM     11  N   LIG    1      -26.266  73.608  14.237  0.00  0.00    -0.308 N 
ATOM     12  C   LIG    1      -27.467  72.840  14.580  0.00  0.00    +0.107 C 
ATOM     13  C   LIG    1      -27.058  71.382  14.435  0.00  0.00    +0.021 C 
ATOM     14  C   LIG    1      -25.603  71.403  14.853  0.00  0.00    +0.029 C 
BRANCH  10  19
ATOM     15  C   LIG    1      -20.785  75.255  14.175  0.00  0.00    +0.152 C 
ATOM     16  N   LIG    1      -21.805  74.518  14.904  0.00  0.00    -0.315 N 
ATOM     17  C   LIG    1      -22.848  73.917  14.192  0.00  0.00    +0.256 A 
ATOM     18  O   LIG    1      -22.913  73.891  12.965  0.00  0.00    -0.267 OA
ATOM     19  C   LIG    1      -23.929  73.264  15.012  0.00  0.00    +0.040 A 
ATOM     20  C   LIG    1      -23.803  73.247  16.353  0.00  0.00    +0.050 A 
ATOM     21  C   LIG    1      -22.691  73.877  17.003  0.00  0.00    +0.140 A 
ATOM     22  F   LIG    1      -22.635  73.854  18.348  0.00  0.00    -0.204 F 
ATOM     23  C   LIG    1      -21.753  74.501  16.287  0.00  0.00    +0.127 A 
ENDBRANCH  10  19
ENDBRANCH   1  11
BRANCH   4  24
ATOM     24  C   LIG    1      -25.535  78.921  15.013  0.00  0.00    +0.221 C 
ATOM     25  N   LIG    1      -24.498  79.510  15.460  0.00  0.00    -0.247 NA
BRANCH  25  26
ATOM     26  C   LIG    1      -23.321  79.919  14.704  0.00  0.00    +0.109 C 
ATOM     27  C   LIG    1      -22.074  79.655  15.555  0.00  0.00    +0.029 C 
ATOM     28  C   LIG    1      -22.028  80.529  16.813  0.00  0.00    +0.033 C 
ATOM     29  C   LIG    1      -22.173  82.016  16.490  0.00  0.00    +0.115 C 
ATOM     30  C   LIG    1      -23.392  82.304  15.617  0.00  0.00    +0.033 C 
ATOM     31  C   LIG    1      -23.444  81.413  14.375  0.00  0.00    +0.029 C 
BRANCH  29  32
ATOM     32  O   LIG    1      -21.004  82.467  15.805  0.00  0.00    -0.392 OA
ATOM     33  H   LIG    1      -20.245  82.297  16.390  0.00  0.00    +0.210 HD
ENDBRANCH  29  32
ENDBRANCH  25  26
BRANCH  24  34
ATOM     34  O   LIG    1      -26.556  78.747  15.889  0.00  0.00    -0.492 OA
ATOM     35  H   LIG    1      -26.805  77.806  15.964  0.00  0.00    +0.294 HD
ENDBRANCH  24  34
ENDBRANCH   4  24
TORSDOF 6
ENDMDL
MODEL 9
REMARK VINA RESULT:      -5.2     13.278     16.765
REMARK  Name = pdb/CHEMBL3937419.pdb
REMARK                            x       y       z     vdW  Elec       q    Type
REMARK                         _______ _______ _______ _____ _____    ______ ____
ROOT
ATOM      1  C   LIG    1      -34.551  80.174  28.057  0.00  0.00    +0.126 A 
ATOM      2  N   LIG    1      -35.160  80.998  27.225  0.00  0.00    -0.212 NA
ATOM      3  C   LIG    1      -35.830  82.078  27.752  0.00  0.00    +0.170 A 
ATOM      4  C   LIG    1      -36.476  83.150  27.149  0.00  0.00    +0.100 A 
ATOM      5  C   LIG    1      -37.072  83.828  28.232  0.00  0.00    +0.150 A 
ATOM      6  N   LIG    1      -36.748  83.322  29.422  0.00  0.00    -0.173 NA
ATOM      7  N   LIG    1      -35.948  82.274  29.126  0.00  0.00    -0.221 N 
ATOM      8  C   LIG    1      -35.275  81.451  30.010  0.00  0.00    +0.118 A 
ATOM      9  C   LIG    1      -34.543  80.431  29.551  0.00  0.00    +0.063 A 
ENDROOT
BRANCH   1  11
ATOM     10  C   LIG    1      -34.060  77.700  28.167  0.00  0.00    +0.110 C 
ATOM     11  N   LIG    1      -33.896  79.046  27.566  0.00  0.00    -0.308 N 
ATOM     12  C   LIG    1      -32.616  79.117  26.855  0.00  0.00    +0.107 C 
ATOM     13  C   LIG    1      -31.834  77.900  27.327  0.00  0.00    +0.021 C 
ATOM     14  C   LIG    1      -32.923  76.870  27.543  0.00  0.00    +0.029 C 
BRANCH  10  19
ATOM     15  C   LIG    1      -38.667  76.631  29.778  0.00  0.00    +0.152 C 
ATOM     16  N   LIG    1      -37.654  76.584  28.736  0.00  0.00    -0.315 N 
ATOM     17  C   LIG    1      -36.371  77.064  29.015  0.00  0.00    +0.256 A 
ATOM     18  O   LIG    1      -36.009  77.446  30.126  0.00  0.00    -0.267 OA
ATOM     19  C   LIG    1      -35.401  77.090  27.864  0.00  0.00    +0.040 A 
ATOM     20  C   LIG    1      -35.799  76.605  26.672  0.00  0.00    +0.050 A 
ATOM     21  C   LIG    1      -37.132  76.117  26.476  0.00  0.00    +0.140 A 
ATOM     22  F   LIG    1      -37.482  75.673  25.253  0.00  0.00    -0.204 F 
ATOM     23  C   LIG    1      -38.015  76.135  27.478  0.00  0.00    +0.127 A 
ENDBRANCH  10  19
ENDBRANCH   1  11
BRANCH   4  24
ATOM     24  C   LIG    1      -36.547  83.400  25.725  0.00  0.00    +0.221 C 
ATOM     25  N   LIG    1      -37.558  83.338  24.952  0.00  0.00    -0.247 NA
BRANCH  25  26
ATOM     26  C   LIG    1      -38.943  83.090  25.331  0.00  0.00    +0.109 C 
ATOM     27  C   LIG    1      -39.273  81.619  25.049  0.00  0.00    +0.029 C 
ATOM     28  C   LIG    1      -39.232  81.287  23.554  0.00  0.00    +0.033 C 
ATOM     29  C   LIG    1      -40.119  82.221  22.729  0.00  0.00    +0.115 C 
ATOM     30  C   LIG    1      -39.831  83.693  23.013  0.00  0.00    +0.033 C 
ATOM     31  C   LIG    1      -39.850  84.014  24.508  0.00  0.00    +0.029 C 
BRANCH  29  32
ATOM     32  O   LIG    1      -41.490  81.958  23.028  0.00  0.00    -0.392 OA
ATOM     33  H   LIG    1      -42.013  82.669  22.620  0.00  0.00    +0.210 HD
ENDBRANCH  29  32
ENDBRANCH  25  26
BRANCH  24  34
ATOM     34  O   LIG    1      -35.371  83.760  25.154  0.00  0.00    -0.492 OA
ATOM     35  H   LIG    1      -35.416  84.662  24.783  0.00  0.00    +0.294 HD
ENDBRANCH  24  34
ENDBRANCH   4  24
TORSDOF 6
ENDMDL
