MODEL 1
REMARK VINA RESULT:      -6.8      0.000      0.000
REMARK  Name = pdb/CHEMBL3904287.pdb
REMARK                            x       y       z     vdW  Elec       q    Type
REMARK                         _______ _______ _______ _____ _____    ______ ____
ROOT
ATOM      1  C   LIG    1      -36.307  69.360  25.485  0.00  0.00    +0.149 A 
ATOM      2  N   LIG    1      -37.216  70.324  25.273  0.00  0.00    -0.160 NA
ATOM      3  N   LIG    1      -36.750  71.408  25.932  0.00  0.00    -0.218 N 
ATOM      4  C   LIG    1      -35.463  71.197  26.426  0.00  0.00    +0.129 A 
ATOM      5  C   LIG    1      -35.200  69.861  26.218  0.00  0.00    +0.078 A 
ENDROOT
BRANCH   3   6
ATOM      6  C   LIG    1      -37.560  72.571  26.033  0.00  0.00    +0.067 A 
ATOM      7  C   LIG    1      -37.941  73.286  24.894  0.00  0.00    +0.028 A 
ATOM      8  C   LIG    1      -38.732  74.431  25.014  0.00  0.00    +0.002 A 
ATOM      9  C   LIG    1      -39.120  74.883  26.273  0.00  0.00    +0.000 A 
ATOM     10  C   LIG    1      -38.721  74.190  27.414  0.00  0.00    +0.002 A 
ATOM     11  C   LIG    1      -37.938  73.039  27.300  0.00  0.00    +0.028 A 
ENDBRANCH   3   6
BRANCH   4  12
ATOM     12  N   LIG    1      -34.577  72.161  26.921  0.00  0.00    -0.266 N 
ATOM     13  H   LIG    1      -33.999  72.654  26.238  0.00  0.00    +0.157 HD
ATOM     14  C   LIG    1      -34.421  72.458  28.313  0.00  0.00    +0.251 C 
ATOM     15  O   LIG    1      -35.136  71.907  29.155  0.00  0.00    -0.270 OA
BRANCH  14  16
ATOM     16  C   LIG    1      -33.378  73.410  28.726  0.00  0.00    +0.056 A 
ATOM     17  C   LIG    1      -32.196  73.058  29.394  0.00  0.00    +0.056 A 
ATOM     18 CL   LIG    1      -31.740  71.442  29.747  0.00  0.00    -0.083 Cl
ATOM     19  C   LIG    1      -31.285  74.043  29.768  0.00  0.00    +0.059 A 
ATOM     20  C   LIG    1      -31.520  75.374  29.442  0.00  0.00    +0.134 A 
ATOM     21  F   LIG    1      -30.617  76.272  29.856  0.00  0.00    -0.205 F 
ATOM     22  C   LIG    1      -32.647  75.768  28.707  0.00  0.00    +0.036 A 
ATOM     23  C   LIG    1      -33.571  74.768  28.381  0.00  0.00    +0.027 A 
BRANCH  22  24
ATOM     24  C   LIG    1      -32.852  77.155  28.245  0.00  0.00    +0.074 A 
ATOM     25  N   LIG    1      -33.776  77.869  28.937  0.00  0.00    -0.255 NA
ATOM     26  C   LIG    1      -34.053  79.123  28.511  0.00  0.00    +0.111 A 
ATOM     27  C   LIG    1      -33.455  79.714  27.413  0.00  0.00    +0.020 A 
ATOM     28  C   LIG    1      -32.512  78.980  26.711  0.00  0.00    +0.004 A 
ATOM     29  C   LIG    1      -32.209  77.687  27.127  0.00  0.00    +0.028 A 
ENDBRANCH  22  24
ENDBRANCH  14  16
ENDBRANCH   4  12
BRANCH   1  31
ATOM     30  N   LIG    1      -36.635  67.860  23.680  0.00  0.00    -0.245 NA
ATOM     31  C   LIG    1      -36.462  68.012  24.938  0.00  0.00    +0.236 C 
BRANCH  31  32
ATOM     32  O   LIG    1      -36.446  67.030  25.863  0.00  0.00    -0.491 OA
ATOM     33  H   LIG    1      -35.560  66.707  26.062  0.00  0.00    +0.294 HD
ENDBRANCH  31  32
BRANCH  30  34
ATOM     34  C   LIG    1      -36.781  66.563  23.038  0.00  0.00    +0.180 C 
BRANCH  34  38
ATOM     35  C   LIG    1      -37.253  67.280  18.769  0.00  0.00    +0.297 C 
ATOM     36  C   LIG    1      -37.385  68.417  19.747  0.00  0.00    +0.078 C 
ATOM     37  C   LIG    1      -37.253  68.138  21.059  0.00  0.00    +0.062 C 
ATOM     38  C   LIG    1      -36.975  66.786  21.555  0.00  0.00    -0.003 C 
ATOM     39  C   LIG    1      -36.894  65.795  20.645  0.00  0.00    +0.189 C 
ATOM     40  N   LIG    1      -37.039  66.027  19.300  0.00  0.00    -0.209 N 
ATOM     41  H   LIG    1      -36.868  65.279  18.641  0.00  0.00    +0.298 HD
BRANCH  35  43
ATOM     42  C   LIG    1      -36.488  66.521  16.650  0.00  0.00    +0.332 C 
ATOM     43  N   LIG    1      -37.317  67.379  17.481  0.00  0.00    -0.057 NA
ENDBRANCH  35  43
ENDBRANCH  34  38
ENDBRANCH  30  34
ENDBRANCH   1  31
TORSDOF 9
ENDMDL
MODEL 2
REMARK VINA RESULT:      -6.7      5.541     11.987
REMARK  Name = pdb/CHEMBL3904287.pdb
REMARK                            x       y       z     vdW  Elec       q    Type
REMARK                         _______ _______ _______ _____ _____    ______ ____
ROOT
ATOM      1  C   LIG    1      -36.807  79.916  27.643  0.00  0.00    +0.149 A 
ATOM      2  N   LIG    1      -35.778  79.080  27.847  0.00  0.00    -0.160 NA
ATOM      3  N   LIG    1      -36.273  77.842  27.629  0.00  0.00    -0.218 N 
ATOM      4  C   LIG    1      -37.571  77.888  27.121  0.00  0.00    +0.129 A 
ATOM      5  C   LIG    1      -37.955  79.208  27.204  0.00  0.00    +0.078 A 
ENDROOT
BRANCH   3   6
ATOM      6  C   LIG    1      -35.469  76.704  27.909  0.00  0.00    +0.067 A 
ATOM      7  C   LIG    1      -35.901  75.716  28.798  0.00  0.00    +0.028 A 
ATOM      8  C   LIG    1      -35.093  74.608  29.065  0.00  0.00    +0.002 A 
ATOM      9  C   LIG    1      -33.839  74.498  28.469  0.00  0.00    +0.000 A 
ATOM     10  C   LIG    1      -33.392  75.493  27.602  0.00  0.00    +0.002 A 
ATOM     11  C   LIG    1      -34.199  76.598  27.324  0.00  0.00    +0.028 A 
ENDBRANCH   3   6
BRANCH   4  12
ATOM     12  N   LIG    1      -38.292  76.838  26.540  0.00  0.00    -0.266 N 
ATOM     13  H   LIG    1      -39.062  76.447  27.087  0.00  0.00    +0.157 HD
ATOM     14  C   LIG    1      -37.988  76.276  25.259  0.00  0.00    +0.251 C 
ATOM     15  O   LIG    1      -37.092  76.759  24.561  0.00  0.00    -0.270 OA
BRANCH  14  16
ATOM     16  C   LIG    1      -38.744  75.101  24.799  0.00  0.00    +0.056 A 
ATOM     17  C   LIG    1      -39.980  75.157  24.136  0.00  0.00    +0.056 A 
ATOM     18 CL   LIG    1      -40.753  76.618  23.674  0.00  0.00    -0.083 Cl
ATOM     19  C   LIG    1      -40.629  73.982  23.768  0.00  0.00    +0.059 A 
ATOM     20  C   LIG    1      -40.036  72.748  24.014  0.00  0.00    +0.134 A 
ATOM     21  F   LIG    1      -40.728  71.658  23.658  0.00  0.00    -0.205 F 
ATOM     22  C   LIG    1      -38.768  72.641  24.602  0.00  0.00    +0.036 A 
ATOM     23  C   LIG    1      -38.154  73.833  25.005  0.00  0.00    +0.027 A 
BRANCH  22  24
ATOM     24  C   LIG    1      -38.069  71.350  24.758  0.00  0.00    +0.074 A 
ATOM     25  N   LIG    1      -37.542  71.118  25.988  0.00  0.00    -0.255 NA
ATOM     26  C   LIG    1      -36.830  69.981  26.164  0.00  0.00    +0.111 A 
ATOM     27  C   LIG    1      -36.606  69.048  25.169  0.00  0.00    +0.020 A 
ATOM     28  C   LIG    1      -37.149  69.290  23.916  0.00  0.00    +0.004 A 
ATOM     29  C   LIG    1      -37.884  70.453  23.706  0.00  0.00    +0.028 A 
ENDBRANCH  22  24
ENDBRANCH  14  16
ENDBRANCH   4  12
BRANCH   1  31
ATOM     30  N   LIG    1      -36.199  82.060  26.834  0.00  0.00    -0.245 NA
ATOM     31  C   LIG    1      -36.673  81.365  27.798  0.00  0.00    +0.236 C 
BRANCH  31  32
ATOM     32  O   LIG    1      -37.043  81.833  29.008  0.00  0.00    -0.491 OA
ATOM     33  H   LIG    1      -37.997  81.919  29.110  0.00  0.00    +0.294 HD
ENDBRANCH  31  32
BRANCH  30  34
ATOM     34  C   LIG    1      -36.043  83.505  26.882  0.00  0.00    +0.180 C 
BRANCH  34  38
ATOM     35  C   LIG    1      -38.221  85.184  23.507  0.00  0.00    +0.297 C 
ATOM     36  C   LIG    1      -38.292  83.708  23.794  0.00  0.00    +0.078 C 
ATOM     37  C   LIG    1      -37.581  83.235  24.837  0.00  0.00    +0.062 C 
ATOM     38  C   LIG    1      -36.764  84.101  25.695  0.00  0.00    -0.003 C 
ATOM     39  C   LIG    1      -36.708  85.410  25.381  0.00  0.00    +0.189 C 
ATOM     40  N   LIG    1      -37.401  85.936  24.319  0.00  0.00    -0.209 N 
ATOM     41  H   LIG    1      -37.418  86.937  24.177  0.00  0.00    +0.298 HD
BRANCH  35  43
ATOM     42  C   LIG    1      -40.319  85.808  22.580  0.00  0.00    +0.332 C 
ATOM     43  N   LIG    1      -38.865  85.803  22.572  0.00  0.00    -0.057 NA
ENDBRANCH  35  43
ENDBRANCH  34  38
ENDBRANCH  30  34
ENDBRANCH   1  31
TORSDOF 9
ENDMDL
MODEL 3
REMARK VINA RESULT:      -6.6      6.069      9.228
REMARK  Name = pdb/CHEMBL3904287.pdb
REMARK                            x       y       z     vdW  Elec       q    Type
REMARK                         _______ _______ _______ _____ _____    ______ ____
ROOT
ATOM      1  C   LIG    1      -33.089  76.182  28.677  0.00  0.00    +0.149 A 
ATOM      2  N   LIG    1      -33.571  77.377  29.052  0.00  0.00    -0.160 NA
ATOM      3  N   LIG    1      -34.506  77.692  28.129  0.00  0.00    -0.218 N 
ATOM      4  C   LIG    1      -34.749  76.630  27.259  0.00  0.00    +0.129 A 
ATOM      5  C   LIG    1      -33.789  75.686  27.547  0.00  0.00    +0.078 A 
ENDROOT
BRANCH   3   6
ATOM      6  C   LIG    1      -35.111  78.978  28.152  0.00  0.00    +0.067 A 
ATOM      7  C   LIG    1      -34.416  80.109  27.716  0.00  0.00    +0.028 A 
ATOM      8  C   LIG    1      -35.024  81.366  27.753  0.00  0.00    +0.002 A 
ATOM      9  C   LIG    1      -36.318  81.502  28.252  0.00  0.00    +0.000 A 
ATOM     10  C   LIG    1      -37.006  80.381  28.714  0.00  0.00    +0.002 A 
ATOM     11  C   LIG    1      -36.406  79.121  28.671  0.00  0.00    +0.028 A 
ENDBRANCH   3   6
BRANCH   4  12
ATOM     12  N   LIG    1      -35.815  76.497  26.360  0.00  0.00    -0.266 N 
ATOM     13  H   LIG    1      -35.627  76.726  25.382  0.00  0.00    +0.157 HD
ATOM     14  C   LIG    1      -37.135  76.097  26.744  0.00  0.00    +0.251 C 
ATOM     15  O   LIG    1      -37.377  75.774  27.911  0.00  0.00    -0.270 OA
BRANCH  14  16
ATOM     16  C   LIG    1      -38.202  76.100  25.732  0.00  0.00    +0.056 A 
ATOM     17  C   LIG    1      -38.817  74.948  25.217  0.00  0.00    +0.056 A 
ATOM     18 CL   LIG    1      -38.479  73.357  25.764  0.00  0.00    -0.083 Cl
ATOM     19  C   LIG    1      -39.799  75.059  24.237  0.00  0.00    +0.059 A 
ATOM     20  C   LIG    1      -40.210  76.313  23.797  0.00  0.00    +0.134 A 
ATOM     21  F   LIG    1      -41.140  76.345  22.833  0.00  0.00    -0.205 F 
ATOM     22  C   LIG    1      -39.685  77.495  24.335  0.00  0.00    +0.036 A 
ATOM     23  C   LIG    1      -38.666  77.359  25.286  0.00  0.00    +0.027 A 
BRANCH  22  24
ATOM     24  C   LIG    1      -40.194  78.832  23.971  0.00  0.00    +0.074 A 
ATOM     25  N   LIG    1      -39.297  79.652  23.366  0.00  0.00    -0.255 NA
ATOM     26  C   LIG    1      -39.692  80.913  23.075  0.00  0.00    +0.111 A 
ATOM     27  C   LIG    1      -40.949  81.413  23.361  0.00  0.00    +0.020 A 
ATOM     28  C   LIG    1      -41.861  80.570  23.977  0.00  0.00    +0.004 A 
ATOM     29  C   LIG    1      -41.480  79.268  24.290  0.00  0.00    +0.028 A 
ENDBRANCH  22  24
ENDBRANCH  14  16
ENDBRANCH   4  12
BRANCH   1  31
ATOM     30  N   LIG    1      -31.865  74.242  29.274  0.00  0.00    -0.245 NA
ATOM     31  C   LIG    1      -32.033  75.501  29.426  0.00  0.00    +0.236 C 
BRANCH  31  32
ATOM     32  O   LIG    1      -31.340  76.299  30.265  0.00  0.00    -0.491 OA
ATOM     33  H   LIG    1      -30.524  76.640  29.883  0.00  0.00    +0.294 HD
ENDBRANCH  31  32
BRANCH  30  34
ATOM     34  C   LIG    1      -30.834  73.477  29.957  0.00  0.00    +0.180 C 
BRANCH  34  38
ATOM     35  C   LIG    1      -31.990  69.286  29.723  0.00  0.00    +0.297 C 
ATOM     36  C   LIG    1      -33.044  70.360  29.770  0.00  0.00    +0.078 C 
ATOM     37  C   LIG    1      -32.633  71.641  29.866  0.00  0.00    +0.062 C 
ATOM     38  C   LIG    1      -31.216  72.015  29.911  0.00  0.00    -0.003 C 
ATOM     39  C   LIG    1      -30.309  71.018  29.894  0.00  0.00    +0.189 C 
ATOM     40  N   LIG    1      -30.679  69.698  29.815  0.00  0.00    -0.209 N 
ATOM     41  H   LIG    1      -29.971  68.985  29.700  0.00  0.00    +0.298 HD
BRANCH  35  43
ATOM     42  C   LIG    1      -33.338  67.557  28.805  0.00  0.00    +0.332 C 
ATOM     43  N   LIG    1      -32.209  68.018  29.597  0.00  0.00    -0.057 NA
ENDBRANCH  35  43
ENDBRANCH  34  38
ENDBRANCH  30  34
ENDBRANCH   1  31
TORSDOF 9
ENDMDL
MODEL 4
REMARK VINA RESULT:      -6.6      9.550     14.196
REMARK  Name = pdb/CHEMBL3904287.pdb
REMARK                            x       y       z     vdW  Elec       q    Type
REMARK                         _______ _______ _______ _____ _____    ______ ____
ROOT
ATOM      1  C   LIG    1      -26.643  75.558  31.962  0.00  0.00    +0.149 A 
ATOM      2  N   LIG    1      -25.444  75.190  31.486  0.00  0.00    -0.160 NA
ATOM      3  N   LIG    1      -24.625  76.238  31.727  0.00  0.00    -0.218 N 
ATOM      4  C   LIG    1      -25.249  77.210  32.508  0.00  0.00    +0.129 A 
ATOM      5  C   LIG    1      -26.569  76.825  32.596  0.00  0.00    +0.078 A 
ENDROOT
BRANCH   3   6
ATOM      6  C   LIG    1      -23.303  76.232  31.207  0.00  0.00    +0.067 A 
ATOM      7  C   LIG    1      -23.029  76.723  29.927  0.00  0.00    +0.028 A 
ATOM      8  C   LIG    1      -21.724  76.702  29.430  0.00  0.00    +0.002 A 
ATOM      9  C   LIG    1      -20.693  76.163  30.197  0.00  0.00    +0.000 A 
ATOM     10  C   LIG    1      -20.965  75.647  31.463  0.00  0.00    +0.002 A 
ATOM     11  C   LIG    1      -22.266  75.674  31.968  0.00  0.00    +0.028 A 
ENDBRANCH   3   6
BRANCH   4  12
ATOM     12  N   LIG    1      -24.643  78.288  33.165  0.00  0.00    -0.266 N 
ATOM     13  H   LIG    1      -24.724  79.205  32.721  0.00  0.00    +0.157 HD
ATOM     14  C   LIG    1      -23.905  78.164  34.385  0.00  0.00    +0.251 C 
ATOM     15  O   LIG    1      -23.828  77.076  34.962  0.00  0.00    -0.270 OA
BRANCH  14  16
ATOM     16  C   LIG    1      -23.217  79.347  34.924  0.00  0.00    +0.056 A 
ATOM     17  C   LIG    1      -21.892  79.703  34.630  0.00  0.00    +0.056 A 
ATOM     18 CL   LIG    1      -20.899  78.858  33.513  0.00  0.00    -0.083 Cl
ATOM     19  C   LIG    1      -21.323  80.829  35.219  0.00  0.00    +0.059 A 
ATOM     20  C   LIG    1      -22.079  81.633  36.065  0.00  0.00    +0.134 A 
ATOM     21  F   LIG    1      -21.461  82.685  36.618  0.00  0.00    -0.205 F 
ATOM     22  C   LIG    1      -23.429  81.366  36.330  0.00  0.00    +0.036 A 
ATOM     23  C   LIG    1      -23.967  80.204  35.763  0.00  0.00    +0.027 A 
BRANCH  22  24
ATOM     24  C   LIG    1      -24.281  82.274  37.124  0.00  0.00    +0.074 A 
ATOM     25  N   LIG    1      -25.427  82.675  36.517  0.00  0.00    -0.255 NA
ATOM     26  C   LIG    1      -26.210  83.563  37.173  0.00  0.00    +0.111 A 
ATOM     27  C   LIG    1      -25.908  84.085  38.417  0.00  0.00    +0.020 A 
ATOM     28  C   LIG    1      -24.737  83.670  39.032  0.00  0.00    +0.004 A 
ATOM     29  C   LIG    1      -23.912  82.758  38.379  0.00  0.00    +0.028 A 
ENDBRANCH  22  24
ENDBRANCH  14  16
ENDBRANCH   4  12
BRANCH   1  31
ATOM     30  N   LIG    1      -28.984  75.202  31.856  0.00  0.00    -0.245 NA
ATOM     31  C   LIG    1      -27.814  74.685  31.875  0.00  0.00    +0.236 C 
BRANCH  31  32
ATOM     32  O   LIG    1      -27.527  73.366  31.862  0.00  0.00    -0.491 OA
ATOM     33  H   LIG    1      -28.189  72.827  32.308  0.00  0.00    +0.294 HD
ENDBRANCH  31  32
BRANCH  30  34
ATOM     34  C   LIG    1      -30.208  74.423  31.753  0.00  0.00    +0.180 C 
BRANCH  34  38
ATOM     35  C   LIG    1      -32.659  75.991  28.514  0.00  0.00    +0.297 C 
ATOM     36  C   LIG    1      -32.910  74.607  29.051  0.00  0.00    +0.078 C 
ATOM     37  C   LIG    1      -32.108  74.161  30.039  0.00  0.00    +0.062 C 
ATOM     38  C   LIG    1      -31.025  74.972  30.606  0.00  0.00    -0.003 C 
ATOM     39  C   LIG    1      -30.820  76.193  30.074  0.00  0.00    +0.189 C 
ATOM     40  N   LIG    1      -31.599  76.685  29.056  0.00  0.00    -0.209 N 
ATOM     41  H   LIG    1      -31.483  77.643  28.754  0.00  0.00    +0.298 HD
BRANCH  35  43
ATOM     42  C   LIG    1      -32.822  77.768  26.943  0.00  0.00    +0.332 C 
ATOM     43  N   LIG    1      -33.353  76.583  27.597  0.00  0.00    -0.057 NA
ENDBRANCH  35  43
ENDBRANCH  34  38
ENDBRANCH  30  34
ENDBRANCH   1  31
TORSDOF 9
ENDMDL
MODEL 5
REMARK VINA RESULT:      -6.5      5.734     10.856
REMARK  Name = pdb/CHEMBL3904287.pdb
REMARK                            x       y       z     vdW  Elec       q    Type
REMARK                         _______ _______ _______ _____ _____    ______ ____
ROOT
ATOM      1  C   LIG    1      -31.545  74.593  29.987  0.00  0.00    +0.149 A 
ATOM      2  N   LIG    1      -31.755  75.915  29.893  0.00  0.00    -0.160 NA
ATOM      3  N   LIG    1      -32.657  76.065  28.897  0.00  0.00    -0.218 N 
ATOM      4  C   LIG    1      -33.156  74.837  28.465  0.00  0.00    +0.129 A 
ATOM      5  C   LIG    1      -32.391  73.882  29.097  0.00  0.00    +0.078 A 
ENDROOT
BRANCH   3   6
ATOM      6  C   LIG    1      -32.988  77.369  28.439  0.00  0.00    +0.067 A 
ATOM      7  C   LIG    1      -34.014  78.105  29.038  0.00  0.00    +0.028 A 
ATOM      8  C   LIG    1      -34.329  79.383  28.569  0.00  0.00    +0.002 A 
ATOM      9  C   LIG    1      -33.641  79.918  27.482  0.00  0.00    +0.000 A 
ATOM     10  C   LIG    1      -32.635  79.177  26.864  0.00  0.00    +0.002 A 
ATOM     11  C   LIG    1      -32.309  77.903  27.334  0.00  0.00    +0.028 A 
ENDBRANCH   3   6
BRANCH   4  12
ATOM     12  N   LIG    1      -34.274  74.615  27.651  0.00  0.00    -0.266 N 
ATOM     13  H   LIG    1      -34.095  74.338  26.684  0.00  0.00    +0.157 HD
ATOM     14  C   LIG    1      -35.625  74.786  28.092  0.00  0.00    +0.251 C 
ATOM     15  O   LIG    1      -35.869  75.079  29.266  0.00  0.00    -0.270 OA
BRANCH  14  16
ATOM     16  C   LIG    1      -36.717  74.633  27.117  0.00  0.00    +0.056 A 
ATOM     17  C   LIG    1      -37.264  73.403  26.720  0.00  0.00    +0.056 A 
ATOM     18 CL   LIG    1      -36.804  71.890  27.386  0.00  0.00    -0.083 Cl
ATOM     19  C   LIG    1      -38.277  73.366  25.765  0.00  0.00    +0.059 A 
ATOM     20  C   LIG    1      -38.784  74.547  25.235  0.00  0.00    +0.134 A 
ATOM     21  F   LIG    1      -39.738  74.437  24.302  0.00  0.00    -0.205 F 
ATOM     22  C   LIG    1      -38.326  75.803  25.657  0.00  0.00    +0.036 A 
ATOM     23  C   LIG    1      -37.276  75.816  26.583  0.00  0.00    +0.027 A 
BRANCH  22  24
ATOM     24  C   LIG    1      -38.936  77.068  25.199  0.00  0.00    +0.074 A 
ATOM     25  N   LIG    1      -39.618  77.761  26.146  0.00  0.00    -0.255 NA
ATOM     26  C   LIG    1      -40.256  78.891  25.763  0.00  0.00    +0.111 A 
ATOM     27  C   LIG    1      -40.254  79.377  24.469  0.00  0.00    +0.020 A 
ATOM     28  C   LIG    1      -39.554  78.666  23.507  0.00  0.00    +0.004 A 
ATOM     29  C   LIG    1      -38.891  77.498  23.873  0.00  0.00    +0.028 A 
ENDBRANCH  22  24
ENDBRANCH  14  16
ENDBRANCH   4  12
BRANCH   1  31
ATOM     30  N   LIG    1      -29.793  74.792  31.571  0.00  0.00    -0.245 NA
ATOM     31  C   LIG    1      -30.609  74.023  30.955  0.00  0.00    +0.236 C 
BRANCH  31  32
ATOM     32  O   LIG    1      -30.679  72.680  31.074  0.00  0.00    -0.491 OA
ATOM     33  H   LIG    1      -29.820  72.247  31.030  0.00  0.00    +0.294 HD
ENDBRANCH  31  32
BRANCH  30  34
ATOM     34  C   LIG    1      -28.838  74.326  32.563  0.00  0.00    +0.180 C 
BRANCH  34  38
ATOM     35  C   LIG    1      -24.857  75.407  31.169  0.00  0.00    +0.297 C 
ATOM     36  C   LIG    1      -25.196  73.966  31.449  0.00  0.00    +0.078 C 
ATOM     37  C   LIG    1      -26.435  73.688  31.901  0.00  0.00    +0.062 C 
ATOM     38  C   LIG    1      -27.451  74.724  32.111  0.00  0.00    -0.003 C 
ATOM     39  C   LIG    1      -27.093  76.002  31.875  0.00  0.00    +0.189 C 
ATOM     40  N   LIG    1      -25.838  76.337  31.431  0.00  0.00    -0.209 N 
ATOM     41  H   LIG    1      -25.639  77.292  31.165  0.00  0.00    +0.298 HD
BRANCH  35  43
ATOM     42  C   LIG    1      -23.545  77.266  30.481  0.00  0.00    +0.332 C 
ATOM     43  N   LIG    1      -23.732  75.841  30.701  0.00  0.00    -0.057 NA
ENDBRANCH  35  43
ENDBRANCH  34  38
ENDBRANCH  30  34
ENDBRANCH   1  31
TORSDOF 9
ENDMDL
MODEL 6
REMARK VINA RESULT:      -6.5      9.190     16.971
REMARK  Name = pdb/CHEMBL3904287.pdb
REMARK                            x       y       z     vdW  Elec       q    Type
REMARK                         _______ _______ _______ _____ _____    ______ ____
ROOT
ATOM      1  C   LIG    1      -31.934  87.187  30.444  0.00  0.00    +0.149 A 
ATOM      2  N   LIG    1      -33.154  87.743  30.498  0.00  0.00    -0.160 NA
ATOM      3  N   LIG    1      -33.962  86.900  29.819  0.00  0.00    -0.218 N 
ATOM      4  C   LIG    1      -33.303  85.720  29.474  0.00  0.00    +0.129 A 
ATOM      5  C   LIG    1      -31.980  85.927  29.795  0.00  0.00    +0.078 A 
ENDROOT
BRANCH   3   6
ATOM      6  C   LIG    1      -35.308  87.273  29.559  0.00  0.00    +0.067 A 
ATOM      7  C   LIG    1      -36.340  86.901  30.425  0.00  0.00    +0.028 A 
ATOM      8  C   LIG    1      -37.658  87.271  30.149  0.00  0.00    +0.002 A 
ATOM      9  C   LIG    1      -37.955  87.989  28.993  0.00  0.00    +0.000 A 
ATOM     10  C   LIG    1      -36.934  88.339  28.111  0.00  0.00    +0.002 A 
ATOM     11  C   LIG    1      -35.613  87.980  28.387  0.00  0.00    +0.028 A 
ENDBRANCH   3   6
BRANCH   4  12
ATOM     12  N   LIG    1      -33.879  84.532  29.008  0.00  0.00    -0.266 N 
ATOM     13  H   LIG    1      -33.794  84.337  28.008  0.00  0.00    +0.157 HD
ATOM     14  C   LIG    1      -34.594  83.613  29.841  0.00  0.00    +0.251 C 
ATOM     15  O   LIG    1      -34.674  83.804  31.058  0.00  0.00    -0.270 OA
BRANCH  14  16
ATOM     16  C   LIG    1      -35.252  82.453  29.222  0.00  0.00    +0.056 A 
ATOM     17  C   LIG    1      -36.627  82.367  28.951  0.00  0.00    +0.056 A 
ATOM     18 CL   LIG    1      -37.737  83.648  29.216  0.00  0.00    -0.083 Cl
ATOM     19  C   LIG    1      -37.156  81.209  28.388  0.00  0.00    +0.059 A 
ATOM     20  C   LIG    1      -36.321  80.150  28.049  0.00  0.00    +0.134 A 
ATOM     21  F   LIG    1      -36.901  79.056  27.537  0.00  0.00    -0.205 F 
ATOM     22  C   LIG    1      -34.932  80.217  28.226  0.00  0.00    +0.036 A 
ATOM     23  C   LIG    1      -34.427  81.372  28.835  0.00  0.00    +0.027 A 
BRANCH  22  24
ATOM     24  C   LIG    1      -34.017  79.157  27.759  0.00  0.00    +0.074 A 
ATOM     25  N   LIG    1      -33.155  79.524  26.776  0.00  0.00    -0.255 NA
ATOM     26  C   LIG    1      -32.342  78.571  26.263  0.00  0.00    +0.111 A 
ATOM     27  C   LIG    1      -32.342  77.252  26.676  0.00  0.00    +0.020 A 
ATOM     28  C   LIG    1      -33.224  76.884  27.681  0.00  0.00    +0.004 A 
ATOM     29  C   LIG    1      -34.073  77.843  28.226  0.00  0.00    +0.028 A 
ENDBRANCH  22  24
ENDBRANCH  14  16
ENDBRANCH   4  12
BRANCH   1  31
ATOM     30  N   LIG    1      -30.642  87.803  32.334  0.00  0.00    -0.245 NA
ATOM     31  C   LIG    1      -30.766  87.817  31.061  0.00  0.00    +0.236 C 
BRANCH  31  32
ATOM     32  O   LIG    1      -29.923  88.406  30.187  0.00  0.00    -0.491 OA
ATOM     33  H   LIG    1      -29.874  89.363  30.287  0.00  0.00    +0.294 HD
ENDBRANCH  31  32
BRANCH  30  34
ATOM     34  C   LIG    1      -29.512  88.385  33.040  0.00  0.00    +0.180 C 
BRANCH  34  38
ATOM     35  C   LIG    1      -27.754  85.230  35.472  0.00  0.00    +0.297 C 
ATOM     36  C   LIG    1      -29.158  85.088  34.948  0.00  0.00    +0.078 C 
ATOM     37  C   LIG    1      -29.664  86.103  34.219  0.00  0.00    +0.062 C 
ATOM     38  C   LIG    1      -28.897  87.316  33.915  0.00  0.00    -0.003 C 
ATOM     39  C   LIG    1      -27.655  87.410  34.429  0.00  0.00    +0.189 C 
ATOM     40  N   LIG    1      -27.103  86.410  35.191  0.00  0.00    -0.209 N 
ATOM     41  H   LIG    1      -26.133  86.471  35.471  0.00  0.00    +0.298 HD
BRANCH  35  43
ATOM     42  C   LIG    1      -27.036  84.454  37.601  0.00  0.00    +0.332 C 
ATOM     43  N   LIG    1      -27.109  84.340  36.153  0.00  0.00    -0.057 NA
ENDBRANCH  35  43
ENDBRANCH  34  38
ENDBRANCH  30  34
ENDBRANCH   1  31
TORSDOF 9
ENDMDL
MODEL 7
REMARK VINA RESULT:      -6.5      5.625      9.651
REMARK  Name = pdb/CHEMBL3904287.pdb
REMARK                            x       y       z     vdW  Elec       q    Type
REMARK                         _______ _______ _______ _____ _____    ______ ____
ROOT
ATOM      1  C   LIG    1      -31.662  74.376  29.934  0.00  0.00    +0.149 A 
ATOM      2  N   LIG    1      -31.805  75.701  29.780  0.00  0.00    -0.160 NA
ATOM      3  N   LIG    1      -32.679  75.850  28.760  0.00  0.00    -0.218 N 
ATOM      4  C   LIG    1      -33.230  74.630  28.371  0.00  0.00    +0.129 A 
ATOM      5  C   LIG    1      -32.525  73.668  29.059  0.00  0.00    +0.078 A 
ENDROOT
BRANCH   3   6
ATOM      6  C   LIG    1      -32.937  77.147  28.240  0.00  0.00    +0.067 A 
ATOM      7  C   LIG    1      -32.246  77.626  27.123  0.00  0.00    +0.028 A 
ATOM      8  C   LIG    1      -32.509  78.907  26.630  0.00  0.00    +0.002 A 
ATOM      9  C   LIG    1      -33.439  79.724  27.268  0.00  0.00    +0.000 A 
ATOM     10  C   LIG    1      -34.111  79.262  28.398  0.00  0.00    +0.002 A 
ATOM     11  C   LIG    1      -33.860  77.979  28.889  0.00  0.00    +0.028 A 
ENDBRANCH   3   6
BRANCH   4  12
ATOM     12  N   LIG    1      -34.342  74.426  27.545  0.00  0.00    -0.266 N 
ATOM     13  H   LIG    1      -34.158  74.134  26.583  0.00  0.00    +0.157 HD
ATOM     14  C   LIG    1      -35.695  74.635  27.965  0.00  0.00    +0.251 C 
ATOM     15  O   LIG    1      -35.946  74.947  29.132  0.00  0.00    -0.270 OA
BRANCH  14  16
ATOM     16  C   LIG    1      -36.776  74.498  26.978  0.00  0.00    +0.056 A 
ATOM     17  C   LIG    1      -37.289  73.274  26.521  0.00  0.00    +0.056 A 
ATOM     18 CL   LIG    1      -36.793  71.745  27.121  0.00  0.00    -0.083 Cl
ATOM     19  C   LIG    1      -38.296  73.254  25.560  0.00  0.00    +0.059 A 
ATOM     20  C   LIG    1      -38.831  74.445  25.081  0.00  0.00    +0.134 A 
ATOM     21  F   LIG    1      -39.777  74.352  24.137  0.00  0.00    -0.205 F 
ATOM     22  C   LIG    1      -38.409  75.692  25.561  0.00  0.00    +0.036 A 
ATOM     23  C   LIG    1      -37.364  75.690  26.494  0.00  0.00    +0.027 A 
BRANCH  22  24
ATOM     24  C   LIG    1      -39.049  76.960  25.158  0.00  0.00    +0.074 A 
ATOM     25  N   LIG    1      -39.986  77.438  26.016  0.00  0.00    -0.255 NA
ATOM     26  C   LIG    1      -40.653  78.559  25.660  0.00  0.00    +0.111 A 
ATOM     27  C   LIG    1      -40.439  79.241  24.477  0.00  0.00    +0.020 A 
ATOM     28  C   LIG    1      -39.480  78.749  23.605  0.00  0.00    +0.004 A 
ATOM     29  C   LIG    1      -38.779  77.595  23.945  0.00  0.00    +0.028 A 
ENDBRANCH  22  24
ENDBRANCH  14  16
ENDBRANCH   4  12
BRANCH   1  31
ATOM     30  N   LIG    1      -30.745  72.536  31.115  0.00  0.00    -0.245 NA
ATOM     31  C   LIG    1      -30.772  73.804  30.945  0.00  0.00    +0.236 C 
BRANCH  31  32
ATOM     32  O   LIG    1      -30.072  74.715  31.653  0.00  0.00    -0.491 OA
ATOM     33  H   LIG    1      -29.185  74.868  31.308  0.00  0.00    +0.294 HD
ENDBRANCH  31  32
BRANCH  30  34
ATOM     34  C   LIG    1      -29.884  71.870  32.079  0.00  0.00    +0.180 C 
BRANCH  34  38
ATOM     35  C   LIG    1      -26.403  70.212  30.056  0.00  0.00    +0.297 C 
ATOM     36  C   LIG    1      -26.248  71.374  31.000  0.00  0.00    +0.078 C 
ATOM     37  C   LIG    1      -27.360  71.865  31.583  0.00  0.00    +0.062 C 
ATOM     38  C   LIG    1      -28.693  71.303  31.341  0.00  0.00    -0.003 C 
ATOM     39  C   LIG    1      -28.786  70.281  30.467  0.00  0.00    +0.189 C 
ATOM     40  N   LIG    1      -27.685  69.759  29.835  0.00  0.00    -0.209 N 
ATOM     41  H   LIG    1      -27.780  68.927  29.268  0.00  0.00    +0.298 HD
BRANCH  35  43
ATOM     42  C   LIG    1      -24.221  70.323  29.119  0.00  0.00    +0.332 C 
ATOM     43  N   LIG    1      -25.441  69.602  29.444  0.00  0.00    -0.057 NA
ENDBRANCH  35  43
ENDBRANCH  34  38
ENDBRANCH  30  34
ENDBRANCH   1  31
TORSDOF 9
ENDMDL
MODEL 8
REMARK VINA RESULT:      -6.5     16.875     20.764
REMARK  Name = pdb/CHEMBL3904287.pdb
REMARK                            x       y       z     vdW  Elec       q    Type
REMARK                         _______ _______ _______ _____ _____    ______ ____
ROOT
ATOM      1  C   LIG    1      -22.952  81.576  15.485  0.00  0.00    +0.149 A 
ATOM      2  N   LIG    1      -22.092  80.548  15.548  0.00  0.00    -0.160 NA
ATOM      3  N   LIG    1      -22.768  79.484  15.061  0.00  0.00    -0.218 N 
ATOM      4  C   LIG    1      -24.001  79.858  14.528  0.00  0.00    +0.129 A 
ATOM      5  C   LIG    1      -24.167  81.182  14.868  0.00  0.00    +0.078 A 
ENDROOT
BRANCH   3   6
ATOM      6  C   LIG    1      -22.185  78.190  15.128  0.00  0.00    +0.067 A 
ATOM      7  C   LIG    1      -22.976  77.051  15.304  0.00  0.00    +0.028 A 
ATOM      8  C   LIG    1      -22.383  75.788  15.373  0.00  0.00    +0.002 A 
ATOM      9  C   LIG    1      -20.998  75.660  15.298  0.00  0.00    +0.000 A 
ATOM     10  C   LIG    1      -20.203  76.795  15.150  0.00  0.00    +0.002 A 
ATOM     11  C   LIG    1      -20.790  78.059  15.070  0.00  0.00    +0.028 A 
ENDBRANCH   3   6
BRANCH   4  12
ATOM     12  N   LIG    1      -24.844  79.087  13.717  0.00  0.00    -0.266 N 
ATOM     13  H   LIG    1      -24.638  79.074  12.716  0.00  0.00    +0.157 HD
ATOM     14  C   LIG    1      -25.974  78.358  14.209  0.00  0.00    +0.251 C 
ATOM     15  O   LIG    1      -26.218  78.324  15.418  0.00  0.00    -0.270 OA
BRANCH  14  16
ATOM     16  C   LIG    1      -26.853  77.674  13.249  0.00  0.00    +0.056 A 
ATOM     17  C   LIG    1      -26.821  76.297  12.979  0.00  0.00    +0.056 A 
ATOM     18 CL   LIG    1      -25.810  75.183  13.806  0.00  0.00    -0.083 Cl
ATOM     19  C   LIG    1      -27.678  75.752  12.027  0.00  0.00    +0.059 A 
ATOM     20  C   LIG    1      -28.601  76.559  11.371  0.00  0.00    +0.134 A 
ATOM     21  F   LIG    1      -29.375  75.974  10.448  0.00  0.00    -0.205 F 
ATOM     22  C   LIG    1      -28.726  77.925  11.660  0.00  0.00    +0.036 A 
ATOM     23  C   LIG    1      -27.824  78.461  12.588  0.00  0.00    +0.027 A 
BRANCH  22  24
ATOM     24  C   LIG    1      -29.780  78.772  11.067  0.00  0.00    +0.074 A 
ATOM     25  N   LIG    1      -30.840  79.032  11.874  0.00  0.00    -0.255 NA
ATOM     26  C   LIG    1      -31.867  79.745  11.356  0.00  0.00    +0.111 A 
ATOM     27  C   LIG    1      -31.900  80.217  10.057  0.00  0.00    +0.020 A 
ATOM     28  C   LIG    1      -30.813  79.950   9.239  0.00  0.00    +0.004 A 
ATOM     29  C   LIG    1      -29.744  79.217   9.746  0.00  0.00    +0.028 A 
ENDBRANCH  22  24
ENDBRANCH  14  16
ENDBRANCH   4  12
BRANCH   1  31
ATOM     30  N   LIG    1      -22.703  83.907  15.136  0.00  0.00    -0.245 NA
ATOM     31  C   LIG    1      -22.591  82.918  15.941  0.00  0.00    +0.236 C 
BRANCH  31  32
ATOM     32  O   LIG    1      -22.122  82.971  17.205  0.00  0.00    -0.491 OA
ATOM     33  H   LIG    1      -21.691  82.158  17.488  0.00  0.00    +0.294 HD
ENDBRANCH  31  32
BRANCH  30  34
ATOM     34  C   LIG    1      -22.388  85.280  15.498  0.00  0.00    +0.180 C 
BRANCH  34  38
ATOM     35  C   LIG    1      -23.274  87.778  12.044  0.00  0.00    +0.297 C 
ATOM     36  C   LIG    1      -23.402  86.280  11.948  0.00  0.00    +0.078 C 
ATOM     37  C   LIG    1      -23.093  85.551  13.039  0.00  0.00    +0.062 C 
ATOM     38  C   LIG    1      -22.658  86.161  14.300  0.00  0.00    -0.003 C 
ATOM     39  C   LIG    1      -22.531  87.503  14.330  0.00  0.00    +0.189 C 
ATOM     40  N   LIG    1      -22.817  88.287  13.239  0.00  0.00    -0.209 N 
ATOM     41  H   LIG    1      -22.811  89.294  13.330  0.00  0.00    +0.298 HD
BRANCH  35  43
ATOM     42  C   LIG    1      -24.265  89.851  11.437  0.00  0.00    +0.332 C 
ATOM     43  N   LIG    1      -23.562  88.622  11.107  0.00  0.00    -0.057 NA
ENDBRANCH  35  43
ENDBRANCH  34  38
ENDBRANCH  30  34
ENDBRANCH   1  31
TORSDOF 9
ENDMDL
MODEL 9
REMARK VINA RESULT:      -6.5      4.217     10.139
REMARK  Name = pdb/CHEMBL3904287.pdb
REMARK                            x       y       z     vdW  Elec       q    Type
REMARK                         _______ _______ _______ _____ _____    ______ ____
ROOT
ATOM      1  C   LIG    1      -32.336  74.306  30.135  0.00  0.00    +0.149 A 
ATOM      2  N   LIG    1      -32.334  75.638  29.981  0.00  0.00    -0.160 NA
ATOM      3  N   LIG    1      -33.093  75.874  28.887  0.00  0.00    -0.218 N 
ATOM      4  C   LIG    1      -33.721  74.714  28.437  0.00  0.00    +0.129 A 
ATOM      5  C   LIG    1      -33.179  73.686  29.177  0.00  0.00    +0.078 A 
ENDROOT
BRANCH   3   6
ATOM      6  C   LIG    1      -33.174  77.190  28.359  0.00  0.00    +0.067 A 
ATOM      7  C   LIG    1      -34.091  78.116  28.865  0.00  0.00    +0.028 A 
ATOM      8  C   LIG    1      -34.161  79.403  28.328  0.00  0.00    +0.002 A 
ATOM      9  C   LIG    1      -33.337  79.762  27.264  0.00  0.00    +0.000 A 
ATOM     10  C   LIG    1      -32.440  78.835  26.736  0.00  0.00    +0.002 A 
ATOM     11  C   LIG    1      -32.358  77.549  27.276  0.00  0.00    +0.028 A 
ENDBRANCH   3   6
BRANCH   4  12
ATOM     12  N   LIG    1      -34.767  74.621  27.511  0.00  0.00    -0.266 N 
ATOM     13  H   LIG    1      -34.513  74.405  26.545  0.00  0.00    +0.157 HD
ATOM     14  C   LIG    1      -36.143  74.842  27.839  0.00  0.00    +0.251 C 
ATOM     15  O   LIG    1      -36.481  75.062  29.005  0.00  0.00    -0.270 OA
BRANCH  14  16
ATOM     16  C   LIG    1      -37.144  74.828  26.761  0.00  0.00    +0.056 A 
ATOM     17  C   LIG    1      -37.771  75.970  26.239  0.00  0.00    +0.056 A 
ATOM     18 CL   LIG    1      -37.391  77.573  26.719  0.00  0.00    -0.083 Cl
ATOM     19  C   LIG    1      -38.729  75.845  25.237  0.00  0.00    +0.059 A 
ATOM     20  C   LIG    1      -39.037  74.593  24.715  0.00  0.00    +0.134 A 
ATOM     21  F   LIG    1      -39.988  74.543  23.773  0.00  0.00    -0.205 F 
ATOM     22  C   LIG    1      -38.383  73.430  25.146  0.00  0.00    +0.036 A 
ATOM     23  C   LIG    1      -37.456  73.574  26.186  0.00  0.00    +0.027 A 
BRANCH  22  24
ATOM     24  C   LIG    1      -38.606  72.112  24.519  0.00  0.00    +0.074 A 
ATOM     25  N   LIG    1      -37.486  71.377  24.299  0.00  0.00    -0.255 NA
ATOM     26  C   LIG    1      -37.627  70.191  23.662  0.00  0.00    +0.111 A 
ATOM     27  C   LIG    1      -38.838  69.690  23.223  0.00  0.00    +0.020 A 
ATOM     28  C   LIG    1      -39.978  70.445  23.454  0.00  0.00    +0.004 A 
ATOM     29  C   LIG    1      -39.862  71.670  24.104  0.00  0.00    +0.028 A 
ENDBRANCH  22  24
ENDBRANCH  14  16
ENDBRANCH   4  12
BRANCH   1  31
ATOM     30  N   LIG    1      -30.881  72.624  30.957  0.00  0.00    -0.245 NA
ATOM     31  C   LIG    1      -31.603  73.648  31.217  0.00  0.00    +0.236 C 
BRANCH  31  32
ATOM     32  O   LIG    1      -31.804  74.190  32.437  0.00  0.00    -0.491 OA
ATOM     33  H   LIG    1      -32.356  74.978  32.419  0.00  0.00    +0.294 HD
ENDBRANCH  31  32
BRANCH  30  34
ATOM     34  C   LIG    1      -30.102  71.912  31.957  0.00  0.00    +0.180 C 
BRANCH  34  38
ATOM     35  C   LIG    1      -26.360  70.534  30.210  0.00  0.00    +0.297 C 
ATOM     36  C   LIG    1      -26.358  71.653  31.217  0.00  0.00    +0.078 C 
ATOM     37  C   LIG    1      -27.546  72.057  31.711  0.00  0.00    +0.062 C 
ATOM     38  C   LIG    1      -28.817  71.443  31.314  0.00  0.00    -0.003 C 
ATOM     39  C   LIG    1      -28.772  70.465  30.388  0.00  0.00    +0.189 C 
ATOM     40  N   LIG    1      -27.589  70.030  29.844  0.00  0.00    -0.209 N 
ATOM     41  H   LIG    1      -27.584  69.225  29.232  0.00  0.00    +0.298 HD
BRANCH  35  43
ATOM     42  C   LIG    1      -25.412  69.397  28.350  0.00  0.00    +0.332 C 
ATOM     43  N   LIG    1      -25.312  70.005  29.667  0.00  0.00    -0.057 NA
ENDBRANCH  35  43
ENDBRANCH  34  38
ENDBRANCH  30  34
ENDBRANCH   1  31
TORSDOF 9
ENDMDL
