MODEL 1
REMARK VINA RESULT:      -5.4      0.000      0.000
REMARK  Name = pdb/CHEMBL3676024.pdb
REMARK                            x       y       z     vdW  Elec       q    Type
REMARK                         _______ _______ _______ _____ _____    ______ ____
ROOT
ATOM      1  C   LIG    1      -24.882  77.665  32.379  0.00  0.00    +0.100 A 
ATOM      2  C   LIG    1      -23.616  77.567  31.811  0.00  0.00    +0.170 A 
ATOM      3  N   LIG    1      -22.348  77.744  32.315  0.00  0.00    -0.212 NA
ATOM      4  C   LIG    1      -21.324  77.525  31.512  0.00  0.00    +0.126 A 
ATOM      5  C   LIG    1      -21.524  77.158  30.060  0.00  0.00    +0.063 A 
ATOM      6  C   LIG    1      -22.774  77.017  29.618  0.00  0.00    +0.118 A 
ATOM      7  N   LIG    1      -23.836  77.201  30.479  0.00  0.00    -0.221 N 
ATOM      8  N   LIG    1      -25.149  77.075  30.182  0.00  0.00    -0.173 NA
ATOM      9  C   LIG    1      -25.764  77.340  31.327  0.00  0.00    +0.150 A 
ENDROOT
BRANCH   1  13
ATOM     10  C   LIG    1      -24.759  79.507  35.615  0.00  0.00    +0.128 C 
ATOM     11  N   LIG    1      -24.476  78.984  34.307  0.00  0.00    -0.314 N 
ATOM     12  H   LIG    1      -23.679  79.335  33.774  0.00  0.00    +0.149 HD
ATOM     13  C   LIG    1      -25.263  78.026  33.725  0.00  0.00    +0.249 C 
ATOM     14  O   LIG    1      -26.258  77.540  34.276  0.00  0.00    -0.270 OA
ENDBRANCH   1  13
BRANCH   4  15
ATOM     15  N   LIG    1      -20.023  77.649  31.992  0.00  0.00    -0.308 N 
ATOM     16  C   LIG    1      -19.645  78.659  33.009  0.00  0.00    +0.110 C 
ATOM     17  C   LIG    1      -18.163  78.953  32.730  0.00  0.00    +0.029 C 
ATOM     18  C   LIG    1      -17.669  77.695  32.035  0.00  0.00    +0.021 C 
ATOM     19  C   LIG    1      -18.861  77.328  31.159  0.00  0.00    +0.107 C 
BRANCH  16  20
ATOM     20  C   LIG    1      -19.904  78.192  34.427  0.00  0.00    +0.037 A 
ATOM     21  C   LIG    1      -20.811  78.881  35.245  0.00  0.00    +0.220 A 
ATOM     22  N   LIG    1      -21.183  78.476  36.483  0.00  0.00    -0.218 NA
ATOM     23  C   LIG    1      -20.602  77.349  36.954  0.00  0.00    +0.153 A 
ATOM     24  C   LIG    1      -19.658  76.628  36.248  0.00  0.00    +0.142 A 
ATOM     25  F   LIG    1      -19.108  75.528  36.774  0.00  0.00    -0.204 F 
ATOM     26  C   LIG    1      -19.301  77.050  34.975  0.00  0.00    +0.050 A 
BRANCH  21  27
ATOM     27  O   LIG    1      -21.416  80.004  34.721  0.00  0.00    -0.479 OA
ATOM     28  C   LIG    1      -21.111  81.178  35.470  0.00  0.00    +0.279 C 
ENDBRANCH  21  27
ENDBRANCH  16  20
ENDBRANCH   4  15
TORSDOF 4
ENDMDL
MODEL 2
REMARK VINA RESULT:      -5.1      2.435      5.125
REMARK  Name = pdb/CHEMBL3676024.pdb
REMARK                            x       y       z     vdW  Elec       q    Type
REMARK                         _______ _______ _______ _____ _____    ______ ____
ROOT
ATOM      1  C   LIG    1      -20.737  76.974  30.769  0.00  0.00    +0.100 A 
ATOM      2  C   LIG    1      -22.021  77.213  31.249  0.00  0.00    +0.170 A 
ATOM      3  N   LIG    1      -22.513  77.505  32.500  0.00  0.00    -0.212 NA
ATOM      4  C   LIG    1      -23.808  77.729  32.622  0.00  0.00    +0.126 A 
ATOM      5  C   LIG    1      -24.744  77.603  31.442  0.00  0.00    +0.063 A 
ATOM      6  C   LIG    1      -24.217  77.299  30.257  0.00  0.00    +0.118 A 
ATOM      7  N   LIG    1      -22.856  77.115  30.131  0.00  0.00    -0.221 N 
ATOM      8  N   LIG    1      -22.180  76.824  28.997  0.00  0.00    -0.173 NA
ATOM      9  C   LIG    1      -20.914  76.755  29.387  0.00  0.00    +0.150 A 
ENDROOT
BRANCH   1  13
ATOM     10  C   LIG    1      -18.392  76.270  33.578  0.00  0.00    +0.128 C 
ATOM     11  N   LIG    1      -19.559  76.444  32.758  0.00  0.00    -0.314 N 
ATOM     12  H   LIG    1      -20.481  76.187  33.115  0.00  0.00    +0.149 HD
ATOM     13  C   LIG    1      -19.480  76.933  31.481  0.00  0.00    +0.249 C 
ATOM     14  O   LIG    1      -18.415  77.263  30.947  0.00  0.00    -0.270 OA
ENDBRANCH   1  13
BRANCH   4  15
ATOM     15  N   LIG    1      -24.342  78.072  33.861  0.00  0.00    -0.308 N 
ATOM     16  C   LIG    1      -23.544  78.028  35.109  0.00  0.00    +0.110 C 
ATOM     17  C   LIG    1      -24.573  77.758  36.217  0.00  0.00    +0.029 C 
ATOM     18  C   LIG    1      -25.877  78.277  35.634  0.00  0.00    +0.021 C 
ATOM     19  C   LIG    1      -25.758  77.862  34.172  0.00  0.00    +0.107 C 
BRANCH  16  20
ATOM     20  C   LIG    1      -22.739  79.292  35.337  0.00  0.00    +0.037 A 
ATOM     21  C   LIG    1      -21.342  79.235  35.426  0.00  0.00    +0.220 A 
ATOM     22  N   LIG    1      -20.537  80.320  35.522  0.00  0.00    -0.218 NA
ATOM     23  C   LIG    1      -21.147  81.526  35.569  0.00  0.00    +0.153 A 
ATOM     24  C   LIG    1      -22.519  81.686  35.542  0.00  0.00    +0.142 A 
ATOM     25  F   LIG    1      -23.065  82.906  35.607  0.00  0.00    -0.204 F 
ATOM     26  C   LIG    1      -23.326  80.562  35.428  0.00  0.00    +0.050 A 
BRANCH  21  27
ATOM     27  O   LIG    1      -20.747  77.994  35.336  0.00  0.00    -0.479 OA
ATOM     28  C   LIG    1      -20.110  77.612  36.552  0.00  0.00    +0.279 C 
ENDBRANCH  21  27
ENDBRANCH  16  20
ENDBRANCH   4  15
TORSDOF 4
ENDMDL
MODEL 3
REMARK VINA RESULT:      -5.1     12.866     15.437
REMARK  Name = pdb/CHEMBL3676024.pdb
REMARK                            x       y       z     vdW  Elec       q    Type
REMARK                         _______ _______ _______ _____ _____    ______ ____
ROOT
ATOM      1  C   LIG    1      -36.269  83.016  27.284  0.00  0.00    +0.100 A 
ATOM      2  C   LIG    1      -35.618  81.931  27.863  0.00  0.00    +0.170 A 
ATOM      3  N   LIG    1      -34.961  80.843  27.336  0.00  0.00    -0.212 NA
ATOM      4  C   LIG    1      -34.395  79.994  28.172  0.00  0.00    +0.126 A 
ATOM      5  C   LIG    1      -34.518  80.160  29.669  0.00  0.00    +0.063 A 
ATOM      6  C   LIG    1      -35.181  81.221  30.126  0.00  0.00    +0.118 A 
ATOM      7  N   LIG    1      -35.727  82.130  29.243  0.00  0.00    -0.221 N 
ATOM      8  N   LIG    1      -36.406  83.256  29.558  0.00  0.00    -0.173 NA
ATOM      9  C   LIG    1      -36.713  83.785  28.380  0.00  0.00    +0.150 A 
ENDROOT
BRANCH   1  13
ATOM     10  C   LIG    1      -38.138  83.357  24.079  0.00  0.00    +0.128 C 
ATOM     11  N   LIG    1      -37.739  83.045  25.424  0.00  0.00    -0.314 N 
ATOM     12  H   LIG    1      -38.403  82.616  26.070  0.00  0.00    +0.149 HD
ATOM     13  C   LIG    1      -36.482  83.326  25.888  0.00  0.00    +0.249 C 
ATOM     14  O   LIG    1      -35.605  83.855  25.195  0.00  0.00    -0.270 OA
ENDBRANCH   1  13
BRANCH   4  15
ATOM     15  N   LIG    1      -33.682  78.904  27.681  0.00  0.00    -0.308 N 
ATOM     16  C   LIG    1      -33.544  77.638  28.440  0.00  0.00    +0.110 C 
ATOM     17  C   LIG    1      -32.207  77.047  27.967  0.00  0.00    +0.029 C 
ATOM     18  C   LIG    1      -32.008  77.658  26.590  0.00  0.00    +0.021 C 
ATOM     19  C   LIG    1      -32.528  79.076  26.794  0.00  0.00    +0.107 C 
BRANCH  16  20
ATOM     20  C   LIG    1      -34.716  76.699  28.236  0.00  0.00    +0.037 A 
ATOM     21  C   LIG    1      -35.170  75.895  29.290  0.00  0.00    +0.220 A 
ATOM     22  N   LIG    1      -36.271  75.108  29.232  0.00  0.00    -0.218 NA
ATOM     23  C   LIG    1      -36.941  75.088  28.058  0.00  0.00    +0.153 A 
ATOM     24  C   LIG    1      -36.546  75.803  26.943  0.00  0.00    +0.142 A 
ATOM     25  F   LIG    1      -37.243  75.730  25.804  0.00  0.00    -0.204 F 
ATOM     26  C   LIG    1      -35.423  76.615  27.028  0.00  0.00    +0.050 A 
BRANCH  21  27
ATOM     27  O   LIG    1      -34.488  75.968  30.487  0.00  0.00    -0.479 OA
ATOM     28  C   LIG    1      -33.668  74.823  30.710  0.00  0.00    +0.279 C 
ENDBRANCH  21  27
ENDBRANCH  16  20
ENDBRANCH   4  15
TORSDOF 4
ENDMDL
MODEL 4
REMARK VINA RESULT:      -5.1      2.713      5.414
REMARK  Name = pdb/CHEMBL3676024.pdb
REMARK                            x       y       z     vdW  Elec       q    Type
REMARK                         _______ _______ _______ _____ _____    ______ ____
ROOT
ATOM      1  C   LIG    1      -22.949  79.960  35.811  0.00  0.00    +0.100 A 
ATOM      2  C   LIG    1      -21.954  79.456  34.978  0.00  0.00    +0.170 A 
ATOM      3  N   LIG    1      -21.990  78.725  33.813  0.00  0.00    -0.212 NA
ATOM      4  C   LIG    1      -20.844  78.436  33.225  0.00  0.00    +0.126 A 
ATOM      5  C   LIG    1      -19.521  78.832  33.839  0.00  0.00    +0.063 A 
ATOM      6  C   LIG    1      -19.543  79.523  34.978  0.00  0.00    +0.118 A 
ATOM      7  N   LIG    1      -20.748  79.862  35.559  0.00  0.00    -0.221 N 
ATOM      8  N   LIG    1      -20.927  80.572  36.695  0.00  0.00    -0.173 NA
ATOM      9  C   LIG    1      -22.246  80.636  36.828  0.00  0.00    +0.150 A 
ENDROOT
BRANCH   1  13
ATOM     10  C   LIG    1      -26.224  78.311  35.147  0.00  0.00    +0.128 C 
ATOM     11  N   LIG    1      -24.825  78.625  35.242  0.00  0.00    -0.314 N 
ATOM     12  H   LIG    1      -24.124  77.934  34.971  0.00  0.00    +0.149 HD
ATOM     13  C   LIG    1      -24.386  79.835  35.710  0.00  0.00    +0.249 C 
ATOM     14  O   LIG    1      -25.147  80.738  36.075  0.00  0.00    -0.270 OA
ENDBRANCH   1  13
BRANCH   4  15
ATOM     15  N   LIG    1      -20.836  77.737  32.022  0.00  0.00    -0.308 N 
ATOM     16  C   LIG    1      -21.475  76.408  31.872  0.00  0.00    +0.110 C 
ATOM     17  C   LIG    1      -20.673  75.716  30.759  0.00  0.00    +0.029 C 
ATOM     18  C   LIG    1      -20.085  76.871  29.965  0.00  0.00    +0.021 C 
ATOM     19  C   LIG    1      -19.734  77.865  31.065  0.00  0.00    +0.107 C 
BRANCH  16  20
ATOM     20  C   LIG    1      -22.958  76.499  31.571  0.00  0.00    +0.037 A 
ATOM     21  C   LIG    1      -23.833  75.500  32.018  0.00  0.00    +0.220 A 
ATOM     22  N   LIG    1      -25.181  75.551  31.888  0.00  0.00    -0.218 NA
ATOM     23  C   LIG    1      -25.689  76.630  31.250  0.00  0.00    +0.153 A 
ATOM     24  C   LIG    1      -24.907  77.642  30.726  0.00  0.00    +0.142 A 
ATOM     25  F   LIG    1      -25.469  78.678  30.091  0.00  0.00    -0.204 F 
ATOM     26  C   LIG    1      -23.530  77.579  30.883  0.00  0.00    +0.050 A 
BRANCH  21  27
ATOM     27  O   LIG    1      -23.288  74.432  32.699  0.00  0.00    -0.479 OA
ATOM     28  C   LIG    1      -23.880  74.254  33.983  0.00  0.00    +0.279 C 
ENDBRANCH  21  27
ENDBRANCH  16  20
ENDBRANCH   4  15
TORSDOF 4
ENDMDL
MODEL 5
REMARK VINA RESULT:      -5.0      2.637      5.917
REMARK  Name = pdb/CHEMBL3676024.pdb
REMARK                            x       y       z     vdW  Elec       q    Type
REMARK                         _______ _______ _______ _____ _____    ______ ____
ROOT
ATOM      1  C   LIG    1      -19.892  79.426  35.298  0.00  0.00    +0.100 A 
ATOM      2  C   LIG    1      -21.092  79.220  34.625  0.00  0.00    +0.170 A 
ATOM      3  N   LIG    1      -21.416  78.529  33.479  0.00  0.00    -0.212 NA
ATOM      4  C   LIG    1      -22.685  78.482  33.120  0.00  0.00    +0.126 A 
ATOM      5  C   LIG    1      -23.752  79.218  33.895  0.00  0.00    +0.063 A 
ATOM      6  C   LIG    1      -23.381  79.887  34.987  0.00  0.00    +0.118 A 
ATOM      7  N   LIG    1      -22.059  79.890  35.381  0.00  0.00    -0.221 N 
ATOM      8  N   LIG    1      -21.541  80.503  36.468  0.00  0.00    -0.173 NA
ATOM      9  C   LIG    1      -20.248  80.208  36.417  0.00  0.00    +0.150 A 
ENDROOT
BRANCH   1  13
ATOM     10  C   LIG    1      -17.093  78.260  33.134  0.00  0.00    +0.128 C 
ATOM     11  N   LIG    1      -18.376  78.656  33.647  0.00  0.00    -0.314 N 
ATOM     12  H   LIG    1      -19.181  78.718  33.022  0.00  0.00    +0.149 HD
ATOM     13  C   LIG    1      -18.559  78.979  34.965  0.00  0.00    +0.249 C 
ATOM     14  O   LIG    1      -17.651  78.949  35.803  0.00  0.00    -0.270 OA
ENDBRANCH   1  13
BRANCH   4  15
ATOM     15  N   LIG    1      -23.063  77.757  31.993  0.00  0.00    -0.308 N 
ATOM     16  C   LIG    1      -22.084  77.302  30.977  0.00  0.00    +0.110 C 
ATOM     17  C   LIG    1      -22.888  77.228  29.671  0.00  0.00    +0.029 C 
ATOM     18  C   LIG    1      -24.322  77.038  30.138  0.00  0.00    +0.021 C 
ATOM     19  C   LIG    1      -24.376  77.936  31.368  0.00  0.00    +0.107 C 
BRANCH  16  20
ATOM     20  C   LIG    1      -21.422  75.989  31.345  0.00  0.00    +0.037 A 
ATOM     21  C   LIG    1      -20.056  75.793  31.103  0.00  0.00    +0.220 A 
ATOM     22  N   LIG    1      -19.359  74.698  31.493  0.00  0.00    -0.218 NA
ATOM     23  C   LIG    1      -20.058  73.728  32.125  0.00  0.00    +0.153 A 
ATOM     24  C   LIG    1      -21.417  73.802  32.365  0.00  0.00    +0.142 A 
ATOM     25  F   LIG    1      -22.056  72.802  32.983  0.00  0.00    -0.204 F 
ATOM     26  C   LIG    1      -22.110  74.939  31.970  0.00  0.00    +0.050 A 
BRANCH  21  27
ATOM     27  O   LIG    1      -19.363  76.817  30.491  0.00  0.00    -0.479 OA
ATOM     28  C   LIG    1      -18.045  76.426  30.115  0.00  0.00    +0.279 C 
ENDBRANCH  21  27
ENDBRANCH  16  20
ENDBRANCH   4  15
TORSDOF 4
ENDMDL
MODEL 6
REMARK VINA RESULT:      -5.0      2.346      4.981
REMARK  Name = pdb/CHEMBL3676024.pdb
REMARK                            x       y       z     vdW  Elec       q    Type
REMARK                         _______ _______ _______ _____ _____    ______ ____
ROOT
ATOM      1  C   LIG    1      -20.480  77.131  30.592  0.00  0.00    +0.100 A 
ATOM      2  C   LIG    1      -20.227  77.809  31.780  0.00  0.00    +0.170 A 
ATOM      3  N   LIG    1      -21.044  78.448  32.686  0.00  0.00    -0.212 NA
ATOM      4  C   LIG    1      -20.489  78.965  33.765  0.00  0.00    +0.126 A 
ATOM      5  C   LIG    1      -18.993  78.927  33.979  0.00  0.00    +0.063 A 
ATOM      6  C   LIG    1      -18.247  78.313  33.061  0.00  0.00    +0.118 A 
ATOM      7  N   LIG    1      -18.843  77.732  31.961  0.00  0.00    -0.221 N 
ATOM      8  N   LIG    1      -18.222  77.062  30.964  0.00  0.00    -0.173 NA
ATOM      9  C   LIG    1      -19.211  76.696  30.159  0.00  0.00    +0.150 A 
ENDROOT
BRANCH   1  13
ATOM     10  C   LIG    1      -24.156  77.286  29.999  0.00  0.00    +0.128 C 
ATOM     11  N   LIG    1      -22.840  77.366  30.571  0.00  0.00    -0.314 N 
ATOM     12  H   LIG    1      -22.705  77.785  31.493  0.00  0.00    +0.149 HD
ATOM     13  C   LIG    1      -21.734  76.908  29.907  0.00  0.00    +0.249 C 
ATOM     14  O   LIG    1      -21.782  76.394  28.783  0.00  0.00    -0.270 OA
ENDBRANCH   1  13
BRANCH   4  15
ATOM     15  N   LIG    1      -21.282  79.581  34.729  0.00  0.00    -0.308 N 
ATOM     16  C   LIG    1      -22.758  79.446  34.746  0.00  0.00    +0.110 C 
ATOM     17  C   LIG    1      -23.257  80.740  35.408  0.00  0.00    +0.029 C 
ATOM     18  C   LIG    1      -22.075  81.196  36.248  0.00  0.00    +0.021 C 
ATOM     19  C   LIG    1      -20.895  80.852  35.347  0.00  0.00    +0.107 C 
BRANCH  16  20
ATOM     20  C   LIG    1      -23.226  78.193  35.459  0.00  0.00    +0.037 A 
ATOM     21  C   LIG    1      -24.036  77.262  34.795  0.00  0.00    +0.220 A 
ATOM     22  N   LIG    1      -24.413  76.068  35.314  0.00  0.00    -0.218 NA
ATOM     23  C   LIG    1      -23.996  75.795  36.571  0.00  0.00    +0.153 A 
ATOM     24  C   LIG    1      -23.239  76.668  37.329  0.00  0.00    +0.142 A 
ATOM     25  F   LIG    1      -22.870  76.347  38.574  0.00  0.00    -0.204 F 
ATOM     26  C   LIG    1      -22.851  77.880  36.774  0.00  0.00    +0.050 A 
BRANCH  21  27
ATOM     27  O   LIG    1      -24.412  77.553  33.500  0.00  0.00    -0.479 OA
ATOM     28  C   LIG    1      -25.795  77.298  33.271  0.00  0.00    +0.279 C 
ENDBRANCH  21  27
ENDBRANCH  16  20
ENDBRANCH   4  15
TORSDOF 4
ENDMDL
MODEL 7
REMARK VINA RESULT:      -4.9      2.387      5.498
REMARK  Name = pdb/CHEMBL3676024.pdb
REMARK                            x       y       z     vdW  Elec       q    Type
REMARK                         _______ _______ _______ _____ _____    ______ ____
ROOT
ATOM      1  C   LIG    1      -18.135  78.143  32.988  0.00  0.00    +0.100 A 
ATOM      2  C   LIG    1      -19.125  77.744  32.096  0.00  0.00    +0.170 A 
ATOM      3  N   LIG    1      -20.500  77.775  32.149  0.00  0.00    -0.212 NA
ATOM      4  C   LIG    1      -21.171  77.355  31.094  0.00  0.00    +0.126 A 
ATOM      5  C   LIG    1      -20.466  76.788  29.884  0.00  0.00    +0.063 A 
ATOM      6  C   LIG    1      -19.133  76.764  29.893  0.00  0.00    +0.118 A 
ATOM      7  N   LIG    1      -18.440  77.251  30.981  0.00  0.00    -0.221 N 
ATOM      8  N   LIG    1      -17.097  77.309  31.125  0.00  0.00    -0.173 NA
ATOM      9  C   LIG    1      -16.926  77.857  32.322  0.00  0.00    +0.150 A 
ENDROOT
BRANCH   1  13
ATOM     10  C   LIG    1      -19.832  79.675  35.930  0.00  0.00    +0.128 C 
ATOM     11  N   LIG    1      -19.519  79.147  34.631  0.00  0.00    -0.314 N 
ATOM     12  H   LIG    1      -20.246  79.073  33.918  0.00  0.00    +0.149 HD
ATOM     13  C   LIG    1      -18.260  78.713  34.311  0.00  0.00    +0.249 C 
ATOM     14  O   LIG    1      -17.310  78.746  35.101  0.00  0.00    -0.270 OA
ENDBRANCH   1  13
BRANCH   4  15
ATOM     15  N   LIG    1      -22.563  77.411  31.086  0.00  0.00    -0.308 N 
ATOM     16  C   LIG    1      -23.392  76.666  32.064  0.00  0.00    +0.110 C 
ATOM     17  C   LIG    1      -24.714  76.402  31.327  0.00  0.00    +0.029 C 
ATOM     18  C   LIG    1      -24.774  77.505  30.284  0.00  0.00    +0.021 C 
ATOM     19  C   LIG    1      -23.318  77.607  29.846  0.00  0.00    +0.107 C 
BRANCH  16  20
ATOM     20  C   LIG    1      -23.575  77.414  33.369  0.00  0.00    +0.037 A 
ATOM     21  C   LIG    1      -23.717  76.712  34.573  0.00  0.00    +0.220 A 
ATOM     22  N   LIG    1      -23.779  77.294  35.795  0.00  0.00    -0.218 NA
ATOM     23  C   LIG    1      -23.734  78.645  35.827  0.00  0.00    +0.153 A 
ATOM     24  C   LIG    1      -23.648  79.430  34.693  0.00  0.00    +0.142 A 
ATOM     25  F   LIG    1      -23.623  80.765  34.788  0.00  0.00    -0.204 F 
ATOM     26  C   LIG    1      -23.571  78.815  33.451  0.00  0.00    +0.050 A 
BRANCH  21  27
ATOM     27  O   LIG    1      -23.720  75.334  34.511  0.00  0.00    -0.479 OA
ATOM     28  C   LIG    1      -22.734  74.755  35.362  0.00  0.00    +0.279 C 
ENDBRANCH  21  27
ENDBRANCH  16  20
ENDBRANCH   4  15
TORSDOF 4
ENDMDL
MODEL 8
REMARK VINA RESULT:      -4.9     14.388     17.729
REMARK  Name = pdb/CHEMBL3676024.pdb
REMARK                            x       y       z     vdW  Elec       q    Type
REMARK                         _______ _______ _______ _____ _____    ______ ____
ROOT
ATOM      1  C   LIG    1      -38.414  74.544  24.857  0.00  0.00    +0.100 A 
ATOM      2  C   LIG    1      -38.253  73.164  24.781  0.00  0.00    +0.170 A 
ATOM      3  N   LIG    1      -37.228  72.321  25.146  0.00  0.00    -0.212 NA
ATOM      4  C   LIG    1      -37.405  71.023  24.984  0.00  0.00    +0.126 A 
ATOM      5  C   LIG    1      -38.662  70.471  24.353  0.00  0.00    +0.063 A 
ATOM      6  C   LIG    1      -39.615  71.334  24.001  0.00  0.00    +0.118 A 
ATOM      7  N   LIG    1      -39.440  72.684  24.220  0.00  0.00    -0.221 N 
ATOM      8  N   LIG    1      -40.320  73.670  23.935  0.00  0.00    -0.173 NA
ATOM      9  C   LIG    1      -39.703  74.776  24.332  0.00  0.00    +0.150 A 
ENDROOT
BRANCH   1  13
ATOM     10  C   LIG    1      -35.839  76.086  27.065  0.00  0.00    +0.128 C 
ATOM     11  N   LIG    1      -36.835  75.224  26.490  0.00  0.00    -0.314 N 
ATOM     12  H   LIG    1      -37.056  74.330  26.930  0.00  0.00    +0.149 HD
ATOM     13  C   LIG    1      -37.500  75.555  25.339  0.00  0.00    +0.249 C 
ATOM     14  O   LIG    1      -37.302  76.606  24.719  0.00  0.00    -0.270 OA
ENDBRANCH   1  13
BRANCH   4  15
ATOM     15  N   LIG    1      -36.413  70.130  25.381  0.00  0.00    -0.308 N 
ATOM     16  C   LIG    1      -35.196  70.567  26.106  0.00  0.00    +0.110 C 
ATOM     17  C   LIG    1      -34.125  69.536  25.720  0.00  0.00    +0.029 C 
ATOM     18  C   LIG    1      -34.929  68.303  25.341  0.00  0.00    +0.021 C 
ATOM     19  C   LIG    1      -36.123  68.914  24.617  0.00  0.00    +0.107 C 
BRANCH  16  20
ATOM     20  C   LIG    1      -35.410  70.673  27.603  0.00  0.00    +0.037 A 
ATOM     21  C   LIG    1      -34.938  71.789  28.307  0.00  0.00    +0.220 A 
ATOM     22  N   LIG    1      -35.175  72.019  29.622  0.00  0.00    -0.218 NA
ATOM     23  C   LIG    1      -35.886  71.079  30.284  0.00  0.00    +0.153 A 
ATOM     24  C   LIG    1      -36.350  69.919  29.693  0.00  0.00    +0.142 A 
ATOM     25  F   LIG    1      -37.036  69.018  30.406  0.00  0.00    -0.204 F 
ATOM     26  C   LIG    1      -36.110  69.709  28.342  0.00  0.00    +0.050 A 
BRANCH  21  27
ATOM     27  O   LIG    1      -34.250  72.749  27.595  0.00  0.00    -0.479 OA
ATOM     28  C   LIG    1      -33.387  73.520  28.427  0.00  0.00    +0.279 C 
ENDBRANCH  21  27
ENDBRANCH  16  20
ENDBRANCH   4  15
TORSDOF 4
ENDMDL
MODEL 9
REMARK VINA RESULT:      -4.8     18.687     21.294
REMARK  Name = pdb/CHEMBL3676024.pdb
REMARK                            x       y       z     vdW  Elec       q    Type
REMARK                         _______ _______ _______ _____ _____    ______ ____
ROOT
ATOM      1  C   LIG    1      -18.631  85.242  13.402  0.00  0.00    +0.100 A 
ATOM      2  C   LIG    1      -18.943  83.901  13.597  0.00  0.00    +0.170 A 
ATOM      3  N   LIG    1      -20.035  83.263  14.140  0.00  0.00    -0.212 NA
ATOM      4  C   LIG    1      -20.050  81.944  14.137  0.00  0.00    +0.126 A 
ATOM      5  C   LIG    1      -18.878  81.144  13.619  0.00  0.00    +0.063 A 
ATOM      6  C   LIG    1      -17.837  81.811  13.121  0.00  0.00    +0.118 A 
ATOM      7  N   LIG    1      -17.853  83.190  13.085  0.00  0.00    -0.221 N 
ATOM      8  N   LIG    1      -16.886  83.997  12.595  0.00  0.00    -0.173 NA
ATOM      9  C   LIG    1      -17.367  85.221  12.777  0.00  0.00    +0.150 A 
ENDROOT
BRANCH   1  13
ATOM     10  C   LIG    1      -21.367  87.252  14.937  0.00  0.00    +0.128 C 
ATOM     11  N   LIG    1      -20.537  86.184  14.451  0.00  0.00    -0.314 N 
ATOM     12  H   LIG    1      -20.791  85.212  14.635  0.00  0.00    +0.149 HD
ATOM     13  C   LIG    1      -19.384  86.425  13.752  0.00  0.00    +0.249 C 
ATOM     14  O   LIG    1      -18.978  87.562  13.485  0.00  0.00    -0.270 OA
ENDBRANCH   1  13
BRANCH   4  15
ATOM     15  N   LIG    1      -21.155  81.259  14.636  0.00  0.00    -0.308 N 
ATOM     16  C   LIG    1      -22.486  81.894  14.775  0.00  0.00    +0.110 C 
ATOM     17  C   LIG    1      -23.153  81.144  15.939  0.00  0.00    +0.029 C 
ATOM     18  C   LIG    1      -22.449  79.797  15.952  0.00  0.00    +0.021 C 
ATOM     19  C   LIG    1      -21.012  80.187  15.625  0.00  0.00    +0.107 C 
BRANCH  16  20
ATOM     20  C   LIG    1      -23.296  81.850  13.495  0.00  0.00    +0.037 A 
ATOM     21  C   LIG    1      -23.524  83.021  12.761  0.00  0.00    +0.220 A 
ATOM     22  N   LIG    1      -24.143  83.061  11.556  0.00  0.00    -0.218 NA
ATOM     23  C   LIG    1      -24.593  81.883  11.066  0.00  0.00    +0.153 A 
ATOM     24  C   LIG    1      -24.465  80.682  11.737  0.00  0.00    +0.142 A 
ATOM     25  F   LIG    1      -24.945  79.551  11.207  0.00  0.00    -0.204 F 
ATOM     26  C   LIG    1      -23.815  80.660  12.963  0.00  0.00    +0.050 A 
BRANCH  21  27
ATOM     27  O   LIG    1      -23.018  84.200  13.268  0.00  0.00    -0.479 OA
ATOM     28  C   LIG    1      -23.348  85.322  12.453  0.00  0.00    +0.279 C 
ENDBRANCH  21  27
ENDBRANCH  16  20
ENDBRANCH   4  15
TORSDOF 4
ENDMDL
