MODEL 1
REMARK VINA RESULT:      -7.9      0.000      0.000
REMARK  Name = pdb/CHEMBL2037226.pdb
REMARK                            x       y       z     vdW  Elec       q    Type
REMARK                         _______ _______ _______ _____ _____    ______ ____
ROOT
ATOM      1  C   LIG    1      -42.059  72.135  23.350  0.00  0.00    +0.045 C 
ATOM      2  C   LIG    1      -40.879  72.934  23.830  0.00  0.00    -0.029 A 
ATOM      3  C   LIG    1      -39.672  72.329  24.234  0.00  0.00    +0.036 A 
ATOM      4  C   LIG    1      -38.602  73.156  24.629  0.00  0.00    +0.046 A 
ATOM      5  C   LIG    1      -38.700  74.554  24.616  0.00  0.00    +0.037 A 
ATOM      6  C   LIG    1      -39.907  75.130  24.229  0.00  0.00    +0.024 A 
ATOM      7  C   LIG    1      -40.980  74.333  23.832  0.00  0.00    +0.007 A 
ENDROOT
BRANCH   5   8
ATOM      8  N   LIG    1      -37.554  75.296  24.987  0.00  0.00    -0.269 N 
ATOM      9  H   LIG    1      -37.054  75.744  24.235  0.00  0.00    +0.156 HD
ATOM     10  C   LIG    1      -37.082  75.506  26.273  0.00  0.00    +0.308 C 
ATOM     11  N   LIG    1      -35.936  76.284  26.271  0.00  0.00    -0.267 N 
ATOM     12  H   LIG    1      -35.564  76.586  25.381  0.00  0.00    +0.156 HD
ATOM     13  O   LIG    1      -37.606  75.063  27.286  0.00  0.00    -0.252 OA
BRANCH  11  14
ATOM     14  C   LIG    1      -35.186  76.693  27.401  0.00  0.00    +0.071 A 
ATOM     15  C   LIG    1      -35.586  77.862  28.058  0.00  0.00    +0.145 A 
ATOM     16  F   LIG    1      -36.658  78.537  27.613  0.00  0.00    -0.204 F 
ATOM     17  C   LIG    1      -34.898  78.347  29.167  0.00  0.00    +0.041 A 
ATOM     18  C   LIG    1      -33.781  77.657  29.641  0.00  0.00    +0.015 A 
ATOM     19  C   LIG    1      -33.360  76.478  29.011  0.00  0.00    +0.057 A 
ATOM     20  C   LIG    1      -34.073  76.005  27.895  0.00  0.00    +0.038 A 
BRANCH  19  21
ATOM     21  C   LIG    1      -32.153  75.725  29.522  0.00  0.00    +0.417 C 
ATOM     22  F   LIG    1      -30.983  76.276  29.095  0.00  0.00    -0.166 F 
ATOM     23  F   LIG    1      -32.134  74.432  29.095  0.00  0.00    -0.166 F 
ATOM     24  F   LIG    1      -32.067  75.671  30.879  0.00  0.00    -0.166 F 
ENDBRANCH  19  21
ENDBRANCH  11  14
ENDBRANCH   5   8
BRANCH   3  25
ATOM     25  N   LIG    1      -39.564  70.922  24.283  0.00  0.00    -0.314 N 
ATOM     26  H   LIG    1      -40.172  70.485  24.965  0.00  0.00    +0.152 HD
BRANCH  25  27
ATOM     27  C   LIG    1      -38.783  70.020  23.533  0.00  0.00    +0.033 A 
ATOM     28  C   LIG    1      -37.508  69.613  23.944  0.00  0.00    +0.047 A 
ATOM     29  C   LIG    1      -36.788  68.778  23.110  0.00  0.00    +0.043 A 
ATOM     30  N   LIG    1      -35.516  68.275  23.348  0.00  0.00    -0.281 N 
ATOM     31  H   LIG    1      -34.953  68.454  24.169  0.00  0.00    +0.155 HD
ATOM     32  C   LIG    1      -35.091  67.452  22.321  0.00  0.00    +0.249 C 
ATOM     33  O   LIG    1      -34.038  66.845  22.291  0.00  0.00    -0.270 OA
ATOM     34  C   LIG    1      -36.228  67.442  21.322  0.00  0.00    +0.048 C 
ATOM     35  C   LIG    1      -36.325  66.793  20.150  0.00  0.00    +0.039 C 
ATOM     36  C   LIG    1      -37.274  68.314  21.884  0.00  0.00    +0.008 A 
ATOM     37  C   LIG    1      -38.531  68.707  21.460  0.00  0.00    +0.012 A 
ATOM     38  C   LIG    1      -39.278  69.562  22.289  0.00  0.00    +0.024 A 
BRANCH  35  39
ATOM     39  C   LIG    1      -35.365  65.925  19.565  0.00  0.00    +0.040 A 
ATOM     40  N   LIG    1      -35.059  64.703  20.121  0.00  0.00    -0.361 N 
ATOM     41  H   LIG    1      -35.394  64.370  21.018  0.00  0.00    +0.165 HD
ATOM     42  C   LIG    1      -34.150  64.038  19.341  0.00  0.00    +0.083 A 
ATOM     43  C   LIG    1      -33.855  64.837  18.263  0.00  0.00    +0.019 A 
ATOM     44  C   LIG    1      -34.629  66.017  18.395  0.00  0.00    +0.027 A 
ENDBRANCH  35  39
ENDBRANCH  25  27
ENDBRANCH   3  25
TORSDOF 6
ENDMDL
MODEL 2
REMARK VINA RESULT:      -7.8      1.224      2.216
REMARK  Name = pdb/CHEMBL2037226.pdb
REMARK                            x       y       z     vdW  Elec       q    Type
REMARK                         _______ _______ _______ _____ _____    ______ ____
ROOT
ATOM      1  C   LIG    1      -42.091  72.446  23.274  0.00  0.00    +0.045 C 
ATOM      2  C   LIG    1      -40.884  73.177  23.794  0.00  0.00    -0.029 A 
ATOM      3  C   LIG    1      -39.722  72.504  24.223  0.00  0.00    +0.036 A 
ATOM      4  C   LIG    1      -38.621  73.269  24.657  0.00  0.00    +0.046 A 
ATOM      5  C   LIG    1      -38.646  74.671  24.658  0.00  0.00    +0.037 A 
ATOM      6  C   LIG    1      -39.809  75.314  24.244  0.00  0.00    +0.024 A 
ATOM      7  C   LIG    1      -40.912  74.579  23.810  0.00  0.00    +0.007 A 
ENDROOT
BRANCH   5   8
ATOM      8  N   LIG    1      -37.472  75.347  25.068  0.00  0.00    -0.269 N 
ATOM      9  H   LIG    1      -36.883  75.700  24.329  0.00  0.00    +0.156 HD
ATOM     10  C   LIG    1      -37.082  75.614  26.370  0.00  0.00    +0.308 C 
ATOM     11  N   LIG    1      -35.878  76.299  26.407  0.00  0.00    -0.267 N 
ATOM     12  H   LIG    1      -35.418  76.506  25.531  0.00  0.00    +0.156 HD
ATOM     13  O   LIG    1      -37.714  75.288  27.365  0.00  0.00    -0.252 OA
BRANCH  11  14
ATOM     14  C   LIG    1      -35.183  76.731  27.564  0.00  0.00    +0.071 A 
ATOM     15  C   LIG    1      -34.259  75.849  28.134  0.00  0.00    +0.145 A 
ATOM     16  F   LIG    1      -34.053  74.650  27.566  0.00  0.00    -0.204 F 
ATOM     17  C   LIG    1      -33.543  76.182  29.281  0.00  0.00    +0.041 A 
ATOM     18  C   LIG    1      -33.748  77.425  29.883  0.00  0.00    +0.015 A 
ATOM     19  C   LIG    1      -34.661  78.335  29.332  0.00  0.00    +0.057 A 
ATOM     20  C   LIG    1      -35.369  77.977  28.171  0.00  0.00    +0.038 A 
BRANCH  19  21
ATOM     21  C   LIG    1      -34.883  79.683  29.978  0.00  0.00    +0.417 C 
ATOM     22  F   LIG    1      -34.567  79.678  31.303  0.00  0.00    -0.166 F 
ATOM     23  F   LIG    1      -36.184  80.080  29.906  0.00  0.00    -0.166 F 
ATOM     24  F   LIG    1      -34.155  80.691  29.424  0.00  0.00    -0.166 F 
ENDBRANCH  19  21
ENDBRANCH  11  14
ENDBRANCH   5   8
BRANCH   3  25
ATOM     25  N   LIG    1      -39.689  71.094  24.259  0.00  0.00    -0.314 N 
ATOM     26  H   LIG    1      -40.340  70.682  24.918  0.00  0.00    +0.152 HD
BRANCH  25  27
ATOM     27  C   LIG    1      -38.935  70.159  23.521  0.00  0.00    +0.033 A 
ATOM     28  C   LIG    1      -37.640  69.782  23.896  0.00  0.00    +0.047 A 
ATOM     29  C   LIG    1      -36.949  68.910  23.075  0.00  0.00    +0.043 A 
ATOM     30  N   LIG    1      -35.663  68.428  23.282  0.00  0.00    -0.281 N 
ATOM     31  H   LIG    1      -35.067  68.652  24.067  0.00  0.00    +0.155 HD
ATOM     32  C   LIG    1      -35.277  67.556  22.280  0.00  0.00    +0.249 C 
ATOM     33  O   LIG    1      -34.222  66.955  22.233  0.00  0.00    -0.270 OA
ATOM     34  C   LIG    1      -36.457  67.488  21.334  0.00  0.00    +0.048 C 
ATOM     35  C   LIG    1      -36.599  66.780  20.202  0.00  0.00    +0.039 C 
ATOM     36  C   LIG    1      -37.485  68.381  21.896  0.00  0.00    +0.008 A 
ATOM     37  C   LIG    1      -38.762  68.743  21.509  0.00  0.00    +0.012 A 
ATOM     38  C   LIG    1      -39.479  69.635  22.326  0.00  0.00    +0.024 A 
BRANCH  35  39
ATOM     39  C   LIG    1      -35.658  65.888  19.619  0.00  0.00    +0.040 A 
ATOM     40  N   LIG    1      -34.441  66.327  19.149  0.00  0.00    -0.361 N 
ATOM     41  H   LIG    1      -34.159  67.299  19.077  0.00  0.00    +0.165 HD
ATOM     42  C   LIG    1      -33.698  65.271  18.688  0.00  0.00    +0.083 A 
ATOM     43  C   LIG    1      -34.442  64.128  18.857  0.00  0.00    +0.019 A 
ATOM     44  C   LIG    1      -35.668  64.513  19.456  0.00  0.00    +0.027 A 
ENDBRANCH  35  39
ENDBRANCH  25  27
ENDBRANCH   3  25
TORSDOF 6
ENDMDL
MODEL 3
REMARK VINA RESULT:      -7.3     17.995     20.875
REMARK  Name = pdb/CHEMBL2037226.pdb
REMARK                            x       y       z     vdW  Elec       q    Type
REMARK                         _______ _______ _______ _____ _____    ______ ____
ROOT
ATOM      1  C   LIG    1      -22.967  77.014  14.418  0.00  0.00    +0.045 C 
ATOM      2  C   LIG    1      -24.435  77.163  14.129  0.00  0.00    -0.029 A 
ATOM      3  C   LIG    1      -25.186  78.265  14.584  0.00  0.00    +0.036 A 
ATOM      4  C   LIG    1      -26.547  78.346  14.232  0.00  0.00    +0.046 A 
ATOM      5  C   LIG    1      -27.166  77.375  13.432  0.00  0.00    +0.037 A 
ATOM      6  C   LIG    1      -26.409  76.287  13.006  0.00  0.00    +0.024 A 
ATOM      7  C   LIG    1      -25.059  76.184  13.342  0.00  0.00    +0.007 A 
ENDROOT
BRANCH   5   8
ATOM      8  N   LIG    1      -28.526  77.572  13.095  0.00  0.00    -0.269 N 
ATOM      9  H   LIG    1      -29.202  77.166  13.724  0.00  0.00    +0.156 HD
ATOM     10  C   LIG    1      -29.018  78.301  12.024  0.00  0.00    +0.308 C 
ATOM     11  N   LIG    1      -30.403  78.287  11.996  0.00  0.00    -0.267 N 
ATOM     12  H   LIG    1      -30.891  77.758  12.705  0.00  0.00    +0.156 HD
ATOM     13  O   LIG    1      -28.323  78.884  11.204  0.00  0.00    -0.252 OA
BRANCH  11  14
ATOM     14  C   LIG    1      -31.238  78.922  11.044  0.00  0.00    +0.071 A 
ATOM     15  C   LIG    1      -31.482  78.249   9.842  0.00  0.00    +0.145 A 
ATOM     16  F   LIG    1      -30.940  77.038   9.640  0.00  0.00    -0.204 F 
ATOM     17  C   LIG    1      -32.276  78.805   8.842  0.00  0.00    +0.041 A 
ATOM     18  C   LIG    1      -32.846  80.065   9.036  0.00  0.00    +0.015 A 
ATOM     19  C   LIG    1      -32.627  80.762  10.233  0.00  0.00    +0.057 A 
ATOM     20  C   LIG    1      -31.825  80.178  11.229  0.00  0.00    +0.038 A 
BRANCH  19  21
ATOM     21  C   LIG    1      -33.244  82.124  10.450  0.00  0.00    +0.417 C 
ATOM     22  F   LIG    1      -33.779  82.636   9.306  0.00  0.00    -0.166 F 
ATOM     23  F   LIG    1      -32.333  83.040  10.878  0.00  0.00    -0.166 F 
ATOM     24  F   LIG    1      -34.248  82.139  11.370  0.00  0.00    -0.166 F 
ENDBRANCH  19  21
ENDBRANCH  11  14
ENDBRANCH   5   8
BRANCH   3  25
ATOM     25  N   LIG    1      -24.588  79.237  15.415  0.00  0.00    -0.314 N 
ATOM     26  H   LIG    1      -24.510  78.958  16.386  0.00  0.00    +0.152 HD
BRANCH  25  27
ATOM     27  C   LIG    1      -24.058  80.511  15.128  0.00  0.00    +0.033 A 
ATOM     28  C   LIG    1      -24.442  81.244  13.999  0.00  0.00    +0.047 A 
ATOM     29  C   LIG    1      -23.819  82.455  13.762  0.00  0.00    +0.043 A 
ATOM     30  N   LIG    1      -24.066  83.315  12.701  0.00  0.00    -0.281 N 
ATOM     31  H   LIG    1      -24.742  83.165  11.963  0.00  0.00    +0.155 HD
ATOM     32  C   LIG    1      -23.284  84.453  12.771  0.00  0.00    +0.249 C 
ATOM     33  O   LIG    1      -23.327  85.390  11.998  0.00  0.00    -0.270 OA
ATOM     34  C   LIG    1      -22.446  84.284  14.021  0.00  0.00    +0.048 C 
ATOM     35  C   LIG    1      -21.526  85.110  14.546  0.00  0.00    +0.039 C 
ATOM     36  C   LIG    1      -22.831  82.985  14.599  0.00  0.00    +0.008 A 
ATOM     37  C   LIG    1      -22.437  82.275  15.718  0.00  0.00    +0.012 A 
ATOM     38  C   LIG    1      -23.054  81.037  15.974  0.00  0.00    +0.024 A 
BRANCH  35  39
ATOM     39  C   LIG    1      -21.125  86.380  14.050  0.00  0.00    +0.040 A 
ATOM     40  N   LIG    1      -21.991  87.449  14.013  0.00  0.00    -0.361 N 
ATOM     41  H   LIG    1      -22.982  87.405  14.224  0.00  0.00    +0.165 HD
ATOM     42  C   LIG    1      -21.350  88.566  13.546  0.00  0.00    +0.083 A 
ATOM     43  C   LIG    1      -20.049  88.221  13.271  0.00  0.00    +0.019 A 
ATOM     44  C   LIG    1      -19.902  86.851  13.601  0.00  0.00    +0.027 A 
ENDBRANCH  35  39
ENDBRANCH  25  27
ENDBRANCH   3  25
TORSDOF 6
ENDMDL
MODEL 4
REMARK VINA RESULT:      -7.3      2.432      3.339
REMARK  Name = pdb/CHEMBL2037226.pdb
REMARK                            x       y       z     vdW  Elec       q    Type
REMARK                         _______ _______ _______ _____ _____    ______ ____
ROOT
ATOM      1  C   LIG    1      -42.556  75.689  22.911  0.00  0.00    +0.045 C 
ATOM      2  C   LIG    1      -41.186  75.883  23.500  0.00  0.00    -0.029 A 
ATOM      3  C   LIG    1      -40.454  74.822  24.071  0.00  0.00    +0.036 A 
ATOM      4  C   LIG    1      -39.159  75.084  24.563  0.00  0.00    +0.046 A 
ATOM      5  C   LIG    1      -38.579  76.358  24.484  0.00  0.00    +0.037 A 
ATOM      6  C   LIG    1      -39.327  77.393  23.930  0.00  0.00    +0.024 A 
ATOM      7  C   LIG    1      -40.610  77.160  23.437  0.00  0.00    +0.007 A 
ENDROOT
BRANCH   5   8
ATOM      8  N   LIG    1      -37.256  76.507  24.963  0.00  0.00    -0.269 N 
ATOM      9  H   LIG    1      -36.578  76.840  24.295  0.00  0.00    +0.156 HD
ATOM     10  C   LIG    1      -36.814  76.291  26.259  0.00  0.00    +0.308 C 
ATOM     11  N   LIG    1      -35.456  76.536  26.377  0.00  0.00    -0.267 N 
ATOM     12  H   LIG    1      -34.945  76.811  25.550  0.00  0.00    +0.156 HD
ATOM     13  O   LIG    1      -37.527  75.928  27.184  0.00  0.00    -0.252 OA
BRANCH  11  14
ATOM     14  C   LIG    1      -34.672  76.414  27.551  0.00  0.00    +0.071 A 
ATOM     15  C   LIG    1      -34.595  77.524  28.400  0.00  0.00    +0.145 A 
ATOM     16  F   LIG    1      -35.269  78.642  28.087  0.00  0.00    -0.204 F 
ATOM     17  C   LIG    1      -33.834  77.500  29.565  0.00  0.00    +0.041 A 
ATOM     18  C   LIG    1      -33.127  76.345  29.903  0.00  0.00    +0.015 A 
ATOM     19  C   LIG    1      -33.190  75.212  29.078  0.00  0.00    +0.057 A 
ATOM     20  C   LIG    1      -33.968  75.259  27.908  0.00  0.00    +0.038 A 
BRANCH  19  21
ATOM     21  C   LIG    1      -32.430  73.957  29.440  0.00  0.00    +0.417 C 
ATOM     22  F   LIG    1      -32.661  73.567  30.725  0.00  0.00    -0.166 F 
ATOM     23  F   LIG    1      -31.082  74.124  29.338  0.00  0.00    -0.166 F 
ATOM     24  F   LIG    1      -32.732  72.881  28.663  0.00  0.00    -0.166 F 
ENDBRANCH  19  21
ENDBRANCH  11  14
ENDBRANCH   5   8
BRANCH   3  25
ATOM     25  N   LIG    1      -41.033  73.540  24.187  0.00  0.00    -0.314 N 
ATOM     26  H   LIG    1      -41.895  73.523  24.719  0.00  0.00    +0.152 HD
BRANCH  25  27
ATOM     27  C   LIG    1      -40.639  72.290  23.671  0.00  0.00    +0.033 A 
ATOM     28  C   LIG    1      -41.417  71.585  22.744  0.00  0.00    +0.047 A 
ATOM     29  C   LIG    1      -40.985  70.334  22.344  0.00  0.00    +0.043 A 
ATOM     30  N   LIG    1      -41.621  69.493  21.441  0.00  0.00    -0.281 N 
ATOM     31  H   LIG    1      -42.485  69.692  20.954  0.00  0.00    +0.155 HD
ATOM     32  C   LIG    1      -40.913  68.321  21.246  0.00  0.00    +0.249 C 
ATOM     33  O   LIG    1      -41.216  67.430  20.478  0.00  0.00    -0.270 OA
ATOM     34  C   LIG    1      -39.693  68.442  22.135  0.00  0.00    +0.048 C 
ATOM     35  C   LIG    1      -38.681  67.576  22.313  0.00  0.00    +0.039 C 
ATOM     36  C   LIG    1      -39.806  69.745  22.813  0.00  0.00    +0.008 A 
ATOM     37  C   LIG    1      -39.025  70.425  23.729  0.00  0.00    +0.012 A 
ATOM     38  C   LIG    1      -39.450  71.696  24.155  0.00  0.00    +0.024 A 
BRANCH  35  39
ATOM     39  C   LIG    1      -38.503  66.317  21.677  0.00  0.00    +0.040 A 
ATOM     40  N   LIG    1      -39.343  65.255  21.926  0.00  0.00    -0.361 N 
ATOM     41  H   LIG    1      -40.067  65.238  22.635  0.00  0.00    +0.165 HD
ATOM     42  C   LIG    1      -38.994  64.179  21.152  0.00  0.00    +0.083 A 
ATOM     43  C   LIG    1      -37.909  64.543  20.390  0.00  0.00    +0.019 A 
ATOM     44  C   LIG    1      -37.609  65.891  20.709  0.00  0.00    +0.027 A 
ENDBRANCH  35  39
ENDBRANCH  25  27
ENDBRANCH   3  25
TORSDOF 6
ENDMDL
MODEL 5
REMARK VINA RESULT:      -7.1      5.605     11.644
REMARK  Name = pdb/CHEMBL2037226.pdb
REMARK                            x       y       z     vdW  Elec       q    Type
REMARK                         _______ _______ _______ _____ _____    ______ ____
ROOT
ATOM      1  C   LIG    1      -32.345  67.612  30.010  0.00  0.00    +0.045 C 
ATOM      2  C   LIG    1      -33.287  67.393  28.858  0.00  0.00    -0.029 A 
ATOM      3  C   LIG    1      -34.253  68.348  28.482  0.00  0.00    +0.036 A 
ATOM      4  C   LIG    1      -35.067  68.080  27.364  0.00  0.00    +0.046 A 
ATOM      5  C   LIG    1      -34.931  66.905  26.612  0.00  0.00    +0.037 A 
ATOM      6  C   LIG    1      -33.981  65.969  27.010  0.00  0.00    +0.024 A 
ATOM      7  C   LIG    1      -33.163  66.211  28.114  0.00  0.00    +0.007 A 
ENDROOT
BRANCH   5   8
ATOM      8  N   LIG    1      -35.764  66.751  25.478  0.00  0.00    -0.269 N 
ATOM      9  H   LIG    1      -36.565  66.149  25.596  0.00  0.00    +0.156 HD
ATOM     10  C   LIG    1      -35.618  67.376  24.251  0.00  0.00    +0.308 C 
ATOM     11  N   LIG    1      -36.617  66.998  23.368  0.00  0.00    -0.267 N 
ATOM     12  H   LIG    1      -37.301  66.323  23.680  0.00  0.00    +0.156 HD
ATOM     13  O   LIG    1      -34.723  68.163  23.974  0.00  0.00    -0.252 OA
BRANCH  11  14
ATOM     14  C   LIG    1      -36.777  67.436  22.030  0.00  0.00    +0.071 A 
ATOM     15  C   LIG    1      -37.593  68.550  21.804  0.00  0.00    +0.145 A 
ATOM     16  F   LIG    1      -38.175  69.165  22.846  0.00  0.00    -0.204 F 
ATOM     17  C   LIG    1      -37.821  69.039  20.521  0.00  0.00    +0.041 A 
ATOM     18  C   LIG    1      -37.224  68.409  19.427  0.00  0.00    +0.015 A 
ATOM     19  C   LIG    1      -36.394  67.296  19.621  0.00  0.00    +0.057 A 
ATOM     20  C   LIG    1      -36.176  66.822  20.926  0.00  0.00    +0.038 A 
BRANCH  19  21
ATOM     21  C   LIG    1      -35.742  66.612  18.441  0.00  0.00    +0.417 C 
ATOM     22  F   LIG    1      -35.127  65.449  18.794  0.00  0.00    -0.166 F 
ATOM     23  F   LIG    1      -34.779  67.384  17.865  0.00  0.00    -0.166 F 
ATOM     24  F   LIG    1      -36.607  66.287  17.441  0.00  0.00    -0.166 F 
ENDBRANCH  19  21
ENDBRANCH  11  14
ENDBRANCH   5   8
BRANCH   3  25
ATOM     25  N   LIG    1      -34.426  69.523  29.246  0.00  0.00    -0.314 N 
ATOM     26  H   LIG    1      -34.763  69.357  30.186  0.00  0.00    +0.152 HD
BRANCH  25  27
ATOM     27  C   LIG    1      -34.186  70.877  28.940  0.00  0.00    +0.033 A 
ATOM     28  C   LIG    1      -33.120  71.593  29.498  0.00  0.00    +0.047 A 
ATOM     29  C   LIG    1      -33.002  72.936  29.193  0.00  0.00    +0.043 A 
ATOM     30  N   LIG    1      -32.017  73.801  29.651  0.00  0.00    -0.281 N 
ATOM     31  H   LIG    1      -31.254  73.555  30.267  0.00  0.00    +0.155 HD
ATOM     32  C   LIG    1      -32.178  75.075  29.139  0.00  0.00    +0.249 C 
ATOM     33  O   LIG    1      -31.436  76.017  29.338  0.00  0.00    -0.270 OA
ATOM     34  C   LIG    1      -33.409  75.000  28.261  0.00  0.00    +0.048 C 
ATOM     35  C   LIG    1      -33.992  75.963  27.529  0.00  0.00    +0.039 C 
ATOM     36  C   LIG    1      -33.889  73.610  28.347  0.00  0.00    +0.008 A 
ATOM     37  C   LIG    1      -34.949  72.920  27.787  0.00  0.00    +0.012 A 
ATOM     38  C   LIG    1      -35.092  71.554  28.090  0.00  0.00    +0.024 A 
BRANCH  35  39
ATOM     39  C   LIG    1      -33.569  77.313  27.387  0.00  0.00    +0.040 A 
ATOM     40  N   LIG    1      -32.636  77.683  26.445  0.00  0.00    -0.361 N 
ATOM     41  H   LIG    1      -32.106  77.042  25.865  0.00  0.00    +0.165 HD
ATOM     42  C   LIG    1      -32.442  79.040  26.475  0.00  0.00    +0.083 A 
ATOM     43  C   LIG    1      -33.256  79.561  27.450  0.00  0.00    +0.019 A 
ATOM     44  C   LIG    1      -33.976  78.478  28.015  0.00  0.00    +0.027 A 
ENDBRANCH  35  39
ENDBRANCH  25  27
ENDBRANCH   3  25
TORSDOF 6
ENDMDL
MODEL 6
REMARK VINA RESULT:      -7.0      8.005     12.676
REMARK  Name = pdb/CHEMBL2037226.pdb
REMARK                            x       y       z     vdW  Elec       q    Type
REMARK                         _______ _______ _______ _____ _____    ______ ____
ROOT
ATOM      1  C   LIG    1      -31.319  77.141  33.300  0.00  0.00    +0.045 C 
ATOM      2  C   LIG    1      -29.876  76.767  33.104  0.00  0.00    -0.029 A 
ATOM      3  C   LIG    1      -29.293  76.654  31.825  0.00  0.00    +0.036 A 
ATOM      4  C   LIG    1      -27.923  76.339  31.733  0.00  0.00    +0.046 A 
ATOM      5  C   LIG    1      -27.127  76.153  32.871  0.00  0.00    +0.037 A 
ATOM      6  C   LIG    1      -27.726  76.255  34.124  0.00  0.00    +0.024 A 
ATOM      7  C   LIG    1      -29.081  76.565  34.241  0.00  0.00    +0.007 A 
ENDROOT
BRANCH   5   8
ATOM      8  N   LIG    1      -25.751  75.887  32.674  0.00  0.00    -0.269 N 
ATOM      9  H   LIG    1      -25.466  74.926  32.779  0.00  0.00    +0.156 HD
ATOM     10  C   LIG    1      -24.775  76.799  32.305  0.00  0.00    +0.308 C 
ATOM     11  N   LIG    1      -23.532  76.194  32.198  0.00  0.00    -0.267 N 
ATOM     12  H   LIG    1      -23.460  75.209  32.410  0.00  0.00    +0.156 HD
ATOM     13  O   LIG    1      -24.977  77.987  32.100  0.00  0.00    -0.252 OA
BRANCH  11  14
ATOM     14  C   LIG    1      -22.312  76.821  31.845  0.00  0.00    +0.071 A 
ATOM     15  C   LIG    1      -21.881  76.705  30.519  0.00  0.00    +0.145 A 
ATOM     16  F   LIG    1      -22.633  76.027  29.637  0.00  0.00    -0.204 F 
ATOM     17  C   LIG    1      -20.686  77.274  30.088  0.00  0.00    +0.041 A 
ATOM     18  C   LIG    1      -19.892  77.979  30.994  0.00  0.00    +0.015 A 
ATOM     19  C   LIG    1      -20.300  78.122  32.328  0.00  0.00    +0.057 A 
ATOM     20  C   LIG    1      -21.513  77.541  32.739  0.00  0.00    +0.038 A 
BRANCH  19  21
ATOM     21  C   LIG    1      -19.447  78.888  33.312  0.00  0.00    +0.417 C 
ATOM     22  F   LIG    1      -18.960  78.090  34.303  0.00  0.00    -0.166 F 
ATOM     23  F   LIG    1      -20.144  79.876  33.939  0.00  0.00    -0.166 F 
ATOM     24  F   LIG    1      -18.363  79.493  32.754  0.00  0.00    -0.166 F 
ENDBRANCH  19  21
ENDBRANCH  11  14
ENDBRANCH   5   8
BRANCH   3  25
ATOM     25  N   LIG    1      -30.086  76.807  30.667  0.00  0.00    -0.314 N 
ATOM     26  H   LIG    1      -29.929  77.677  30.172  0.00  0.00    +0.152 HD
BRANCH  25  27
ATOM     27  C   LIG    1      -31.033  75.955  30.066  0.00  0.00    +0.033 A 
ATOM     28  C   LIG    1      -32.239  76.431  29.537  0.00  0.00    +0.047 A 
ATOM     29  C   LIG    1      -33.138  75.513  29.027  0.00  0.00    +0.043 A 
ATOM     30  N   LIG    1      -34.376  75.796  28.466  0.00  0.00    -0.281 N 
ATOM     31  H   LIG    1      -34.778  76.717  28.355  0.00  0.00    +0.155 HD
ATOM     32  C   LIG    1      -35.017  74.649  28.035  0.00  0.00    +0.249 C 
ATOM     33  O   LIG    1      -36.091  74.610  27.468  0.00  0.00    -0.270 OA
ATOM     34  C   LIG    1      -34.071  73.515  28.368  0.00  0.00    +0.048 C 
ATOM     35  C   LIG    1      -34.214  72.197  28.152  0.00  0.00    +0.039 C 
ATOM     36  C   LIG    1      -32.897  74.135  29.006  0.00  0.00    +0.008 A 
ATOM     37  C   LIG    1      -31.712  73.646  29.525  0.00  0.00    +0.012 A 
ATOM     38  C   LIG    1      -30.786  74.562  30.055  0.00  0.00    +0.024 A 
BRANCH  35  39
ATOM     39  C   LIG    1      -35.308  71.540  27.526  0.00  0.00    +0.040 A 
ATOM     40  N   LIG    1      -35.377  71.392  26.159  0.00  0.00    -0.361 N 
ATOM     41  H   LIG    1      -34.739  71.814  25.493  0.00  0.00    +0.165 HD
ATOM     42  C   LIG    1      -36.496  70.681  25.812  0.00  0.00    +0.083 A 
ATOM     43  C   LIG    1      -37.167  70.363  26.968  0.00  0.00    +0.019 A 
ATOM     44  C   LIG    1      -36.414  70.890  28.047  0.00  0.00    +0.027 A 
ENDBRANCH  35  39
ENDBRANCH  25  27
ENDBRANCH   3  25
TORSDOF 6
ENDMDL
MODEL 7
REMARK VINA RESULT:      -6.9      7.576     14.816
REMARK  Name = pdb/CHEMBL2037226.pdb
REMARK                            x       y       z     vdW  Elec       q    Type
REMARK                         _______ _______ _______ _____ _____    ______ ____
ROOT
ATOM      1  C   LIG    1      -40.397  86.167  24.166  0.00  0.00    +0.045 C 
ATOM      2  C   LIG    1      -40.084  84.741  23.805  0.00  0.00    -0.029 A 
ATOM      3  C   LIG    1      -38.795  84.190  23.957  0.00  0.00    +0.036 A 
ATOM      4  C   LIG    1      -38.600  82.833  23.634  0.00  0.00    +0.046 A 
ATOM      5  C   LIG    1      -39.648  82.018  23.186  0.00  0.00    +0.037 A 
ATOM      6  C   LIG    1      -40.909  82.587  23.030  0.00  0.00    +0.024 A 
ATOM      7  C   LIG    1      -41.128  83.928  23.343  0.00  0.00    +0.007 A 
ENDROOT
BRANCH   5   8
ATOM      8  N   LIG    1      -39.360  80.656  22.934  0.00  0.00    -0.269 N 
ATOM      9  H   LIG    1      -38.718  80.471  22.178  0.00  0.00    +0.156 HD
ATOM     10  C   LIG    1      -39.828  79.563  23.646  0.00  0.00    +0.308 C 
ATOM     11  N   LIG    1      -39.342  78.374  23.127  0.00  0.00    -0.267 N 
ATOM     12  H   LIG    1      -38.746  78.417  22.311  0.00  0.00    +0.156 HD
ATOM     13  O   LIG    1      -40.576  79.633  24.611  0.00  0.00    -0.252 OA
BRANCH  11  14
ATOM     14  C   LIG    1      -39.615  77.068  23.601  0.00  0.00    +0.071 A 
ATOM     15  C   LIG    1      -38.691  76.488  24.478  0.00  0.00    +0.145 A 
ATOM     16  F   LIG    1      -37.604  77.184  24.847  0.00  0.00    -0.204 F 
ATOM     17  C   LIG    1      -38.869  75.202  24.980  0.00  0.00    +0.041 A 
ATOM     18  C   LIG    1      -39.994  74.465  24.604  0.00  0.00    +0.015 A 
ATOM     19  C   LIG    1      -40.943  75.021  23.733  0.00  0.00    +0.057 A 
ATOM     20  C   LIG    1      -40.743  76.323  23.242  0.00  0.00    +0.038 A 
BRANCH  19  21
ATOM     21  C   LIG    1      -42.164  74.229  23.326  0.00  0.00    +0.417 C 
ATOM     22  F   LIG    1      -42.929  73.874  24.396  0.00  0.00    -0.166 F 
ATOM     23  F   LIG    1      -41.838  73.066  22.698  0.00  0.00    -0.166 F 
ATOM     24  F   LIG    1      -42.996  74.891  22.476  0.00  0.00    -0.166 F 
ENDBRANCH  19  21
ENDBRANCH  11  14
ENDBRANCH   5   8
BRANCH   3  25
ATOM     25  N   LIG    1      -37.720  85.003  24.377  0.00  0.00    -0.314 N 
ATOM     26  H   LIG    1      -37.459  85.720  23.710  0.00  0.00    +0.152 HD
BRANCH  25  27
ATOM     27  C   LIG    1      -36.967  85.010  25.568  0.00  0.00    +0.033 A 
ATOM     28  C   LIG    1      -36.205  86.116  25.964  0.00  0.00    +0.047 A 
ATOM     29  C   LIG    1      -35.444  86.008  27.114  0.00  0.00    +0.043 A 
ATOM     30  N   LIG    1      -34.630  86.992  27.658  0.00  0.00    -0.281 N 
ATOM     31  H   LIG    1      -34.492  87.921  27.281  0.00  0.00    +0.155 HD
ATOM     32  C   LIG    1      -34.023  86.567  28.825  0.00  0.00    +0.249 C 
ATOM     33  O   LIG    1      -33.296  87.239  29.530  0.00  0.00    -0.270 OA
ATOM     34  C   LIG    1      -34.512  85.149  29.034  0.00  0.00    +0.048 C 
ATOM     35  C   LIG    1      -34.226  84.288  30.025  0.00  0.00    +0.039 C 
ATOM     36  C   LIG    1      -35.407  84.854  27.903  0.00  0.00    +0.008 A 
ATOM     37  C   LIG    1      -36.153  83.751  27.527  0.00  0.00    +0.012 A 
ATOM     38  C   LIG    1      -36.928  83.837  26.356  0.00  0.00    +0.024 A 
BRANCH  35  39
ATOM     39  C   LIG    1      -33.390  84.518  31.151  0.00  0.00    +0.040 A 
ATOM     40  N   LIG    1      -32.037  84.734  31.015  0.00  0.00    -0.361 N 
ATOM     41  H   LIG    1      -31.515  84.645  30.151  0.00  0.00    +0.165 HD
ATOM     42  C   LIG    1      -31.469  84.983  32.238  0.00  0.00    +0.083 A 
ATOM     43  C   LIG    1      -32.464  84.925  33.184  0.00  0.00    +0.019 A 
ATOM     44  C   LIG    1      -33.674  84.647  32.500  0.00  0.00    +0.027 A 
ENDBRANCH  35  39
ENDBRANCH  25  27
ENDBRANCH   3  25
TORSDOF 6
ENDMDL
MODEL 8
REMARK VINA RESULT:      -6.9     17.378     20.237
REMARK  Name = pdb/CHEMBL2037226.pdb
REMARK                            x       y       z     vdW  Elec       q    Type
REMARK                         _______ _______ _______ _____ _____    ______ ____
ROOT
ATOM      1  C   LIG    1      -24.119  76.066  12.200  0.00  0.00    +0.045 C 
ATOM      2  C   LIG    1      -25.570  76.458  12.245  0.00  0.00    -0.029 A 
ATOM      3  C   LIG    1      -26.070  77.399  13.168  0.00  0.00    +0.036 A 
ATOM      4  C   LIG    1      -27.436  77.740  13.112  0.00  0.00    +0.046 A 
ATOM      5  C   LIG    1      -28.300  77.185  12.159  0.00  0.00    +0.037 A 
ATOM      6  C   LIG    1      -27.789  76.246  11.267  0.00  0.00    +0.024 A 
ATOM      7  C   LIG    1      -26.440  75.893  11.302  0.00  0.00    +0.007 A 
ENDROOT
BRANCH   5   8
ATOM      8  N   LIG    1      -29.644  77.627  12.156  0.00  0.00    -0.269 N 
ATOM      9  H   LIG    1      -30.210  77.335  12.938  0.00  0.00    +0.156 HD
ATOM     10  C   LIG    1      -30.242  78.455  11.219  0.00  0.00    +0.308 C 
ATOM     11  N   LIG    1      -31.573  78.689  11.526  0.00  0.00    -0.267 N 
ATOM     12  H   LIG    1      -31.961  78.239  12.344  0.00  0.00    +0.156 HD
ATOM     13  O   LIG    1      -29.674  78.922  10.242  0.00  0.00    -0.252 OA
BRANCH  11  14
ATOM     14  C   LIG    1      -32.486  79.482  10.790  0.00  0.00    +0.071 A 
ATOM     15  C   LIG    1      -33.054  78.922   9.640  0.00  0.00    +0.145 A 
ATOM     16  F   LIG    1      -32.733  77.668   9.288  0.00  0.00    -0.204 F 
ATOM     17  C   LIG    1      -33.948  79.636   8.846  0.00  0.00    +0.041 A 
ATOM     18  C   LIG    1      -34.291  80.942   9.198  0.00  0.00    +0.015 A 
ATOM     19  C   LIG    1      -33.746  81.530  10.349  0.00  0.00    +0.057 A 
ATOM     20  C   LIG    1      -32.848  80.788  11.137  0.00  0.00    +0.038 A 
BRANCH  19  21
ATOM     21  C   LIG    1      -34.117  82.942  10.737  0.00  0.00    +0.417 C 
ATOM     22  F   LIG    1      -34.816  83.580   9.757  0.00  0.00    -0.166 F 
ATOM     23  F   LIG    1      -33.021  83.715  10.976  0.00  0.00    -0.166 F 
ATOM     24  F   LIG    1      -34.884  83.027  11.859  0.00  0.00    -0.166 F 
ENDBRANCH  19  21
ENDBRANCH  11  14
ENDBRANCH   5   8
BRANCH   3  25
ATOM     25  N   LIG    1      -25.221  77.946  14.155  0.00  0.00    -0.314 N 
ATOM     26  H   LIG    1      -25.009  77.310  14.915  0.00  0.00    +0.152 HD
BRANCH  25  27
ATOM     27  C   LIG    1      -24.596  79.205  14.254  0.00  0.00    +0.033 A 
ATOM     28  C   LIG    1      -24.072  79.687  15.459  0.00  0.00    +0.047 A 
ATOM     29  C   LIG    1      -23.538  80.962  15.477  0.00  0.00    +0.043 A 
ATOM     30  N   LIG    1      -22.977  81.605  16.573  0.00  0.00    -0.281 N 
ATOM     31  H   LIG    1      -22.884  81.217  17.502  0.00  0.00    +0.155 HD
ATOM     32  C   LIG    1      -22.518  82.867  16.245  0.00  0.00    +0.249 C 
ATOM     33  O   LIG    1      -21.945  83.629  16.999  0.00  0.00    -0.270 OA
ATOM     34  C   LIG    1      -22.831  83.036  14.773  0.00  0.00    +0.048 C 
ATOM     35  C   LIG    1      -22.586  84.081  13.966  0.00  0.00    +0.039 C 
ATOM     36  C   LIG    1      -23.488  81.788  14.349  0.00  0.00    +0.008 A 
ATOM     37  C   LIG    1      -24.003  81.329  13.150  0.00  0.00    +0.012 A 
ATOM     38  C   LIG    1      -24.557  80.038  13.111  0.00  0.00    +0.024 A 
BRANCH  35  39
ATOM     39  C   LIG    1      -21.940  85.300  14.307  0.00  0.00    +0.040 A 
ATOM     40  N   LIG    1      -22.484  86.176  15.219  0.00  0.00    -0.361 N 
ATOM     41  H   LIG    1      -23.406  86.091  15.632  0.00  0.00    +0.165 HD
ATOM     42  C   LIG    1      -21.646  87.244  15.413  0.00  0.00    +0.083 A 
ATOM     43  C   LIG    1      -20.543  87.063  14.614  0.00  0.00    +0.019 A 
ATOM     44  C   LIG    1      -20.720  85.835  13.929  0.00  0.00    +0.027 A 
ENDBRANCH  35  39
ENDBRANCH  25  27
ENDBRANCH   3  25
TORSDOF 6
ENDMDL
MODEL 9
REMARK VINA RESULT:      -6.9      5.637      8.684
REMARK  Name = pdb/CHEMBL2037226.pdb
REMARK                            x       y       z     vdW  Elec       q    Type
REMARK                         _______ _______ _______ _____ _____    ______ ____
ROOT
ATOM      1  C   LIG    1      -32.215  76.039  31.540  0.00  0.00    +0.045 C 
ATOM      2  C   LIG    1      -32.967  76.155  30.244  0.00  0.00    -0.029 A 
ATOM      3  C   LIG    1      -32.842  75.203  29.211  0.00  0.00    +0.036 A 
ATOM      4  C   LIG    1      -33.616  75.367  28.046  0.00  0.00    +0.046 A 
ATOM      5  C   LIG    1      -34.513  76.433  27.894  0.00  0.00    +0.037 A 
ATOM      6  C   LIG    1      -34.610  77.369  28.920  0.00  0.00    +0.024 A 
ATOM      7  C   LIG    1      -33.854  77.229  30.084  0.00  0.00    +0.007 A 
ENDROOT
BRANCH   5   8
ATOM      8  N   LIG    1      -35.279  76.482  26.706  0.00  0.00    -0.269 N 
ATOM      9  H   LIG    1      -34.812  76.850  25.892  0.00  0.00    +0.156 HD
ATOM     10  C   LIG    1      -36.580  76.035  26.539  0.00  0.00    +0.308 C 
ATOM     11  N   LIG    1      -37.022  76.235  25.241  0.00  0.00    -0.267 N 
ATOM     12  H   LIG    1      -36.395  76.683  24.586  0.00  0.00    +0.156 HD
ATOM     13  O   LIG    1      -37.259  75.528  27.421  0.00  0.00    -0.252 OA
BRANCH  11  14
ATOM     14  C   LIG    1      -38.295  75.902  24.717  0.00  0.00    +0.071 A 
ATOM     15  C   LIG    1      -39.132  76.953  24.325  0.00  0.00    +0.145 A 
ATOM     16  F   LIG    1      -38.701  78.219  24.441  0.00  0.00    -0.204 F 
ATOM     17  C   LIG    1      -40.407  76.719  23.816  0.00  0.00    +0.041 A 
ATOM     18  C   LIG    1      -40.869  75.409  23.691  0.00  0.00    +0.015 A 
ATOM     19  C   LIG    1      -40.052  74.333  24.067  0.00  0.00    +0.057 A 
ATOM     20  C   LIG    1      -38.767  74.593  24.575  0.00  0.00    +0.038 A 
BRANCH  19  21
ATOM     21  C   LIG    1      -40.546  72.911  23.931  0.00  0.00    +0.417 C 
ATOM     22  F   LIG    1      -41.228  72.494  25.034  0.00  0.00    -0.166 F 
ATOM     23  F   LIG    1      -39.526  72.024  23.766  0.00  0.00    -0.166 F 
ATOM     24  F   LIG    1      -41.385  72.714  22.877  0.00  0.00    -0.166 F 
ENDBRANCH  19  21
ENDBRANCH  11  14
ENDBRANCH   5   8
BRANCH   3  25
ATOM     25  N   LIG    1      -31.921  74.140  29.333  0.00  0.00    -0.314 N 
ATOM     26  H   LIG    1      -30.961  74.438  29.462  0.00  0.00    +0.152 HD
BRANCH  25  27
ATOM     27  C   LIG    1      -32.105  72.743  29.334  0.00  0.00    +0.033 A 
ATOM     28  C   LIG    1      -33.334  72.150  29.022  0.00  0.00    +0.047 A 
ATOM     29  C   LIG    1      -33.440  70.775  29.115  0.00  0.00    +0.043 A 
ATOM     30  N   LIG    1      -34.571  70.016  28.848  0.00  0.00    -0.281 N 
ATOM     31  H   LIG    1      -35.467  70.375  28.545  0.00  0.00    +0.155 HD
ATOM     32  C   LIG    1      -34.333  68.664  29.020  0.00  0.00    +0.249 C 
ATOM     33  O   LIG    1      -35.132  67.773  28.812  0.00  0.00    -0.270 OA
ATOM     34  C   LIG    1      -32.884  68.567  29.448  0.00  0.00    +0.048 C 
ATOM     35  C   LIG    1      -32.154  67.477  29.737  0.00  0.00    +0.039 C 
ATOM     36  C   LIG    1      -32.377  69.949  29.497  0.00  0.00    +0.008 A 
ATOM     37  C   LIG    1      -31.156  70.517  29.810  0.00  0.00    +0.012 A 
ATOM     38  C   LIG    1      -31.029  71.915  29.729  0.00  0.00    +0.024 A 
BRANCH  35  39
ATOM     39  C   LIG    1      -32.576  66.120  29.690  0.00  0.00    +0.040 A 
ATOM     40  N   LIG    1      -33.520  65.625  30.561  0.00  0.00    -0.361 N 
ATOM     41  H   LIG    1      -33.904  66.128  31.353  0.00  0.00    +0.165 HD
ATOM     42  C   LIG    1      -33.791  64.312  30.275  0.00  0.00    +0.083 A 
ATOM     43  C   LIG    1      -33.011  63.945  29.204  0.00  0.00    +0.019 A 
ATOM     44  C   LIG    1      -32.258  65.085  28.826  0.00  0.00    +0.027 A 
ENDBRANCH  35  39
ENDBRANCH  25  27
ENDBRANCH   3  25
TORSDOF 6
ENDMDL
