MODEL 1
REMARK VINA RESULT:      -6.3      0.000      0.000
REMARK  Name = pdb/CHEMBL3671138.pdb
REMARK                            x       y       z     vdW  Elec       q    Type
REMARK                         _______ _______ _______ _____ _____    ______ ____
ROOT
ATOM      1  C   LIG    1      -22.848  76.826  30.464  0.00  0.00    +0.100 A 
ATOM      2  C   LIG    1      -21.903  77.359  31.323  0.00  0.00    +0.170 A 
ATOM      3  N   LIG    1      -21.988  77.830  32.609  0.00  0.00    -0.212 NA
ATOM      4  C   LIG    1      -20.875  78.179  33.222  0.00  0.00    +0.126 A 
ATOM      5  C   LIG    1      -19.542  78.173  32.508  0.00  0.00    +0.063 A 
ATOM      6  C   LIG    1      -19.521  77.728  31.246  0.00  0.00    +0.118 A 
ATOM      7  N   LIG    1      -20.689  77.304  30.638  0.00  0.00    -0.221 N 
ATOM      8  N   LIG    1      -20.828  76.806  29.387  0.00  0.00    -0.173 NA
ATOM      9  C   LIG    1      -22.123  76.501  29.301  0.00  0.00    +0.150 A 
ENDROOT
BRANCH   1  13
ATOM     10  C   LIG    1      -25.945  75.695  32.205  0.00  0.00    +0.128 C 
ATOM     11  N   LIG    1      -24.582  75.935  31.824  0.00  0.00    -0.314 N 
ATOM     12  H   LIG    1      -23.816  75.551  32.372  0.00  0.00    +0.149 HD
ATOM     13  C   LIG    1      -24.267  76.624  30.674  0.00  0.00    +0.249 C 
ATOM     14  O   LIG    1      -25.107  77.074  29.911  0.00  0.00    -0.270 OA
ENDBRANCH   1  13
BRANCH   4  15
ATOM     15  N   LIG    1      -20.934  78.572  34.555  0.00  0.00    -0.308 N 
ATOM     16  C   LIG    1      -20.693  79.960  34.994  0.00  0.00    +0.108 C 
ATOM     17  C   LIG    1      -19.613  79.770  36.070  0.00  0.00    +0.029 C 
ATOM     18  C   LIG    1      -20.063  78.506  36.779  0.00  0.00    +0.021 C 
ATOM     19  C   LIG    1      -20.585  77.637  35.638  0.00  0.00    +0.107 C 
BRANCH  16  20
ATOM     20  C   LIG    1      -21.969  80.617  35.502  0.00  0.00    +0.011 A 
ATOM     21  C   LIG    1      -21.923  81.914  36.035  0.00  0.00    +0.129 A 
ATOM     22  F   LIG    1      -20.762  82.582  36.068  0.00  0.00    -0.205 F 
ATOM     23  C   LIG    1      -23.062  82.547  36.538  0.00  0.00    +0.041 A 
ATOM     24  C   LIG    1      -24.291  81.892  36.494  0.00  0.00    +0.041 A 
ATOM     25  C   LIG    1      -24.362  80.622  35.936  0.00  0.00    +0.124 A 
ATOM     26  F   LIG    1      -25.542  79.994  35.878  0.00  0.00    -0.205 F 
ATOM     27  C   LIG    1      -23.225  79.988  35.440  0.00  0.00    +0.046 A 
ENDBRANCH  16  20
ENDBRANCH   4  15
TORSDOF 3
ENDMDL
MODEL 2
REMARK VINA RESULT:      -5.7     19.062     21.444
REMARK  Name = pdb/CHEMBL3671138.pdb
REMARK                            x       y       z     vdW  Elec       q    Type
REMARK                         _______ _______ _______ _____ _____    ______ ____
ROOT
ATOM      1  C   LIG    1      -40.343  68.871  21.286  0.00  0.00    +0.100 A 
ATOM      2  C   LIG    1      -39.549  69.465  22.251  0.00  0.00    +0.170 A 
ATOM      3  N   LIG    1      -39.762  70.526  23.095  0.00  0.00    -0.212 NA
ATOM      4  C   LIG    1      -38.845  70.798  24.002  0.00  0.00    +0.126 A 
ATOM      5  C   LIG    1      -37.537  70.043  24.056  0.00  0.00    +0.063 A 
ATOM      6  C   LIG    1      -37.370  69.034  23.192  0.00  0.00    +0.118 A 
ATOM      7  N   LIG    1      -38.370  68.720  22.289  0.00  0.00    -0.221 N 
ATOM      8  N   LIG    1      -38.365  67.721  21.376  0.00  0.00    -0.173 NA
ATOM      9  C   LIG    1      -39.562  67.805  20.796  0.00  0.00    +0.150 A 
ENDROOT
BRANCH   1  13
ATOM     10  C   LIG    1      -43.082  71.046  19.993  0.00  0.00    +0.128 C 
ATOM     11  N   LIG    1      -41.833  70.545  20.494  0.00  0.00    -0.314 N 
ATOM     12  H   LIG    1      -41.047  71.172  20.645  0.00  0.00    +0.149 HD
ATOM     13  C   LIG    1      -41.679  69.225  20.853  0.00  0.00    +0.249 C 
ATOM     14  O   LIG    1      -42.575  68.399  20.771  0.00  0.00    -0.270 OA
ENDBRANCH   1  13
BRANCH   4  15
ATOM     15  N   LIG    1      -39.088  71.812  24.923  0.00  0.00    -0.308 N 
ATOM     16  C   LIG    1      -38.286  73.048  24.985  0.00  0.00    +0.108 C 
ATOM     17  C   LIG    1      -37.870  73.082  26.464  0.00  0.00    +0.029 C 
ATOM     18  C   LIG    1      -39.121  72.603  27.177  0.00  0.00    +0.021 C 
ATOM     19  C   LIG    1      -39.650  71.511  26.251  0.00  0.00    +0.107 C 
BRANCH  16  20
ATOM     20  C   LIG    1      -39.088  74.261  24.536  0.00  0.00    +0.011 A 
ATOM     21  C   LIG    1      -38.530  75.544  24.635  0.00  0.00    +0.129 A 
ATOM     22  F   LIG    1      -37.281  75.696  25.095  0.00  0.00    -0.205 F 
ATOM     23  C   LIG    1      -39.238  76.688  24.260  0.00  0.00    +0.041 A 
ATOM     24  C   LIG    1      -40.528  76.565  23.751  0.00  0.00    +0.041 A 
ATOM     25  C   LIG    1      -41.084  75.300  23.612  0.00  0.00    +0.124 A 
ATOM     26  F   LIG    1      -42.318  75.174  23.110  0.00  0.00    -0.205 F 
ATOM     27  C   LIG    1      -40.380  74.159  23.991  0.00  0.00    +0.046 A 
ENDBRANCH  16  20
ENDBRANCH   4  15
TORSDOF 3
ENDMDL
MODEL 3
REMARK VINA RESULT:      -5.7     14.537     18.793
REMARK  Name = pdb/CHEMBL3671138.pdb
REMARK                            x       y       z     vdW  Elec       q    Type
REMARK                         _______ _______ _______ _____ _____    ______ ____
ROOT
ATOM      1  C   LIG    1      -34.284  76.298  27.554  0.00  0.00    +0.100 A 
ATOM      2  C   LIG    1      -35.602  75.945  27.324  0.00  0.00    +0.170 A 
ATOM      3  N   LIG    1      -36.638  76.602  26.709  0.00  0.00    -0.212 NA
ATOM      4  C   LIG    1      -37.774  75.956  26.538  0.00  0.00    +0.126 A 
ATOM      5  C   LIG    1      -37.986  74.567  27.093  0.00  0.00    +0.063 A 
ATOM      6  C   LIG    1      -36.950  73.982  27.706  0.00  0.00    +0.118 A 
ATOM      7  N   LIG    1      -35.744  74.650  27.821  0.00  0.00    -0.221 N 
ATOM      8  N   LIG    1      -34.603  74.189  28.385  0.00  0.00    -0.173 NA
ATOM      9  C   LIG    1      -33.727  75.176  28.199  0.00  0.00    +0.150 A 
ENDROOT
BRANCH   1  13
ATOM     10  C   LIG    1      -33.697  79.974  27.340  0.00  0.00    +0.128 C 
ATOM     11  N   LIG    1      -34.268  78.675  27.558  0.00  0.00    -0.314 N 
ATOM     12  H   LIG    1      -35.213  78.579  27.922  0.00  0.00    +0.149 HD
ATOM     13  C   LIG    1      -33.592  77.525  27.218  0.00  0.00    +0.249 C 
ATOM     14  O   LIG    1      -32.478  77.526  26.717  0.00  0.00    -0.270 OA
ENDBRANCH   1  13
BRANCH   4  15
ATOM     15  N   LIG    1      -38.803  76.576  25.836  0.00  0.00    -0.308 N 
ATOM     16  C   LIG    1      -38.935  76.499  24.369  0.00  0.00    +0.108 C 
ATOM     17  C   LIG    1      -39.035  77.982  23.980  0.00  0.00    +0.029 C 
ATOM     18  C   LIG    1      -39.900  78.561  25.085  0.00  0.00    +0.021 C 
ATOM     19  C   LIG    1      -39.412  77.824  26.328  0.00  0.00    +0.107 C 
BRANCH  16  20
ATOM     20  C   LIG    1      -40.139  75.665  23.957  0.00  0.00    +0.011 A 
ATOM     21  C   LIG    1      -40.045  74.265  23.933  0.00  0.00    +0.129 A 
ATOM     22  F   LIG    1      -38.904  73.666  24.303  0.00  0.00    -0.205 F 
ATOM     23  C   LIG    1      -41.113  73.459  23.536  0.00  0.00    +0.041 A 
ATOM     24  C   LIG    1      -42.323  74.047  23.172  0.00  0.00    +0.041 A 
ATOM     25  C   LIG    1      -42.446  75.429  23.224  0.00  0.00    +0.124 A 
ATOM     26  F   LIG    1      -43.610  75.999  22.890  0.00  0.00    -0.205 F 
ATOM     27  C   LIG    1      -41.378  76.234  23.615  0.00  0.00    +0.046 A 
ENDBRANCH  16  20
ENDBRANCH   4  15
TORSDOF 3
ENDMDL
MODEL 4
REMARK VINA RESULT:      -5.6      2.222      3.853
REMARK  Name = pdb/CHEMBL3671138.pdb
REMARK                            x       y       z     vdW  Elec       q    Type
REMARK                         _______ _______ _______ _____ _____    ______ ____
ROOT
ATOM      1  C   LIG    1      -20.675  77.215  30.629  0.00  0.00    +0.100 A 
ATOM      2  C   LIG    1      -21.922  77.359  31.213  0.00  0.00    +0.170 A 
ATOM      3  N   LIG    1      -22.313  77.764  32.464  0.00  0.00    -0.212 NA
ATOM      4  C   LIG    1      -23.600  77.911  32.701  0.00  0.00    +0.126 A 
ATOM      5  C   LIG    1      -24.641  77.543  31.669  0.00  0.00    +0.063 A 
ATOM      6  C   LIG    1      -24.206  77.129  30.473  0.00  0.00    +0.118 A 
ATOM      7  N   LIG    1      -22.848  77.042  30.220  0.00  0.00    -0.221 N 
ATOM      8  N   LIG    1      -22.253  76.669  29.063  0.00  0.00    -0.173 NA
ATOM      9  C   LIG    1      -20.950  76.799  29.312  0.00  0.00    +0.150 A 
ENDROOT
BRANCH   1  13
ATOM     10  C   LIG    1      -18.094  78.777  32.821  0.00  0.00    +0.128 C 
ATOM     11  N   LIG    1      -19.309  78.461  32.123  0.00  0.00    -0.314 N 
ATOM     12  H   LIG    1      -20.145  79.024  32.257  0.00  0.00    +0.149 HD
ATOM     13  C   LIG    1      -19.364  77.439  31.202  0.00  0.00    +0.249 C 
ATOM     14  O   LIG    1      -18.404  76.740  30.919  0.00  0.00    -0.270 OA
ENDBRANCH   1  13
BRANCH   4  15
ATOM     15  N   LIG    1      -24.007  78.408  33.935  0.00  0.00    -0.308 N 
ATOM     16  C   LIG    1      -23.118  78.463  35.111  0.00  0.00    +0.108 C 
ATOM     17  C   LIG    1      -23.956  77.739  36.176  0.00  0.00    +0.029 C 
ATOM     18  C   LIG    1      -25.361  78.239  35.896  0.00  0.00    +0.021 C 
ATOM     19  C   LIG    1      -25.409  78.298  34.372  0.00  0.00    +0.107 C 
BRANCH  16  20
ATOM     20  C   LIG    1      -22.754  79.895  35.473  0.00  0.00    +0.011 A 
ATOM     21  C   LIG    1      -21.414  80.308  35.431  0.00  0.00    +0.129 A 
ATOM     22  F   LIG    1      -20.462  79.448  35.043  0.00  0.00    -0.205 F 
ATOM     23  C   LIG    1      -21.028  81.603  35.780  0.00  0.00    +0.041 A 
ATOM     24  C   LIG    1      -21.994  82.531  36.162  0.00  0.00    +0.041 A 
ATOM     25  C   LIG    1      -23.330  82.151  36.175  0.00  0.00    +0.124 A 
ATOM     26  F   LIG    1      -24.264  83.043  36.527  0.00  0.00    -0.205 F 
ATOM     27  C   LIG    1      -23.714  80.857  35.832  0.00  0.00    +0.046 A 
ENDBRANCH  16  20
ENDBRANCH   4  15
TORSDOF 3
ENDMDL
MODEL 5
REMARK VINA RESULT:      -5.6      1.774      3.475
REMARK  Name = pdb/CHEMBL3671138.pdb
REMARK                            x       y       z     vdW  Elec       q    Type
REMARK                         _______ _______ _______ _____ _____    ______ ____
ROOT
ATOM      1  C   LIG    1      -23.073  77.265  30.708  0.00  0.00    +0.100 A 
ATOM      2  C   LIG    1      -23.083  77.639  32.041  0.00  0.00    +0.170 A 
ATOM      3  N   LIG    1      -22.077  77.810  32.958  0.00  0.00    -0.212 NA
ATOM      4  C   LIG    1      -22.387  78.289  34.145  0.00  0.00    +0.126 A 
ATOM      5  C   LIG    1      -23.822  78.545  34.545  0.00  0.00    +0.063 A 
ATOM      6  C   LIG    1      -24.767  78.336  33.621  0.00  0.00    +0.118 A 
ATOM      7  N   LIG    1      -24.417  77.895  32.357  0.00  0.00    -0.221 N 
ATOM      8  N   LIG    1      -25.245  77.663  31.312  0.00  0.00    -0.173 NA
ATOM      9  C   LIG    1      -24.427  77.308  30.321  0.00  0.00    +0.150 A 
ENDROOT
BRANCH   1  13
ATOM     10  C   LIG    1      -19.502  76.772  29.752  0.00  0.00    +0.128 C 
ATOM     11  N   LIG    1      -20.716  77.121  30.437  0.00  0.00    -0.314 N 
ATOM     12  H   LIG    1      -20.685  77.582  31.342  0.00  0.00    +0.149 HD
ATOM     13  C   LIG    1      -21.950  76.910  29.865  0.00  0.00    +0.249 C 
ATOM     14  O   LIG    1      -22.101  76.420  28.756  0.00  0.00    -0.270 OA
ENDBRANCH   1  13
BRANCH   4  15
ATOM     15  N   LIG    1      -21.367  78.555  35.053  0.00  0.00    -0.308 N 
ATOM     16  C   LIG    1      -20.418  79.672  34.890  0.00  0.00    +0.108 C 
ATOM     17  C   LIG    1      -19.063  78.957  35.004  0.00  0.00    +0.029 C 
ATOM     18  C   LIG    1      -19.310  77.939  36.102  0.00  0.00    +0.021 C 
ATOM     19  C   LIG    1      -20.735  77.469  35.823  0.00  0.00    +0.107 C 
BRANCH  16  20
ATOM     20  C   LIG    1      -20.640  80.754  35.937  0.00  0.00    +0.011 A 
ATOM     21  C   LIG    1      -21.728  81.632  35.815  0.00  0.00    +0.129 A 
ATOM     22  F   LIG    1      -22.585  81.495  34.794  0.00  0.00    -0.205 F 
ATOM     23  C   LIG    1      -21.957  82.657  36.735  0.00  0.00    +0.041 A 
ATOM     24  C   LIG    1      -21.102  82.811  37.824  0.00  0.00    +0.041 A 
ATOM     25  C   LIG    1      -20.041  81.929  37.981  0.00  0.00    +0.124 A 
ATOM     26  F   LIG    1      -19.224  82.062  39.033  0.00  0.00    -0.205 F 
ATOM     27  C   LIG    1      -19.809  80.909  37.060  0.00  0.00    +0.046 A 
ENDBRANCH  16  20
ENDBRANCH   4  15
TORSDOF 3
ENDMDL
MODEL 6
REMARK VINA RESULT:      -5.6      2.496      5.001
REMARK  Name = pdb/CHEMBL3671138.pdb
REMARK                            x       y       z     vdW  Elec       q    Type
REMARK                         _______ _______ _______ _____ _____    ______ ____
ROOT
ATOM      1  C   LIG    1      -25.916  77.435  33.006  0.00  0.00    +0.100 A 
ATOM      2  C   LIG    1      -25.239  78.072  34.031  0.00  0.00    +0.170 A 
ATOM      3  N   LIG    1      -24.012  78.684  34.085  0.00  0.00    -0.212 NA
ATOM      4  C   LIG    1      -23.675  79.314  35.192  0.00  0.00    +0.126 A 
ATOM      5  C   LIG    1      -24.555  79.281  36.421  0.00  0.00    +0.063 A 
ATOM      6  C   LIG    1      -25.729  78.648  36.322  0.00  0.00    +0.118 A 
ATOM      7  N   LIG    1      -26.097  78.047  35.131  0.00  0.00    -0.221 N 
ATOM      8  N   LIG    1      -27.253  77.395  34.865  0.00  0.00    -0.173 NA
ATOM      9  C   LIG    1      -27.144  77.053  33.581  0.00  0.00    +0.150 A 
ENDROOT
BRANCH   1  13
ATOM     10  C   LIG    1      -23.675  77.513  30.027  0.00  0.00    +0.128 C 
ATOM     11  N   LIG    1      -24.257  77.705  31.326  0.00  0.00    -0.314 N 
ATOM     12  H   LIG    1      -23.783  78.268  32.028  0.00  0.00    +0.149 HD
ATOM     13  C   LIG    1      -25.499  77.201  31.639  0.00  0.00    +0.249 C 
ATOM     14  O   LIG    1      -26.182  76.564  30.852  0.00  0.00    -0.270 OA
ENDBRANCH   1  13
BRANCH   4  15
ATOM     15  N   LIG    1      -22.474  80.016  35.230  0.00  0.00    -0.308 N 
ATOM     16  C   LIG    1      -21.259  79.493  35.883  0.00  0.00    +0.108 C 
ATOM     17  C   LIG    1      -20.884  80.647  36.826  0.00  0.00    +0.029 C 
ATOM     18  C   LIG    1      -21.182  81.877  35.988  0.00  0.00    +0.021 C 
ATOM     19  C   LIG    1      -22.457  81.489  35.245  0.00  0.00    +0.107 C 
BRANCH  16  20
ATOM     20  C   LIG    1      -20.182  79.145  34.866  0.00  0.00    +0.011 A 
ATOM     21  C   LIG    1      -18.862  78.928  35.291  0.00  0.00    +0.129 A 
ATOM     22  F   LIG    1      -18.561  78.999  36.595  0.00  0.00    -0.205 F 
ATOM     23  C   LIG    1      -17.835  78.633  34.393  0.00  0.00    +0.041 A 
ATOM     24  C   LIG    1      -18.119  78.524  33.033  0.00  0.00    +0.041 A 
ATOM     25  C   LIG    1      -19.426  78.700  32.598  0.00  0.00    +0.124 A 
ATOM     26  F   LIG    1      -19.707  78.582  31.294  0.00  0.00    -0.205 F 
ATOM     27  C   LIG    1      -20.449  79.000  33.494  0.00  0.00    +0.046 A 
ENDBRANCH  16  20
ENDBRANCH   4  15
TORSDOF 3
ENDMDL
MODEL 7
REMARK VINA RESULT:      -5.5     18.637     20.863
REMARK  Name = pdb/CHEMBL3671138.pdb
REMARK                            x       y       z     vdW  Elec       q    Type
REMARK                         _______ _______ _______ _____ _____    ______ ____
ROOT
ATOM      1  C   LIG    1      -19.676  86.766  13.198  0.00  0.00    +0.100 A 
ATOM      2  C   LIG    1      -19.075  85.531  13.367  0.00  0.00    +0.170 A 
ATOM      3  N   LIG    1      -19.564  84.315  13.774  0.00  0.00    -0.212 NA
ATOM      4  C   LIG    1      -18.762  83.271  13.729  0.00  0.00    +0.126 A 
ATOM      5  C   LIG    1      -17.306  83.407  13.346  0.00  0.00    +0.063 A 
ATOM      6  C   LIG    1      -16.875  84.620  12.982  0.00  0.00    +0.118 A 
ATOM      7  N   LIG    1      -17.747  85.695  12.973  0.00  0.00    -0.221 N 
ATOM      8  N   LIG    1      -17.473  86.969  12.608  0.00  0.00    -0.173 NA
ATOM      9  C   LIG    1      -18.643  87.598  12.725  0.00  0.00    +0.150 A 
ENDROOT
BRANCH   1  13
ATOM     10  C   LIG    1      -22.523  88.529  14.839  0.00  0.00    +0.128 C 
ATOM     11  N   LIG    1      -21.228  88.008  14.502  0.00  0.00    -0.314 N 
ATOM     12  H   LIG    1      -20.419  88.217  15.082  0.00  0.00    +0.149 HD
ATOM     13  C   LIG    1      -21.051  87.156  13.435  0.00  0.00    +0.249 C 
ATOM     14  O   LIG    1      -21.963  86.790  12.710  0.00  0.00    -0.270 OA
ENDBRANCH   1  13
BRANCH   4  15
ATOM     15  N   LIG    1      -19.270  82.017  14.052  0.00  0.00    -0.308 N 
ATOM     16  C   LIG    1      -20.135  81.778  15.224  0.00  0.00    +0.108 C 
ATOM     17  C   LIG    1      -19.399  80.630  15.932  0.00  0.00    +0.029 C 
ATOM     18  C   LIG    1      -18.932  79.765  14.776  0.00  0.00    +0.021 C 
ATOM     19  C   LIG    1      -18.526  80.789  13.720  0.00  0.00    +0.107 C 
BRANCH  16  20
ATOM     20  C   LIG    1      -21.560  81.442  14.810  0.00  0.00    +0.011 A 
ATOM     21  C   LIG    1      -22.517  81.132  15.787  0.00  0.00    +0.129 A 
ATOM     22  F   LIG    1      -22.182  81.162  17.084  0.00  0.00    -0.205 F 
ATOM     23  C   LIG    1      -23.830  80.792  15.454  0.00  0.00    +0.041 A 
ATOM     24  C   LIG    1      -24.220  80.778  14.116  0.00  0.00    +0.041 A 
ATOM     25  C   LIG    1      -23.296  81.117  13.138  0.00  0.00    +0.124 A 
ATOM     26  F   LIG    1      -23.669  81.119  11.852  0.00  0.00    -0.205 F 
ATOM     27  C   LIG    1      -21.985  81.451  13.470  0.00  0.00    +0.046 A 
ENDBRANCH  16  20
ENDBRANCH   4  15
TORSDOF 3
ENDMDL
MODEL 8
REMARK VINA RESULT:      -5.5     24.482     26.492
REMARK  Name = pdb/CHEMBL3671138.pdb
REMARK                            x       y       z     vdW  Elec       q    Type
REMARK                         _______ _______ _______ _____ _____    ______ ____
ROOT
ATOM      1  C   LIG    1      -32.088  85.607  11.183  0.00  0.00    +0.100 A 
ATOM      2  C   LIG    1      -32.590  84.337  10.956  0.00  0.00    +0.170 A 
ATOM      3  N   LIG    1      -31.989  83.161  10.585  0.00  0.00    -0.212 NA
ATOM      4  C   LIG    1      -32.721  82.066  10.554  0.00  0.00    +0.126 A 
ATOM      5  C   LIG    1      -34.210  82.102  10.811  0.00  0.00    +0.063 A 
ATOM      6  C   LIG    1      -34.750  83.281  11.144  0.00  0.00    +0.118 A 
ATOM      7  N   LIG    1      -33.955  84.409  11.235  0.00  0.00    -0.221 N 
ATOM      8  N   LIG    1      -34.342  85.659  11.583  0.00  0.00    -0.173 NA
ATOM      9  C   LIG    1      -33.211  86.364  11.571  0.00  0.00    +0.150 A 
ENDROOT
BRANCH   1  13
ATOM     10  C   LIG    1      -28.390  85.410  10.753  0.00  0.00    +0.128 C 
ATOM     11  N   LIG    1      -29.780  85.098  10.931  0.00  0.00    -0.314 N 
ATOM     12  H   LIG    1      -30.088  84.133  11.013  0.00  0.00    +0.149 HD
ATOM     13  C   LIG    1      -30.727  86.088  11.068  0.00  0.00    +0.249 C 
ATOM     14  O   LIG    1      -30.460  87.280  11.047  0.00  0.00    -0.270 OA
ENDBRANCH   1  13
BRANCH   4  15
ATOM     15  N   LIG    1      -32.107  80.851  10.269  0.00  0.00    -0.308 N 
ATOM     16  C   LIG    1      -32.514  79.578  10.894  0.00  0.00    +0.108 C 
ATOM     17  C   LIG    1      -31.179  79.057  11.449  0.00  0.00    +0.029 C 
ATOM     18  C   LIG    1      -30.194  79.422  10.355  0.00  0.00    +0.021 C 
ATOM     19  C   LIG    1      -30.684  80.791   9.892  0.00  0.00    +0.107 C 
BRANCH  16  20
ATOM     20  C   LIG    1      -33.178  78.647   9.891  0.00  0.00    +0.011 A 
ATOM     21  C   LIG    1      -33.468  77.323  10.252  0.00  0.00    +0.129 A 
ATOM     22  F   LIG    1      -33.188  76.891  11.489  0.00  0.00    -0.205 F 
ATOM     23  C   LIG    1      -34.052  76.424   9.357  0.00  0.00    +0.041 A 
ATOM     24  C   LIG    1      -34.382  76.847   8.071  0.00  0.00    +0.041 A 
ATOM     25  C   LIG    1      -34.135  78.164   7.708  0.00  0.00    +0.124 A 
ATOM     26  F   LIG    1      -34.463  78.581   6.479  0.00  0.00    -0.205 F 
ATOM     27  C   LIG    1      -33.548  79.060   8.599  0.00  0.00    +0.046 A 
ENDBRANCH  16  20
ENDBRANCH   4  15
TORSDOF 3
ENDMDL
MODEL 9
REMARK VINA RESULT:      -5.4     18.582     21.127
REMARK  Name = pdb/CHEMBL3671138.pdb
REMARK                            x       y       z     vdW  Elec       q    Type
REMARK                         _______ _______ _______ _____ _____    ______ ____
ROOT
ATOM      1  C   LIG    1      -35.370  67.555  23.524  0.00  0.00    +0.100 A 
ATOM      2  C   LIG    1      -36.468  67.979  22.796  0.00  0.00    +0.170 A 
ATOM      3  N   LIG    1      -37.583  68.698  23.145  0.00  0.00    -0.212 NA
ATOM      4  C   LIG    1      -38.422  69.053  22.192  0.00  0.00    +0.126 A 
ATOM      5  C   LIG    1      -38.235  68.598  20.763  0.00  0.00    +0.063 A 
ATOM      6  C   LIG    1      -37.143  67.877  20.483  0.00  0.00    +0.118 A 
ATOM      7  N   LIG    1      -36.239  67.567  21.483  0.00  0.00    -0.221 N 
ATOM      8  N   LIG    1      -35.083  66.875  21.356  0.00  0.00    -0.173 NA
ATOM      9  C   LIG    1      -34.558  66.893  22.582  0.00  0.00    +0.150 A 
ENDROOT
BRANCH   1  13
ATOM     10  C   LIG    1      -34.025  66.713  26.898  0.00  0.00    +0.128 C 
ATOM     11  N   LIG    1      -34.432  66.673  25.522  0.00  0.00    -0.314 N 
ATOM     12  H   LIG    1      -34.296  65.832  24.966  0.00  0.00    +0.149 HD
ATOM     13  C   LIG    1      -35.078  67.735  24.931  0.00  0.00    +0.249 C 
ATOM     14  O   LIG    1      -35.347  68.769  25.522  0.00  0.00    -0.270 OA
ENDBRANCH   1  13
BRANCH   4  15
ATOM     15  N   LIG    1      -39.509  69.859  22.517  0.00  0.00    -0.308 N 
ATOM     16  C   LIG    1      -39.820  70.269  23.900  0.00  0.00    +0.108 C 
ATOM     17  C   LIG    1      -41.289  69.840  24.035  0.00  0.00    +0.029 C 
ATOM     18  C   LIG    1      -41.869  70.193  22.678  0.00  0.00    +0.021 C 
ATOM     19  C   LIG    1      -40.744  69.826  21.715  0.00  0.00    +0.107 C 
BRANCH  16  20
ATOM     20  C   LIG    1      -39.583  71.757  24.110  0.00  0.00    +0.011 A 
ATOM     21  C   LIG    1      -38.384  72.200  24.688  0.00  0.00    +0.129 A 
ATOM     22  F   LIG    1      -37.437  71.313  25.025  0.00  0.00    -0.205 F 
ATOM     23  C   LIG    1      -38.133  73.553  24.926  0.00  0.00    +0.041 A 
ATOM     24  C   LIG    1      -39.084  74.504  24.563  0.00  0.00    +0.041 A 
ATOM     25  C   LIG    1      -40.261  74.088  23.957  0.00  0.00    +0.124 A 
ATOM     26  F   LIG    1      -41.172  74.998  23.592  0.00  0.00    -0.205 F 
ATOM     27  C   LIG    1      -40.514  72.738  23.724  0.00  0.00    +0.046 A 
ENDBRANCH  16  20
ENDBRANCH   4  15
TORSDOF 3
ENDMDL
