MODEL 1
REMARK VINA RESULT:      -7.0      0.000      0.000
REMARK  Name = pdb/CHEMBL3978831.pdb
REMARK                            x       y       z     vdW  Elec       q    Type
REMARK                         _______ _______ _______ _____ _____    ______ ____
ROOT
ATOM      1  C   LIG    1      -31.201  75.237  30.125  0.00  0.00    +0.149 A 
ATOM      2  N   LIG    1      -31.430  76.497  29.729  0.00  0.00    -0.160 NA
ATOM      3  N   LIG    1      -32.582  76.429  28.985  0.00  0.00    -0.218 N 
ATOM      4  C   LIG    1      -33.011  75.101  28.823  0.00  0.00    +0.129 A 
ATOM      5  C   LIG    1      -32.150  74.351  29.587  0.00  0.00    +0.078 A 
ENDROOT
BRANCH   3   6
ATOM      6  C   LIG    1      -33.150  77.639  28.483  0.00  0.00    +0.067 A 
ATOM      7  C   LIG    1      -32.496  78.311  27.435  0.00  0.00    +0.028 A 
ATOM      8  C   LIG    1      -33.006  79.511  26.930  0.00  0.00    +0.002 A 
ATOM      9  C   LIG    1      -34.156  80.064  27.484  0.00  0.00    +0.000 A 
ATOM     10  C   LIG    1      -34.800  79.416  28.539  0.00  0.00    +0.002 A 
ATOM     11  C   LIG    1      -34.306  78.202  29.038  0.00  0.00    +0.028 A 
ENDBRANCH   3   6
BRANCH   4  12
ATOM     12  N   LIG    1      -34.044  74.590  28.014  0.00  0.00    -0.266 N 
ATOM     13  H   LIG    1      -33.792  74.144  27.141  0.00  0.00    +0.157 HD
ATOM     14  C   LIG    1      -35.433  74.597  28.424  0.00  0.00    +0.251 C 
ATOM     15  O   LIG    1      -35.773  75.029  29.508  0.00  0.00    -0.270 OA
BRANCH  14  16
ATOM     16  C   LIG    1      -36.477  74.145  27.471  0.00  0.00    +0.056 A 
ATOM     17  C   LIG    1      -36.734  72.825  27.134  0.00  0.00    +0.054 A 
ATOM     18 CL   LIG    1      -35.945  71.491  27.888  0.00  0.00    -0.083 Cl
ATOM     19  C   LIG    1      -37.686  72.546  26.154  0.00  0.00    +0.041 A 
ATOM     20  C   LIG    1      -38.390  73.576  25.502  0.00  0.00    +0.052 A 
ATOM     21 CL   LIG    1      -39.426  73.047  24.217  0.00  0.00    -0.083 Cl
ATOM     22  C   LIG    1      -38.204  74.928  25.856  0.00  0.00    +0.022 A 
ATOM     23  C   LIG    1      -37.248  75.168  26.871  0.00  0.00    +0.026 A 
BRANCH  22  24
ATOM     24  C   LIG    1      -38.938  76.076  25.247  0.00  0.00    +0.107 A 
ATOM     25  C   LIG    1      -38.390  76.922  24.274  0.00  0.00    +0.149 A 
ATOM     26  F   LIG    1      -37.160  76.723  23.776  0.00  0.00    -0.203 F 
ATOM     27  C   LIG    1      -39.122  78.002  23.790  0.00  0.00    +0.042 A 
ATOM     28  C   LIG    1      -40.410  78.209  24.256  0.00  0.00    +0.023 A 
ATOM     29  C   LIG    1      -40.901  77.332  25.206  0.00  0.00    +0.111 A 
ATOM     30  N   LIG    1      -40.189  76.302  25.721  0.00  0.00    -0.252 NA
ENDBRANCH  22  24
ENDBRANCH  14  16
ENDBRANCH   4  12
BRANCH   1  32
ATOM     31  N   LIG    1      -29.271  75.780  31.394  0.00  0.00    -0.239 NA
ATOM     32  C   LIG    1      -30.076  74.869  30.978  0.00  0.00    +0.236 C 
BRANCH  32  33
ATOM     33  O   LIG    1      -29.971  73.559  31.283  0.00  0.00    -0.491 OA
ATOM     34  H   LIG    1      -29.942  73.455  32.253  0.00  0.00    +0.294 HD
ENDBRANCH  32  33
BRANCH  31  35
ATOM     35  C   LIG    1      -28.141  75.336  32.219  0.00  0.00    +0.243 C 
BRANCH  35  40
ATOM     36  C   LIG    1      -24.382  77.716  30.327  0.00  0.00    +0.111 C 
ATOM     37  C   LIG    1      -25.376  77.362  31.352  0.00  0.00    +0.214 A 
ATOM     38  N   LIG    1      -25.525  77.823  32.575  0.00  0.00    -0.113 NA
ATOM     39  N   LIG    1      -26.597  77.144  33.116  0.00  0.00    -0.110 NA
ATOM     40  C   LIG    1      -27.026  76.318  32.183  0.00  0.00    +0.238 A 
ATOM     41  O   LIG    1      -26.297  76.405  31.024  0.00  0.00    -0.423 OA
ENDBRANCH  35  40
ENDBRANCH  31  35
ENDBRANCH   1  32
TORSDOF 8
ENDMDL
MODEL 2
REMARK VINA RESULT:      -6.8      4.974      8.864
REMARK  Name = pdb/CHEMBL3978831.pdb
REMARK                            x       y       z     vdW  Elec       q    Type
REMARK                         _______ _______ _______ _____ _____    ______ ____
ROOT
ATOM      1  C   LIG    1      -38.471  76.251  25.584  0.00  0.00    +0.149 A 
ATOM      2  N   LIG    1      -39.567  75.878  24.908  0.00  0.00    -0.160 NA
ATOM      3  N   LIG    1      -39.349  74.562  24.582  0.00  0.00    -0.218 N 
ATOM      4  C   LIG    1      -38.061  74.146  24.957  0.00  0.00    +0.129 A 
ATOM      5  C   LIG    1      -37.523  75.215  25.633  0.00  0.00    +0.078 A 
ENDROOT
BRANCH   3   6
ATOM      6  C   LIG    1      -40.386  73.836  23.922  0.00  0.00    +0.067 A 
ATOM      7  C   LIG    1      -41.515  74.535  23.459  0.00  0.00    +0.028 A 
ATOM      8  C   LIG    1      -42.564  73.859  22.828  0.00  0.00    +0.002 A 
ATOM      9  C   LIG    1      -42.507  72.476  22.679  0.00  0.00    +0.000 A 
ATOM     10  C   LIG    1      -41.401  71.771  23.154  0.00  0.00    +0.002 A 
ATOM     11  C   LIG    1      -40.336  72.445  23.769  0.00  0.00    +0.028 A 
ENDBRANCH   3   6
BRANCH   4  12
ATOM     12  N   LIG    1      -37.394  72.940  24.670  0.00  0.00    -0.266 N 
ATOM     13  H   LIG    1      -36.858  72.881  23.814  0.00  0.00    +0.157 HD
ATOM     14  C   LIG    1      -37.372  71.822  25.591  0.00  0.00    +0.251 C 
ATOM     15  O   LIG    1      -37.916  71.883  26.677  0.00  0.00    -0.270 OA
BRANCH  14  16
ATOM     16  C   LIG    1      -36.746  70.544  25.172  0.00  0.00    +0.056 A 
ATOM     17  C   LIG    1      -35.561  70.032  25.677  0.00  0.00    +0.054 A 
ATOM     18 CL   LIG    1      -34.700  70.762  26.981  0.00  0.00    -0.083 Cl
ATOM     19  C   LIG    1      -35.036  68.862  25.128  0.00  0.00    +0.041 A 
ATOM     20  C   LIG    1      -35.685  68.191  24.074  0.00  0.00    +0.052 A 
ATOM     21 CL   LIG    1      -34.815  66.840  23.428  0.00  0.00    -0.083 Cl
ATOM     22  C   LIG    1      -36.923  68.644  23.571  0.00  0.00    +0.022 A 
ATOM     23  C   LIG    1      -37.433  69.820  24.170  0.00  0.00    +0.026 A 
BRANCH  22  24
ATOM     24  C   LIG    1      -37.698  67.972  22.487  0.00  0.00    +0.107 A 
ATOM     25  C   LIG    1      -37.777  68.453  21.174  0.00  0.00    +0.149 A 
ATOM     26  F   LIG    1      -37.106  69.546  20.780  0.00  0.00    -0.203 F 
ATOM     27  C   LIG    1      -38.561  67.795  20.231  0.00  0.00    +0.042 A 
ATOM     28  C   LIG    1      -39.234  66.640  20.599  0.00  0.00    +0.023 A 
ATOM     29  C   LIG    1      -39.105  66.206  21.906  0.00  0.00    +0.111 A 
ATOM     30  N   LIG    1      -38.383  66.857  22.848  0.00  0.00    -0.252 NA
ENDBRANCH  22  24
ENDBRANCH  14  16
ENDBRANCH   4  12
BRANCH   1  32
ATOM     31  N   LIG    1      -37.352  77.813  26.977  0.00  0.00    -0.239 NA
ATOM     32  C   LIG    1      -38.308  77.586  26.150  0.00  0.00    +0.236 C 
BRANCH  32  33
ATOM     33  O   LIG    1      -39.197  78.513  25.737  0.00  0.00    -0.491 OA
ATOM     34  H   LIG    1      -40.079  78.294  26.092  0.00  0.00    +0.294 HD
ENDBRANCH  32  33
BRANCH  31  35
ATOM     35  C   LIG    1      -37.268  79.168  27.534  0.00  0.00    +0.243 C 
BRANCH  35  40
ATOM     36  C   LIG    1      -32.442  78.898  27.649  0.00  0.00    +0.111 C 
ATOM     37  C   LIG    1      -33.778  79.351  28.068  0.00  0.00    +0.214 A 
ATOM     38  N   LIG    1      -34.124  80.158  29.048  0.00  0.00    -0.113 NA
ATOM     39  N   LIG    1      -35.501  80.235  29.017  0.00  0.00    -0.110 NA
ATOM     40  C   LIG    1      -35.895  79.471  28.018  0.00  0.00    +0.238 A 
ATOM     41  O   LIG    1      -34.848  78.877  27.360  0.00  0.00    -0.423 OA
ENDBRANCH  35  40
ENDBRANCH  31  35
ENDBRANCH   1  32
TORSDOF 8
ENDMDL
MODEL 3
REMARK VINA RESULT:      -6.8     13.154     16.504
REMARK  Name = pdb/CHEMBL3978831.pdb
REMARK                            x       y       z     vdW  Elec       q    Type
REMARK                         _______ _______ _______ _____ _____    ______ ____
ROOT
ATOM      1  C   LIG    1      -31.197  66.180  19.386  0.00  0.00    +0.149 A 
ATOM      2  N   LIG    1      -30.152  65.353  19.233  0.00  0.00    -0.160 NA
ATOM      3  N   LIG    1      -29.148  66.143  18.732  0.00  0.00    -0.218 N 
ATOM      4  C   LIG    1      -29.603  67.445  18.464  0.00  0.00    +0.129 A 
ATOM      5  C   LIG    1      -30.898  67.472  18.923  0.00  0.00    +0.078 A 
ENDROOT
BRANCH   3   6
ATOM      6  C   LIG    1      -27.855  65.571  18.536  0.00  0.00    +0.067 A 
ATOM      7  C   LIG    1      -27.659  64.690  17.457  0.00  0.00    +0.028 A 
ATOM      8  C   LIG    1      -26.414  64.090  17.243  0.00  0.00    +0.002 A 
ATOM      9  C   LIG    1      -25.364  64.341  18.120  0.00  0.00    +0.000 A 
ATOM     10  C   LIG    1      -25.554  65.196  19.206  0.00  0.00    +0.002 A 
ATOM     11  C   LIG    1      -26.793  65.817  19.416  0.00  0.00    +0.028 A 
ENDBRANCH   3   6
BRANCH   4  12
ATOM     12  N   LIG    1      -28.945  68.503  17.810  0.00  0.00    -0.266 N 
ATOM     13  H   LIG    1      -29.193  68.701  16.849  0.00  0.00    +0.157 HD
ATOM     14  C   LIG    1      -28.000  69.370  18.484  0.00  0.00    +0.251 C 
ATOM     15  O   LIG    1      -27.746  69.236  19.665  0.00  0.00    -0.270 OA
BRANCH  14  16
ATOM     16  C   LIG    1      -27.260  70.392  17.701  0.00  0.00    +0.056 A 
ATOM     17  C   LIG    1      -27.809  71.190  16.710  0.00  0.00    +0.054 A 
ATOM     18 CL   LIG    1      -29.490  71.196  16.329  0.00  0.00    -0.083 Cl
ATOM     19  C   LIG    1      -26.978  72.047  15.989  0.00  0.00    +0.041 A 
ATOM     20  C   LIG    1      -25.596  72.118  16.249  0.00  0.00    +0.052 A 
ATOM     21 CL   LIG    1      -24.704  73.131  15.162  0.00  0.00    -0.083 Cl
ATOM     22  C   LIG    1      -25.007  71.370  17.289  0.00  0.00    +0.022 A 
ATOM     23  C   LIG    1      -25.887  70.530  18.012  0.00  0.00    +0.026 A 
BRANCH  22  24
ATOM     24  C   LIG    1      -23.562  71.417  17.658  0.00  0.00    +0.107 A 
ATOM     25  C   LIG    1      -22.573  70.644  17.036  0.00  0.00    +0.149 A 
ATOM     26  F   LIG    1      -22.856  69.829  16.008  0.00  0.00    -0.203 F 
ATOM     27  C   LIG    1      -21.253  70.709  17.471  0.00  0.00    +0.042 A 
ATOM     28  C   LIG    1      -20.924  71.572  18.504  0.00  0.00    +0.023 A 
ATOM     29  C   LIG    1      -21.941  72.320  19.070  0.00  0.00    +0.111 A 
ATOM     30  N   LIG    1      -23.238  72.238  18.689  0.00  0.00    -0.252 NA
ENDBRANCH  22  24
ENDBRANCH  14  16
ENDBRANCH   4  12
BRANCH   1  32
ATOM     31  N   LIG    1      -33.091  66.486  20.784  0.00  0.00    -0.239 NA
ATOM     32  C   LIG    1      -32.477  65.743  19.935  0.00  0.00    +0.236 C 
BRANCH  32  33
ATOM     33  O   LIG    1      -32.937  64.558  19.484  0.00  0.00    -0.491 OA
ATOM     34  H   LIG    1      -33.864  64.444  19.765  0.00  0.00    +0.294 HD
ENDBRANCH  32  33
BRANCH  31  35
ATOM     35  C   LIG    1      -34.354  65.969  21.322  0.00  0.00    +0.243 C 
BRANCH  35  40
ATOM     36  C   LIG    1      -38.122  68.945  21.887  0.00  0.00    +0.111 C 
ATOM     37  C   LIG    1      -36.811  68.356  22.199  0.00  0.00    +0.214 A 
ATOM     38  N   LIG    1      -35.951  68.667  23.145  0.00  0.00    -0.113 NA
ATOM     39  N   LIG    1      -34.875  67.820  22.984  0.00  0.00    -0.110 NA
ATOM     40  C   LIG    1      -35.157  67.050  21.952  0.00  0.00    +0.238 A 
ATOM     41  O   LIG    1      -36.382  67.330  21.402  0.00  0.00    -0.423 OA
ENDBRANCH  35  40
ENDBRANCH  31  35
ENDBRANCH   1  32
TORSDOF 8
ENDMDL
MODEL 4
REMARK VINA RESULT:      -6.7      4.669     10.366
REMARK  Name = pdb/CHEMBL3978831.pdb
REMARK                            x       y       z     vdW  Elec       q    Type
REMARK                         _______ _______ _______ _____ _____    ______ ____
ROOT
ATOM      1  C   LIG    1      -38.558  71.743  24.429  0.00  0.00    +0.149 A 
ATOM      2  N   LIG    1      -39.649  72.446  24.090  0.00  0.00    -0.160 NA
ATOM      3  N   LIG    1      -39.323  73.753  24.353  0.00  0.00    -0.218 N 
ATOM      4  C   LIG    1      -38.063  73.854  24.966  0.00  0.00    +0.129 A 
ATOM      5  C   LIG    1      -37.564  72.574  24.972  0.00  0.00    +0.078 A 
ENDROOT
BRANCH   3   6
ATOM      6  C   LIG    1      -40.257  74.777  24.014  0.00  0.00    +0.067 A 
ATOM      7  C   LIG    1      -41.535  74.407  23.558  0.00  0.00    +0.028 A 
ATOM      8  C   LIG    1      -42.472  75.379  23.194  0.00  0.00    +0.002 A 
ATOM      9  C   LIG    1      -42.132  76.727  23.253  0.00  0.00    +0.000 A 
ATOM     10  C   LIG    1      -40.859  77.104  23.683  0.00  0.00    +0.002 A 
ATOM     11  C   LIG    1      -39.921  76.136  24.070  0.00  0.00    +0.028 A 
ENDBRANCH   3   6
BRANCH   4  12
ATOM     12  N   LIG    1      -37.433  74.980  25.529  0.00  0.00    -0.266 N 
ATOM     13  H   LIG    1      -36.845  75.549  24.933  0.00  0.00    +0.157 HD
ATOM     14  C   LIG    1      -37.666  75.403  26.895  0.00  0.00    +0.251 C 
ATOM     15  O   LIG    1      -38.442  74.812  27.619  0.00  0.00    -0.270 OA
BRANCH  14  16
ATOM     16  C   LIG    1      -36.880  76.532  27.453  0.00  0.00    +0.056 A 
ATOM     17  C   LIG    1      -37.222  77.871  27.350  0.00  0.00    +0.054 A 
ATOM     18 CL   LIG    1      -38.703  78.414  26.654  0.00  0.00    -0.083 Cl
ATOM     19  C   LIG    1      -36.345  78.838  27.842  0.00  0.00    +0.041 A 
ATOM     20  C   LIG    1      -35.122  78.479  28.443  0.00  0.00    +0.052 A 
ATOM     21 CL   LIG    1      -34.103  79.815  28.865  0.00  0.00    -0.083 Cl
ATOM     22  C   LIG    1      -34.764  77.127  28.624  0.00  0.00    +0.022 A 
ATOM     23  C   LIG    1      -35.690  76.178  28.131  0.00  0.00    +0.026 A 
BRANCH  22  24
ATOM     24  C   LIG    1      -33.511  76.661  29.285  0.00  0.00    +0.107 A 
ATOM     25  C   LIG    1      -32.265  76.609  28.647  0.00  0.00    +0.149 A 
ATOM     26  F   LIG    1      -32.100  77.033  27.384  0.00  0.00    -0.203 F 
ATOM     27  C   LIG    1      -31.150  76.115  29.318  0.00  0.00    +0.042 A 
ATOM     28  C   LIG    1      -31.282  75.708  30.636  0.00  0.00    +0.023 A 
ATOM     29  C   LIG    1      -32.533  75.796  31.218  0.00  0.00    +0.111 A 
ATOM     30  N   LIG    1      -33.638  76.233  30.567  0.00  0.00    -0.252 NA
ENDBRANCH  22  24
ENDBRANCH  14  16
ENDBRANCH   4  12
BRANCH   1  32
ATOM     31  N   LIG    1      -38.266  69.795  23.105  0.00  0.00    -0.239 NA
ATOM     32  C   LIG    1      -38.471  70.295  24.270  0.00  0.00    +0.236 C 
BRANCH  32  33
ATOM     33  O   LIG    1      -38.605  69.570  25.400  0.00  0.00    -0.491 OA
ATOM     34  H   LIG    1      -38.413  70.136  26.171  0.00  0.00    +0.294 HD
ENDBRANCH  32  33
BRANCH  31  35
ATOM     35  C   LIG    1      -38.224  68.332  23.012  0.00  0.00    +0.243 C 
BRANCH  35  40
ATOM     36  C   LIG    1      -34.736  65.088  22.185  0.00  0.00    +0.111 C 
ATOM     37  C   LIG    1      -35.303  66.415  22.471  0.00  0.00    +0.214 A 
ATOM     38  N   LIG    1      -34.695  67.562  22.682  0.00  0.00    -0.113 NA
ATOM     39  N   LIG    1      -35.689  68.489  22.920  0.00  0.00    -0.110 NA
ATOM     40  C   LIG    1      -36.832  67.840  22.833  0.00  0.00    +0.238 A 
ATOM     41  O   LIG    1      -36.666  66.509  22.543  0.00  0.00    -0.423 OA
ENDBRANCH  35  40
ENDBRANCH  31  35
ENDBRANCH   1  32
TORSDOF 8
ENDMDL
MODEL 5
REMARK VINA RESULT:      -6.6      5.436     10.429
REMARK  Name = pdb/CHEMBL3978831.pdb
REMARK                            x       y       z     vdW  Elec       q    Type
REMARK                         _______ _______ _______ _____ _____    ______ ____
ROOT
ATOM      1  C   LIG    1      -37.674  70.178  24.174  0.00  0.00    +0.149 A 
ATOM      2  N   LIG    1      -38.949  70.504  23.914  0.00  0.00    -0.160 NA
ATOM      3  N   LIG    1      -39.014  71.860  24.114  0.00  0.00    -0.218 N 
ATOM      4  C   LIG    1      -37.801  72.365  24.610  0.00  0.00    +0.129 A 
ATOM      5  C   LIG    1      -36.939  71.295  24.606  0.00  0.00    +0.078 A 
ENDROOT
BRANCH   3   6
ATOM      6  C   LIG    1      -40.237  72.539  23.831  0.00  0.00    +0.067 A 
ATOM      7  C   LIG    1      -41.368  71.782  23.477  0.00  0.00    +0.028 A 
ATOM      8  C   LIG    1      -42.580  72.409  23.170  0.00  0.00    +0.002 A 
ATOM      9  C   LIG    1      -42.665  73.798  23.187  0.00  0.00    +0.000 A 
ATOM     10  C   LIG    1      -41.544  74.559  23.516  0.00  0.00    +0.002 A 
ATOM     11  C   LIG    1      -40.331  73.937  23.845  0.00  0.00    +0.028 A 
ENDBRANCH   3   6
BRANCH   4  12
ATOM     12  N   LIG    1      -37.500  73.655  25.086  0.00  0.00    -0.266 N 
ATOM     13  H   LIG    1      -37.062  74.310  24.451  0.00  0.00    +0.157 HD
ATOM     14  C   LIG    1      -37.874  74.106  26.411  0.00  0.00    +0.251 C 
ATOM     15  O   LIG    1      -38.493  73.389  27.174  0.00  0.00    -0.270 OA
BRANCH  14  16
ATOM     16  C   LIG    1      -37.424  75.438  26.884  0.00  0.00    +0.056 A 
ATOM     17  C   LIG    1      -38.155  76.612  26.781  0.00  0.00    +0.054 A 
ATOM     18 CL   LIG    1      -39.775  76.662  26.193  0.00  0.00    -0.083 Cl
ATOM     19  C   LIG    1      -37.574  77.814  27.184  0.00  0.00    +0.041 A 
ATOM     20  C   LIG    1      -36.262  77.858  27.693  0.00  0.00    +0.052 A 
ATOM     21 CL   LIG    1      -35.659  79.452  28.008  0.00  0.00    -0.083 Cl
ATOM     22  C   LIG    1      -35.505  76.681  27.872  0.00  0.00    +0.022 A 
ATOM     23  C   LIG    1      -36.139  75.481  27.473  0.00  0.00    +0.026 A 
BRANCH  22  24
ATOM     24  C   LIG    1      -34.127  76.635  28.443  0.00  0.00    +0.107 A 
ATOM     25  C   LIG    1      -32.978  77.009  27.735  0.00  0.00    +0.149 A 
ATOM     26  F   LIG    1      -33.044  77.494  26.485  0.00  0.00    -0.203 F 
ATOM     27  C   LIG    1      -31.721  76.890  28.321  0.00  0.00    +0.042 A 
ATOM     28  C   LIG    1      -31.625  76.430  29.625  0.00  0.00    +0.023 A 
ATOM     29  C   LIG    1      -32.796  76.090  30.278  0.00  0.00    +0.111 A 
ATOM     30  N   LIG    1      -34.023  76.157  29.709  0.00  0.00    -0.252 NA
ENDBRANCH  22  24
ENDBRANCH  14  16
ENDBRANCH   4  12
BRANCH   1  32
ATOM     31  N   LIG    1      -35.969  68.623  23.618  0.00  0.00    -0.239 NA
ATOM     32  C   LIG    1      -37.165  68.817  24.046  0.00  0.00    +0.236 C 
BRANCH  32  33
ATOM     33  O   LIG    1      -38.014  67.834  24.411  0.00  0.00    -0.491 OA
ATOM     34  H   LIG    1      -38.883  68.222  24.626  0.00  0.00    +0.294 HD
ENDBRANCH  32  33
BRANCH  31  35
ATOM     35  C   LIG    1      -35.535  67.229  23.480  0.00  0.00    +0.243 C 
BRANCH  35  40
ATOM     36  C   LIG    1      -32.402  66.403  19.892  0.00  0.00    +0.111 C 
ATOM     37  C   LIG    1      -33.723  66.570  20.516  0.00  0.00    +0.214 A 
ATOM     38  N   LIG    1      -34.922  66.528  19.975  0.00  0.00    -0.113 NA
ATOM     39  N   LIG    1      -35.816  66.765  20.997  0.00  0.00    -0.110 NA
ATOM     40  C   LIG    1      -35.099  66.932  22.090  0.00  0.00    +0.238 A 
ATOM     41  O   LIG    1      -33.751  66.815  21.862  0.00  0.00    -0.423 OA
ENDBRANCH  35  40
ENDBRANCH  31  35
ENDBRANCH   1  32
TORSDOF 8
ENDMDL
MODEL 6
REMARK VINA RESULT:      -6.6      7.246     14.411
REMARK  Name = pdb/CHEMBL3978831.pdb
REMARK                            x       y       z     vdW  Elec       q    Type
REMARK                         _______ _______ _______ _____ _____    ______ ____
ROOT
ATOM      1  C   LIG    1      -26.659  75.852  31.990  0.00  0.00    +0.149 A 
ATOM      2  N   LIG    1      -25.571  75.594  31.250  0.00  0.00    -0.160 NA
ATOM      3  N   LIG    1      -24.615  76.463  31.713  0.00  0.00    -0.218 N 
ATOM      4  C   LIG    1      -25.144  77.345  32.671  0.00  0.00    +0.129 A 
ATOM      5  C   LIG    1      -26.435  76.922  32.872  0.00  0.00    +0.078 A 
ENDROOT
BRANCH   3   6
ATOM      6  C   LIG    1      -23.294  76.381  31.180  0.00  0.00    +0.067 A 
ATOM      7  C   LIG    1      -22.264  75.873  31.993  0.00  0.00    +0.028 A 
ATOM      8  C   LIG    1      -20.952  75.797  31.517  0.00  0.00    +0.002 A 
ATOM      9  C   LIG    1      -20.650  76.254  30.238  0.00  0.00    +0.000 A 
ATOM     10  C   LIG    1      -21.660  76.779  29.432  0.00  0.00    +0.002 A 
ATOM     11  C   LIG    1      -22.982  76.840  29.894  0.00  0.00    +0.028 A 
ENDBRANCH   3   6
BRANCH   4  12
ATOM     12  N   LIG    1      -24.549  78.471  33.271  0.00  0.00    -0.266 N 
ATOM     13  H   LIG    1      -24.771  79.385  32.898  0.00  0.00    +0.157 HD
ATOM     14  C   LIG    1      -23.710  78.377  34.448  0.00  0.00    +0.251 C 
ATOM     15  O   LIG    1      -23.498  77.311  34.993  0.00  0.00    -0.270 OA
BRANCH  14  16
ATOM     16  C   LIG    1      -23.026  79.592  34.956  0.00  0.00    +0.056 A 
ATOM     17  C   LIG    1      -21.681  79.880  34.789  0.00  0.00    +0.054 A 
ATOM     18 CL   LIG    1      -20.622  78.908  33.836  0.00  0.00    -0.083 Cl
ATOM     19  C   LIG    1      -21.147  81.015  35.398  0.00  0.00    +0.041 A 
ATOM     20  C   LIG    1      -21.946  81.874  36.177  0.00  0.00    +0.052 A 
ATOM     21 CL   LIG    1      -21.083  83.150  36.969  0.00  0.00    -0.083 Cl
ATOM     22  C   LIG    1      -23.331  81.651  36.323  0.00  0.00    +0.022 A 
ATOM     23  C   LIG    1      -23.839  80.503  35.671  0.00  0.00    +0.026 A 
BRANCH  22  24
ATOM     24  C   LIG    1      -24.257  82.531  37.094  0.00  0.00    +0.107 A 
ATOM     25  C   LIG    1      -24.159  82.745  38.475  0.00  0.00    +0.149 A 
ATOM     26  F   LIG    1      -23.174  82.200  39.207  0.00  0.00    -0.203 F 
ATOM     27  C   LIG    1      -25.092  83.542  39.132  0.00  0.00    +0.042 A 
ATOM     28  C   LIG    1      -26.097  84.150  38.396  0.00  0.00    +0.023 A 
ATOM     29  C   LIG    1      -26.133  83.914  37.034  0.00  0.00    +0.111 A 
ATOM     30  N   LIG    1      -25.261  83.106  36.385  0.00  0.00    -0.252 NA
ENDBRANCH  22  24
ENDBRANCH  14  16
ENDBRANCH   4  12
BRANCH   1  32
ATOM     31  N   LIG    1      -28.978  75.738  31.498  0.00  0.00    -0.239 NA
ATOM     32  C   LIG    1      -27.909  75.113  31.840  0.00  0.00    +0.236 C 
BRANCH  32  33
ATOM     33  O   LIG    1      -27.840  73.786  32.070  0.00  0.00    -0.491 OA
ATOM     34  H   LIG    1      -28.135  73.600  32.981  0.00  0.00    +0.294 HD
ENDBRANCH  32  33
BRANCH  31  35
ATOM     35  C   LIG    1      -30.206  74.941  31.401  0.00  0.00    +0.243 C 
BRANCH  35  40
ATOM     36  C   LIG    1      -33.890  74.777  28.275  0.00  0.00    +0.111 C 
ATOM     37  C   LIG    1      -32.679  75.327  28.904  0.00  0.00    +0.214 A 
ATOM     38  N   LIG    1      -31.987  76.403  28.600  0.00  0.00    -0.113 NA
ATOM     39  N   LIG    1      -30.934  76.450  29.490  0.00  0.00    -0.110 NA
ATOM     40  C   LIG    1      -31.062  75.400  30.275  0.00  0.00    +0.238 A 
ATOM     41  O   LIG    1      -32.159  74.637  29.965  0.00  0.00    -0.423 OA
ENDBRANCH  35  40
ENDBRANCH  31  35
ENDBRANCH   1  32
TORSDOF 8
ENDMDL
MODEL 7
REMARK VINA RESULT:      -6.5     16.796     19.254
REMARK  Name = pdb/CHEMBL3978831.pdb
REMARK                            x       y       z     vdW  Elec       q    Type
REMARK                         _______ _______ _______ _____ _____    ______ ____
ROOT
ATOM      1  C   LIG    1      -21.994  81.714  15.692  0.00  0.00    +0.149 A 
ATOM      2  N   LIG    1      -20.767  81.177  15.750  0.00  0.00    -0.160 NA
ATOM      3  N   LIG    1      -20.962  79.831  15.563  0.00  0.00    -0.218 N 
ATOM      4  C   LIG    1      -22.330  79.514  15.501  0.00  0.00    +0.129 A 
ATOM      5  C   LIG    1      -22.979  80.724  15.542  0.00  0.00    +0.078 A 
ENDROOT
BRANCH   3   6
ATOM      6  C   LIG    1      -19.823  78.975  15.484  0.00  0.00    +0.067 A 
ATOM      7  C   LIG    1      -19.138  78.645  16.667  0.00  0.00    +0.028 A 
ATOM      8  C   LIG    1      -18.004  77.828  16.630  0.00  0.00    +0.002 A 
ATOM      9  C   LIG    1      -17.528  77.356  15.411  0.00  0.00    +0.000 A 
ATOM     10  C   LIG    1      -18.188  77.695  14.229  0.00  0.00    +0.002 A 
ATOM     11  C   LIG    1      -19.337  78.497  14.259  0.00  0.00    +0.028 A 
ENDBRANCH   3   6
BRANCH   4  12
ATOM     12  N   LIG    1      -22.952  78.252  15.474  0.00  0.00    -0.266 N 
ATOM     13  H   LIG    1      -23.414  77.927  16.314  0.00  0.00    +0.157 HD
ATOM     14  C   LIG    1      -23.035  77.447  14.272  0.00  0.00    +0.251 C 
ATOM     15  O   LIG    1      -22.585  77.840  13.214  0.00  0.00    -0.270 OA
BRANCH  14  16
ATOM     16  C   LIG    1      -23.605  76.079  14.347  0.00  0.00    +0.056 A 
ATOM     17  C   LIG    1      -24.723  75.641  13.654  0.00  0.00    +0.054 A 
ATOM     18 CL   LIG    1      -25.546  76.608  12.488  0.00  0.00    -0.083 Cl
ATOM     19  C   LIG    1      -25.207  74.354  13.887  0.00  0.00    +0.041 A 
ATOM     20  C   LIG    1      -24.582  73.492  14.809  0.00  0.00    +0.052 A 
ATOM     21 CL   LIG    1      -25.405  71.990  15.070  0.00  0.00    -0.083 Cl
ATOM     22  C   LIG    1      -23.408  73.875  15.490  0.00  0.00    +0.022 A 
ATOM     23  C   LIG    1      -22.936  75.179  15.209  0.00  0.00    +0.026 A 
BRANCH  22  24
ATOM     24  C   LIG    1      -22.661  73.011  16.449  0.00  0.00    +0.107 A 
ATOM     25  C   LIG    1      -22.605  73.246  17.829  0.00  0.00    +0.149 A 
ATOM     26  F   LIG    1      -23.276  74.257  18.401  0.00  0.00    -0.203 F 
ATOM     27  C   LIG    1      -21.845  72.421  18.653  0.00  0.00    +0.042 A 
ATOM     28  C   LIG    1      -21.173  71.344  18.096  0.00  0.00    +0.023 A 
ATOM     29  C   LIG    1      -21.278  71.155  16.730  0.00  0.00    +0.111 A 
ATOM     30  N   LIG    1      -21.976  71.972  15.907  0.00  0.00    -0.252 NA
ENDBRANCH  22  24
ENDBRANCH  14  16
ENDBRANCH   4  12
BRANCH   1  32
ATOM     31  N   LIG    1      -22.368  83.860  14.748  0.00  0.00    -0.239 NA
ATOM     32  C   LIG    1      -22.234  83.149  15.810  0.00  0.00    +0.236 C 
BRANCH  32  33
ATOM     33  O   LIG    1      -22.311  83.631  17.068  0.00  0.00    -0.491 OA
ATOM     34  H   LIG    1      -22.474  84.593  17.034  0.00  0.00    +0.294 HD
ENDBRANCH  32  33
BRANCH  31  35
ATOM     35  C   LIG    1      -22.572  85.300  14.940  0.00  0.00    +0.243 C 
BRANCH  35  40
ATOM     36  C   LIG    1      -18.242  86.106  12.946  0.00  0.00    +0.111 C 
ATOM     37  C   LIG    1      -19.443  86.422  13.734  0.00  0.00    +0.214 A 
ATOM     38  N   LIG    1      -19.744  87.509  14.410  0.00  0.00    -0.113 NA
ATOM     39  N   LIG    1      -20.979  87.280  14.981  0.00  0.00    -0.110 NA
ATOM     40  C   LIG    1      -21.343  86.070  14.610  0.00  0.00    +0.238 A 
ATOM     41  O   LIG    1      -20.414  85.461  13.805  0.00  0.00    -0.423 OA
ENDBRANCH  35  40
ENDBRANCH  31  35
ENDBRANCH   1  32
TORSDOF 8
ENDMDL
MODEL 8
REMARK VINA RESULT:      -6.5     16.922     19.746
REMARK  Name = pdb/CHEMBL3978831.pdb
REMARK                            x       y       z     vdW  Elec       q    Type
REMARK                         _______ _______ _______ _____ _____    ______ ____
ROOT
ATOM      1  C   LIG    1      -30.097  77.643  11.362  0.00  0.00    +0.149 A 
ATOM      2  N   LIG    1      -29.776  76.357  11.157  0.00  0.00    -0.160 NA
ATOM      3  N   LIG    1      -28.509  76.224  11.667  0.00  0.00    -0.218 N 
ATOM      4  C   LIG    1      -27.992  77.460  12.088  0.00  0.00    +0.129 A 
ATOM      5  C   LIG    1      -29.025  78.352  11.930  0.00  0.00    +0.078 A 
ENDROOT
BRANCH   3   6
ATOM      6  C   LIG    1      -27.905  74.931  11.680  0.00  0.00    +0.067 A 
ATOM      7  C   LIG    1      -27.309  74.447  10.501  0.00  0.00    +0.028 A 
ATOM      8  C   LIG    1      -26.727  73.177  10.466  0.00  0.00    +0.002 A 
ATOM      9  C   LIG    1      -26.759  72.366  11.596  0.00  0.00    +0.000 A 
ATOM     10  C   LIG    1      -27.367  72.828  12.764  0.00  0.00    +0.002 A 
ATOM     11  C   LIG    1      -27.935  74.109  12.814  0.00  0.00    +0.028 A 
ENDBRANCH   3   6
BRANCH   4  12
ATOM     12  N   LIG    1      -26.691  77.783  12.520  0.00  0.00    -0.266 N 
ATOM     13  H   LIG    1      -26.090  78.296  11.887  0.00  0.00    +0.157 HD
ATOM     14  C   LIG    1      -26.217  77.491  13.857  0.00  0.00    +0.251 C 
ATOM     15  O   LIG    1      -26.937  76.968  14.685  0.00  0.00    -0.270 OA
BRANCH  14  16
ATOM     16  C   LIG    1      -24.799  77.757  14.203  0.00  0.00    +0.056 A 
ATOM     17  C   LIG    1      -23.813  76.791  14.333  0.00  0.00    +0.054 A 
ATOM     18 CL   LIG    1      -24.077  75.125  13.979  0.00  0.00    -0.083 Cl
ATOM     19  C   LIG    1      -22.539  77.171  14.753  0.00  0.00    +0.041 A 
ATOM     20  C   LIG    1      -22.234  78.514  15.045  0.00  0.00    +0.052 A 
ATOM     21 CL   LIG    1      -20.645  78.775  15.687  0.00  0.00    -0.083 Cl
ATOM     22  C   LIG    1      -23.188  79.537  14.867  0.00  0.00    +0.022 A 
ATOM     23  C   LIG    1      -24.461  79.114  14.418  0.00  0.00    +0.026 A 
BRANCH  22  24
ATOM     24  C   LIG    1      -22.936  80.987  15.112  0.00  0.00    +0.107 A 
ATOM     25  C   LIG    1      -22.659  81.527  16.375  0.00  0.00    +0.149 A 
ATOM     26  F   LIG    1      -22.548  80.753  17.465  0.00  0.00    -0.203 F 
ATOM     27  C   LIG    1      -22.484  82.899  16.530  0.00  0.00    +0.042 A 
ATOM     28  C   LIG    1      -22.553  83.719  15.414  0.00  0.00    +0.023 A 
ATOM     29  C   LIG    1      -22.815  83.126  14.192  0.00  0.00    +0.111 A 
ATOM     30  N   LIG    1      -23.032  81.799  14.029  0.00  0.00    -0.252 NA
ENDBRANCH  22  24
ENDBRANCH  14  16
ENDBRANCH   4  12
BRANCH   1  32
ATOM     31  N   LIG    1      -31.499  79.463  10.767  0.00  0.00    -0.239 NA
ATOM     32  C   LIG    1      -31.393  78.203  10.994  0.00  0.00    +0.236 C 
BRANCH  32  33
ATOM     33  O   LIG    1      -32.411  77.322  10.905  0.00  0.00    -0.491 OA
ATOM     34  H   LIG    1      -32.289  76.767  10.112  0.00  0.00    +0.294 HD
ENDBRANCH  32  33
BRANCH  31  35
ATOM     35  C   LIG    1      -32.838  79.963  10.436  0.00  0.00    +0.243 C 
BRANCH  35  40
ATOM     36  C   LIG    1      -35.199  84.058  11.450  0.00  0.00    +0.111 C 
ATOM     37  C   LIG    1      -34.028  83.190  11.257  0.00  0.00    +0.214 A 
ATOM     38  N   LIG    1      -32.746  83.474  11.340  0.00  0.00    -0.113 NA
ATOM     39  N   LIG    1      -32.071  82.307  11.050  0.00  0.00    -0.110 NA
ATOM     40  C   LIG    1      -32.990  81.394  10.812  0.00  0.00    +0.238 A 
ATOM     41  O   LIG    1      -34.266  81.883  10.931  0.00  0.00    -0.423 OA
ENDBRANCH  35  40
ENDBRANCH  31  35
ENDBRANCH   1  32
TORSDOF 8
ENDMDL
MODEL 9
REMARK VINA RESULT:      -6.5     15.339     17.736
REMARK  Name = pdb/CHEMBL3978831.pdb
REMARK                            x       y       z     vdW  Elec       q    Type
REMARK                         _______ _______ _______ _____ _____    ______ ____
ROOT
ATOM      1  C   LIG    1      -28.699  77.915  11.986  0.00  0.00    +0.149 A 
ATOM      2  N   LIG    1      -27.681  78.619  12.503  0.00  0.00    -0.160 NA
ATOM      3  N   LIG    1      -27.044  77.747  13.351  0.00  0.00    -0.218 N 
ATOM      4  C   LIG    1      -27.736  76.529  13.449  0.00  0.00    +0.129 A 
ATOM      5  C   LIG    1      -28.766  76.628  12.545  0.00  0.00    +0.078 A 
ENDROOT
BRANCH   3   6
ATOM      6  C   LIG    1      -25.848  78.172  14.003  0.00  0.00    +0.067 A 
ATOM      7  C   LIG    1      -24.638  77.528  13.687  0.00  0.00    +0.028 A 
ATOM      8  C   LIG    1      -23.447  77.898  14.320  0.00  0.00    +0.002 A 
ATOM      9  C   LIG    1      -23.458  78.893  15.292  0.00  0.00    +0.000 A 
ATOM     10  C   LIG    1      -24.656  79.523  15.628  0.00  0.00    +0.002 A 
ATOM     11  C   LIG    1      -25.851  79.172  14.984  0.00  0.00    +0.028 A 
ENDBRANCH   3   6
BRANCH   4  12
ATOM     12  N   LIG    1      -27.510  75.442  14.315  0.00  0.00    -0.266 N 
ATOM     13  H   LIG    1      -27.999  75.426  15.202  0.00  0.00    +0.157 HD
ATOM     14  C   LIG    1      -26.682  74.311  13.950  0.00  0.00    +0.251 C 
ATOM     15  O   LIG    1      -26.156  74.237  12.856  0.00  0.00    -0.270 OA
BRANCH  14  16
ATOM     16  C   LIG    1      -26.398  73.259  14.956  0.00  0.00    +0.056 A 
ATOM     17  C   LIG    1      -25.135  72.898  15.400  0.00  0.00    +0.054 A 
ATOM     18 CL   LIG    1      -23.699  73.728  14.928  0.00  0.00    -0.083 Cl
ATOM     19  C   LIG    1      -25.004  71.827  16.283  0.00  0.00    +0.041 A 
ATOM     20  C   LIG    1      -26.127  71.107  16.733  0.00  0.00    +0.052 A 
ATOM     21 CL   LIG    1      -25.759  69.724  17.711  0.00  0.00    -0.083 Cl
ATOM     22  C   LIG    1      -27.434  71.478  16.356  0.00  0.00    +0.022 A 
ATOM     23  C   LIG    1      -27.526  72.584  15.477  0.00  0.00    +0.026 A 
BRANCH  22  24
ATOM     24  C   LIG    1      -28.679  70.798  16.818  0.00  0.00    +0.107 A 
ATOM     25  C   LIG    1      -29.503  71.291  17.839  0.00  0.00    +0.149 A 
ATOM     26  F   LIG    1      -29.251  72.460  18.448  0.00  0.00    -0.203 F 
ATOM     27  C   LIG    1      -30.622  70.572  18.248  0.00  0.00    +0.042 A 
ATOM     28  C   LIG    1      -30.930  69.381  17.609  0.00  0.00    +0.023 A 
ATOM     29  C   LIG    1      -30.088  68.953  16.599  0.00  0.00    +0.111 A 
ATOM     30  N   LIG    1      -28.970  69.616  16.218  0.00  0.00    -0.252 NA
ENDBRANCH  22  24
ENDBRANCH  14  16
ENDBRANCH   4  12
BRANCH   1  32
ATOM     31  N   LIG    1      -30.775  78.886  11.369  0.00  0.00    -0.239 NA
ATOM     32  C   LIG    1      -29.619  78.467  10.997  0.00  0.00    +0.236 C 
BRANCH  32  33
ATOM     33  O   LIG    1      -29.164  78.507   9.727  0.00  0.00    -0.491 OA
ATOM     34  H   LIG    1      -28.192  78.585   9.736  0.00  0.00    +0.294 HD
ENDBRANCH  32  33
BRANCH  31  35
ATOM     35  C   LIG    1      -31.662  79.396  10.319  0.00  0.00    +0.243 C 
BRANCH  35  40
ATOM     36  C   LIG    1      -34.593  83.095  11.364  0.00  0.00    +0.111 C 
ATOM     37  C   LIG    1      -33.323  82.436  11.024  0.00  0.00    +0.214 A 
ATOM     38  N   LIG    1      -32.135  82.958  10.809  0.00  0.00    -0.113 NA
ATOM     39  N   LIG    1      -31.298  81.904  10.509  0.00  0.00    -0.110 NA
ATOM     40  C   LIG    1      -32.036  80.814  10.565  0.00  0.00    +0.238 A 
ATOM     41  O   LIG    1      -33.342  81.075  10.895  0.00  0.00    -0.423 OA
ENDBRANCH  35  40
ENDBRANCH  31  35
ENDBRANCH   1  32
TORSDOF 8
ENDMDL
