MODEL 1
REMARK VINA RESULT:      -6.6      0.000      0.000
REMARK  Name = pdb/CHEMBL3952298.pdb
REMARK                            x       y       z     vdW  Elec       q    Type
REMARK                         _______ _______ _______ _____ _____    ______ ____
ROOT
ATOM      1  C   LIG    1      -31.342  87.119  30.746  0.00  0.00    +0.149 A 
ATOM      2  N   LIG    1      -32.465  87.856  30.652  0.00  0.00    -0.160 NA
ATOM      3  N   LIG    1      -33.339  87.071  29.946  0.00  0.00    -0.218 N 
ATOM      4  C   LIG    1      -32.803  85.793  29.706  0.00  0.00    +0.129 A 
ATOM      5  C   LIG    1      -31.506  85.851  30.152  0.00  0.00    +0.078 A 
ENDROOT
BRANCH   3   6
ATOM      6  C   LIG    1      -34.602  87.597  29.533  0.00  0.00    +0.067 A 
ATOM      7  C   LIG    1      -35.776  87.259  30.230  0.00  0.00    +0.028 A 
ATOM      8  C   LIG    1      -37.020  87.735  29.792  0.00  0.00    +0.002 A 
ATOM      9  C   LIG    1      -37.097  88.587  28.693  0.00  0.00    +0.000 A 
ATOM     10  C   LIG    1      -35.931  88.975  28.037  0.00  0.00    +0.002 A 
ATOM     11  C   LIG    1      -34.688  88.481  28.449  0.00  0.00    +0.028 A 
ENDBRANCH   3   6
BRANCH   4  12
ATOM     12  N   LIG    1      -33.452  84.633  29.239  0.00  0.00    -0.266 N 
ATOM     13  H   LIG    1      -33.526  84.507  28.237  0.00  0.00    +0.157 HD
ATOM     14  C   LIG    1      -34.087  83.681  30.133  0.00  0.00    +0.251 C 
ATOM     15  O   LIG    1      -33.949  83.767  31.331  0.00  0.00    -0.270 OA
BRANCH  14  16
ATOM     16  C   LIG    1      -34.863  82.547  29.551  0.00  0.00    +0.056 A 
ATOM     17  C   LIG    1      -36.249  82.460  29.594  0.00  0.00    +0.054 A 
ATOM     18 CL   LIG    1      -37.270  83.755  30.101  0.00  0.00    -0.083 Cl
ATOM     19  C   LIG    1      -36.879  81.275  29.209  0.00  0.00    +0.041 A 
ATOM     20  C   LIG    1      -36.147  80.191  28.700  0.00  0.00    +0.052 A 
ATOM     21 CL   LIG    1      -37.099  78.784  28.354  0.00  0.00    -0.083 Cl
ATOM     22  C   LIG    1      -34.750  80.265  28.536  0.00  0.00    +0.019 A 
ATOM     23  C   LIG    1      -34.129  81.455  29.018  0.00  0.00    +0.026 A 
BRANCH  22  24
ATOM     24  C   LIG    1      -33.910  79.198  27.918  0.00  0.00    +0.072 A 
ATOM     25  N   LIG    1      -33.206  79.570  26.817  0.00  0.00    -0.255 NA
ATOM     26  C   LIG    1      -32.426  78.637  26.211  0.00  0.00    +0.111 A 
ATOM     27  C   LIG    1      -32.309  77.326  26.636  0.00  0.00    +0.020 A 
ATOM     28  C   LIG    1      -33.043  76.943  27.744  0.00  0.00    +0.004 A 
ATOM     29  C   LIG    1      -33.862  77.879  28.376  0.00  0.00    +0.028 A 
ENDBRANCH  22  24
ENDBRANCH  14  16
ENDBRANCH   4  12
BRANCH   1  30
ATOM     30  C   LIG    1      -30.152  87.592  31.453  0.00  0.00    +0.236 C 
ATOM     31  N   LIG    1      -30.118  87.572  32.735  0.00  0.00    -0.244 NA
BRANCH  30  32
ATOM     32  O   LIG    1      -29.157  88.054  30.666  0.00  0.00    -0.491 OA
ATOM     33  H   LIG    1      -28.386  87.462  30.744  0.00  0.00    +0.294 HD
ENDBRANCH  30  32
BRANCH  31  34
ATOM     34  C   LIG    1      -28.930  88.110  33.393  0.00  0.00    +0.183 C 
BRANCH  34  35
ATOM     35  C   LIG    1      -28.365  87.072  34.299  0.00  0.00    +0.011 A 
ATOM     36  C   LIG    1      -28.877  85.835  34.637  0.00  0.00    +0.110 A 
ATOM     37  N   LIG    1      -27.970  85.258  35.478  0.00  0.00    -0.284 N 
ATOM     38  H   LIG    1      -28.011  84.345  35.917  0.00  0.00    +0.188 HD
ATOM     39  N   LIG    1      -26.900  86.032  35.720  0.00  0.00    -0.182 NA
ATOM     40  C   LIG    1      -27.141  87.132  35.004  0.00  0.00    +0.139 A 
ENDBRANCH  34  35
ENDBRANCH  31  34
ENDBRANCH   1  30
TORSDOF 8
ENDMDL
MODEL 2
REMARK VINA RESULT:      -6.6      6.791     11.020
REMARK  Name = pdb/CHEMBL3952298.pdb
REMARK                            x       y       z     vdW  Elec       q    Type
REMARK                         _______ _______ _______ _____ _____    ______ ____
ROOT
ATOM      1  C   LIG    1      -37.076  79.890  27.612  0.00  0.00    +0.149 A 
ATOM      2  N   LIG    1      -36.000  79.100  27.795  0.00  0.00    -0.160 NA
ATOM      3  N   LIG    1      -36.445  77.835  27.515  0.00  0.00    -0.218 N 
ATOM      4  C   LIG    1      -37.768  77.849  27.035  0.00  0.00    +0.129 A 
ATOM      5  C   LIG    1      -38.189  79.148  27.168  0.00  0.00    +0.078 A 
ENDROOT
BRANCH   3   6
ATOM      6  C   LIG    1      -35.595  76.709  27.742  0.00  0.00    +0.067 A 
ATOM      7  C   LIG    1      -34.251  76.735  27.326  0.00  0.00    +0.028 A 
ATOM      8  C   LIG    1      -33.434  75.611  27.503  0.00  0.00    +0.002 A 
ATOM      9  C   LIG    1      -33.932  74.475  28.140  0.00  0.00    +0.000 A 
ATOM     10  C   LIG    1      -35.243  74.466  28.610  0.00  0.00    +0.002 A 
ATOM     11  C   LIG    1      -36.076  75.574  28.409  0.00  0.00    +0.028 A 
ENDBRANCH   3   6
BRANCH   4  12
ATOM     12  N   LIG    1      -38.498  76.814  26.418  0.00  0.00    -0.266 N 
ATOM     13  H   LIG    1      -39.287  76.431  26.923  0.00  0.00    +0.157 HD
ATOM     14  C   LIG    1      -38.104  76.232  25.147  0.00  0.00    +0.251 C 
ATOM     15  O   LIG    1      -37.214  76.721  24.490  0.00  0.00    -0.270 OA
BRANCH  14  16
ATOM     16  C   LIG    1      -38.858  75.055  24.624  0.00  0.00    +0.056 A 
ATOM     17  C   LIG    1      -40.086  75.151  23.982  0.00  0.00    +0.054 A 
ATOM     18 CL   LIG    1      -40.787  76.647  23.483  0.00  0.00    -0.083 Cl
ATOM     19  C   LIG    1      -40.814  73.992  23.708  0.00  0.00    +0.041 A 
ATOM     20  C   LIG    1      -40.296  72.719  23.995  0.00  0.00    +0.052 A 
ATOM     21 CL   LIG    1      -41.382  71.411  23.656  0.00  0.00    -0.083 Cl
ATOM     22  C   LIG    1      -39.010  72.562  24.549  0.00  0.00    +0.019 A 
ATOM     23  C   LIG    1      -38.330  73.766  24.896  0.00  0.00    +0.026 A 
BRANCH  22  24
ATOM     24  C   LIG    1      -38.348  71.248  24.798  0.00  0.00    +0.072 A 
ATOM     25  N   LIG    1      -38.455  70.768  26.064  0.00  0.00    -0.255 NA
ATOM     26  C   LIG    1      -37.868  69.576  26.349  0.00  0.00    +0.111 A 
ATOM     27  C   LIG    1      -37.158  68.821  25.433  0.00  0.00    +0.020 A 
ATOM     28  C   LIG    1      -37.032  69.321  24.150  0.00  0.00    +0.004 A 
ATOM     29  C   LIG    1      -37.614  70.549  23.836  0.00  0.00    +0.028 A 
ENDBRANCH  22  24
ENDBRANCH  14  16
ENDBRANCH   4  12
BRANCH   1  30
ATOM     30  C   LIG    1      -37.021  81.339  27.794  0.00  0.00    +0.236 C 
ATOM     31  N   LIG    1      -36.210  82.043  27.092  0.00  0.00    -0.244 NA
BRANCH  30  32
ATOM     32  O   LIG    1      -37.846  81.836  28.741  0.00  0.00    -0.491 OA
ATOM     33  H   LIG    1      -37.411  81.769  29.611  0.00  0.00    +0.294 HD
ENDBRANCH  30  32
BRANCH  31  34
ATOM     34  C   LIG    1      -36.153  83.479  27.352  0.00  0.00    +0.183 C 
BRANCH  34  35
ATOM     35  C   LIG    1      -36.602  84.212  26.136  0.00  0.00    +0.011 A 
ATOM     36  C   LIG    1      -37.462  83.801  25.137  0.00  0.00    +0.110 A 
ATOM     37  N   LIG    1      -37.567  84.845  24.264  0.00  0.00    -0.284 N 
ATOM     38  H   LIG    1      -38.120  84.904  23.416  0.00  0.00    +0.188 HD
ATOM     39  N   LIG    1      -36.832  85.911  24.618  0.00  0.00    -0.182 NA
ATOM     40  C   LIG    1      -36.247  85.526  25.754  0.00  0.00    +0.139 A 
ENDBRANCH  34  35
ENDBRANCH  31  34
ENDBRANCH   1  30
TORSDOF 8
ENDMDL
MODEL 3
REMARK VINA RESULT:      -6.5      8.718     16.060
REMARK  Name = pdb/CHEMBL3952298.pdb
REMARK                            x       y       z     vdW  Elec       q    Type
REMARK                         _______ _______ _______ _____ _____    ______ ____
ROOT
ATOM      1  C   LIG    1      -36.352  69.085  25.300  0.00  0.00    +0.149 A 
ATOM      2  N   LIG    1      -37.312  70.003  25.080  0.00  0.00    -0.160 NA
ATOM      3  N   LIG    1      -36.854  71.140  25.693  0.00  0.00    -0.218 N 
ATOM      4  C   LIG    1      -35.549  70.966  26.191  0.00  0.00    +0.129 A 
ATOM      5  C   LIG    1      -35.262  69.636  26.004  0.00  0.00    +0.078 A 
ENDROOT
BRANCH   3   6
ATOM      6  C   LIG    1      -37.692  72.294  25.781  0.00  0.00    +0.067 A 
ATOM      7  C   LIG    1      -38.204  72.893  24.616  0.00  0.00    +0.028 A 
ATOM      8  C   LIG    1      -38.983  74.055  24.702  0.00  0.00    +0.002 A 
ATOM      9  C   LIG    1      -39.297  74.598  25.947  0.00  0.00    +0.000 A 
ATOM     10  C   LIG    1      -38.844  73.974  27.107  0.00  0.00    +0.002 A 
ATOM     11  C   LIG    1      -38.040  72.830  27.029  0.00  0.00    +0.028 A 
ENDBRANCH   3   6
BRANCH   4  12
ATOM     12  N   LIG    1      -34.643  71.936  26.662  0.00  0.00    -0.266 N 
ATOM     13  H   LIG    1      -34.031  72.373  25.985  0.00  0.00    +0.157 HD
ATOM     14  C   LIG    1      -34.501  72.252  28.072  0.00  0.00    +0.251 C 
ATOM     15  O   LIG    1      -35.270  71.801  28.889  0.00  0.00    -0.270 OA
BRANCH  14  16
ATOM     16  C   LIG    1      -33.429  73.200  28.498  0.00  0.00    +0.056 A 
ATOM     17  C   LIG    1      -32.332  72.826  29.263  0.00  0.00    +0.054 A 
ATOM     18 CL   LIG    1      -31.928  71.186  29.616  0.00  0.00    -0.083 Cl
ATOM     19  C   LIG    1      -31.488  73.808  29.786  0.00  0.00    +0.041 A 
ATOM     20  C   LIG    1      -31.677  75.167  29.489  0.00  0.00    +0.052 A 
ATOM     21 CL   LIG    1      -30.577  76.236  30.295  0.00  0.00    -0.083 Cl
ATOM     22  C   LIG    1      -32.712  75.590  28.631  0.00  0.00    +0.019 A 
ATOM     23  C   LIG    1      -33.606  74.573  28.184  0.00  0.00    +0.026 A 
BRANCH  22  24
ATOM     24  C   LIG    1      -32.926  77.000  28.190  0.00  0.00    +0.072 A 
ATOM     25  N   LIG    1      -32.242  77.376  27.078  0.00  0.00    -0.255 NA
ATOM     26  C   LIG    1      -32.397  78.650  26.632  0.00  0.00    +0.111 A 
ATOM     27  C   LIG    1      -33.198  79.596  27.244  0.00  0.00    +0.020 A 
ATOM     28  C   LIG    1      -33.877  79.218  28.389  0.00  0.00    +0.004 A 
ATOM     29  C   LIG    1      -33.725  77.919  28.874  0.00  0.00    +0.028 A 
ENDBRANCH  22  24
ENDBRANCH  14  16
ENDBRANCH   4  12
BRANCH   1  30
ATOM     30  C   LIG    1      -36.444  67.718  24.788  0.00  0.00    +0.236 C 
ATOM     31  N   LIG    1      -35.399  67.133  24.331  0.00  0.00    -0.244 NA
BRANCH  30  32
ATOM     32  O   LIG    1      -37.679  67.171  24.815  0.00  0.00    -0.491 OA
ATOM     33  H   LIG    1      -38.306  67.773  24.373  0.00  0.00    +0.294 HD
ENDBRANCH  30  32
BRANCH  31  34
ATOM     34  C   LIG    1      -35.555  65.791  23.779  0.00  0.00    +0.183 C 
BRANCH  34  35
ATOM     35  C   LIG    1      -34.862  65.723  22.462  0.00  0.00    +0.011 A 
ATOM     36  C   LIG    1      -34.709  64.647  21.611  0.00  0.00    +0.110 A 
ATOM     37  N   LIG    1      -34.022  65.107  20.525  0.00  0.00    -0.284 N 
ATOM     38  H   LIG    1      -33.738  64.597  19.696  0.00  0.00    +0.188 HD
ATOM     39  N   LIG    1      -33.707  66.410  20.607  0.00  0.00    -0.182 NA
ATOM     40  C   LIG    1      -34.218  66.782  21.783  0.00  0.00    +0.139 A 
ENDBRANCH  34  35
ENDBRANCH  31  34
ENDBRANCH   1  30
TORSDOF 8
ENDMDL
MODEL 4
REMARK VINA RESULT:      -6.5      8.288     10.404
REMARK  Name = pdb/CHEMBL3952298.pdb
REMARK                            x       y       z     vdW  Elec       q    Type
REMARK                         _______ _______ _______ _____ _____    ______ ____
ROOT
ATOM      1  C   LIG    1      -31.261  74.786  30.210  0.00  0.00    +0.149 A 
ATOM      2  N   LIG    1      -31.523  76.093  30.020  0.00  0.00    -0.160 NA
ATOM      3  N   LIG    1      -32.472  76.118  29.030  0.00  0.00    -0.218 N 
ATOM      4  C   LIG    1      -32.893  74.819  28.689  0.00  0.00    +0.129 A 
ATOM      5  C   LIG    1      -32.068  73.973  29.388  0.00  0.00    +0.078 A 
ENDROOT
BRANCH   3   6
ATOM      6  C   LIG    1      -32.890  77.364  28.469  0.00  0.00    +0.067 A 
ATOM      7  C   LIG    1      -32.224  77.902  27.353  0.00  0.00    +0.028 A 
ATOM      8  C   LIG    1      -32.603  79.149  26.837  0.00  0.00    +0.002 A 
ATOM      9  C   LIG    1      -33.676  79.841  27.395  0.00  0.00    +0.000 A 
ATOM     10  C   LIG    1      -34.379  79.284  28.461  0.00  0.00    +0.002 A 
ATOM     11  C   LIG    1      -33.988  78.054  29.002  0.00  0.00    +0.028 A 
ENDBRANCH   3   6
BRANCH   4  12
ATOM     12  N   LIG    1      -33.999  74.421  27.912  0.00  0.00    -0.266 N 
ATOM     13  H   LIG    1      -33.820  74.110  26.966  0.00  0.00    +0.157 HD
ATOM     14  C   LIG    1      -35.366  74.532  28.388  0.00  0.00    +0.251 C 
ATOM     15  O   LIG    1      -35.602  74.829  29.536  0.00  0.00    -0.270 OA
BRANCH  14  16
ATOM     16  C   LIG    1      -36.486  74.209  27.455  0.00  0.00    +0.056 A 
ATOM     17  C   LIG    1      -36.826  72.916  27.080  0.00  0.00    +0.054 A 
ATOM     18 CL   LIG    1      -36.170  71.503  27.823  0.00  0.00    -0.083 Cl
ATOM     19  C   LIG    1      -37.749  72.715  26.052  0.00  0.00    +0.041 A 
ATOM     20  C   LIG    1      -38.406  73.794  25.440  0.00  0.00    +0.052 A 
ATOM     21 CL   LIG    1      -39.453  73.347  24.134  0.00  0.00    -0.083 Cl
ATOM     22  C   LIG    1      -38.176  75.121  25.856  0.00  0.00    +0.019 A 
ATOM     23  C   LIG    1      -37.166  75.296  26.847  0.00  0.00    +0.026 A 
BRANCH  22  24
ATOM     24  C   LIG    1      -38.898  76.314  25.325  0.00  0.00    +0.072 A 
ATOM     25  N   LIG    1      -40.115  76.556  25.876  0.00  0.00    -0.255 NA
ATOM     26  C   LIG    1      -40.819  77.629  25.428  0.00  0.00    +0.111 A 
ATOM     27  C   LIG    1      -40.381  78.487  24.436  0.00  0.00    +0.020 A 
ATOM     28  C   LIG    1      -39.151  78.226  23.860  0.00  0.00    +0.004 A 
ATOM     29  C   LIG    1      -38.415  77.124  24.293  0.00  0.00    +0.028 A 
ENDBRANCH  22  24
ENDBRANCH  14  16
ENDBRANCH   4  12
BRANCH   1  30
ATOM     30  C   LIG    1      -30.301  74.318  31.209  0.00  0.00    +0.236 C 
ATOM     31  N   LIG    1      -29.557  75.161  31.826  0.00  0.00    -0.244 NA
BRANCH  30  32
ATOM     32  O   LIG    1      -30.258  72.981  31.390  0.00  0.00    -0.491 OA
ATOM     33  H   LIG    1      -30.086  72.547  30.534  0.00  0.00    +0.294 HD
ENDBRANCH  30  32
BRANCH  31  34
ATOM     34  C   LIG    1      -28.575  74.639  32.772  0.00  0.00    +0.183 C 
BRANCH  34  35
ATOM     35  C   LIG    1      -27.221  74.710  32.157  0.00  0.00    +0.011 A 
ATOM     36  C   LIG    1      -26.353  73.685  31.836  0.00  0.00    +0.110 A 
ATOM     37  N   LIG    1      -25.256  74.270  31.271  0.00  0.00    -0.284 N 
ATOM     38  H   LIG    1      -24.421  73.824  30.908  0.00  0.00    +0.188 HD
ATOM     39  N   LIG    1      -25.340  75.608  31.205  0.00  0.00    -0.182 NA
ATOM     40  C   LIG    1      -26.533  75.874  31.742  0.00  0.00    +0.139 A 
ENDBRANCH  34  35
ENDBRANCH  31  34
ENDBRANCH   1  30
TORSDOF 8
ENDMDL
MODEL 5
REMARK VINA RESULT:      -6.3      8.421     16.242
REMARK  Name = pdb/CHEMBL3952298.pdb
REMARK                            x       y       z     vdW  Elec       q    Type
REMARK                         _______ _______ _______ _____ _____    ______ ____
ROOT
ATOM      1  C   LIG    1      -37.637  70.035  24.983  0.00  0.00    +0.149 A 
ATOM      2  N   LIG    1      -37.259  69.062  25.835  0.00  0.00    -0.160 NA
ATOM      3  N   LIG    1      -36.082  69.511  26.376  0.00  0.00    -0.218 N 
ATOM      4  C   LIG    1      -35.788  70.820  25.953  0.00  0.00    +0.129 A 
ATOM      5  C   LIG    1      -36.740  71.122  25.011  0.00  0.00    +0.078 A 
ENDROOT
BRANCH   3   6
ATOM      6  C   LIG    1      -35.316  68.660  27.231  0.00  0.00    +0.067 A 
ATOM      7  C   LIG    1      -34.446  67.699  26.686  0.00  0.00    +0.028 A 
ATOM      8  C   LIG    1      -33.735  66.831  27.526  0.00  0.00    +0.002 A 
ATOM      9  C   LIG    1      -33.847  66.948  28.910  0.00  0.00    +0.000 A 
ATOM     10  C   LIG    1      -34.660  67.938  29.457  0.00  0.00    +0.002 A 
ATOM     11  C   LIG    1      -35.397  68.789  28.625  0.00  0.00    +0.028 A 
ENDBRANCH   3   6
BRANCH   4  12
ATOM     12  N   LIG    1      -34.824  71.718  26.454  0.00  0.00    -0.266 N 
ATOM     13  H   LIG    1      -33.971  71.835  25.921  0.00  0.00    +0.157 HD
ATOM     14  C   LIG    1      -34.975  72.393  27.730  0.00  0.00    +0.251 C 
ATOM     15  O   LIG    1      -36.012  72.328  28.348  0.00  0.00    -0.270 OA
BRANCH  14  16
ATOM     16  C   LIG    1      -33.850  73.227  28.246  0.00  0.00    +0.056 A 
ATOM     17  C   LIG    1      -32.849  72.741  29.078  0.00  0.00    +0.054 A 
ATOM     18 CL   LIG    1      -32.630  71.066  29.428  0.00  0.00    -0.083 Cl
ATOM     19  C   LIG    1      -31.955  73.631  29.675  0.00  0.00    +0.041 A 
ATOM     20  C   LIG    1      -31.992  75.006  29.390  0.00  0.00    +0.052 A 
ATOM     21 CL   LIG    1      -30.854  75.954  30.289  0.00  0.00    -0.083 Cl
ATOM     22  C   LIG    1      -32.919  75.536  28.471  0.00  0.00    +0.019 A 
ATOM     23  C   LIG    1      -33.872  74.614  27.946  0.00  0.00    +0.026 A 
BRANCH  22  24
ATOM     24  C   LIG    1      -32.966  76.964  28.041  0.00  0.00    +0.072 A 
ATOM     25  N   LIG    1      -33.735  77.781  28.806  0.00  0.00    -0.255 NA
ATOM     26  C   LIG    1      -33.817  79.093  28.459  0.00  0.00    +0.111 A 
ATOM     27  C   LIG    1      -33.175  79.650  27.368  0.00  0.00    +0.020 A 
ATOM     28  C   LIG    1      -32.409  78.812  26.578  0.00  0.00    +0.004 A 
ATOM     29  C   LIG    1      -32.320  77.459  26.905  0.00  0.00    +0.028 A 
ENDBRANCH  22  24
ENDBRANCH  14  16
ENDBRANCH   4  12
BRANCH   1  30
ATOM     30  C   LIG    1      -38.871  69.955  24.204  0.00  0.00    +0.236 C 
ATOM     31  N   LIG    1      -39.484  71.029  23.862  0.00  0.00    -0.244 NA
BRANCH  30  32
ATOM     32  O   LIG    1      -39.296  68.705  23.916  0.00  0.00    -0.491 OA
ATOM     33  H   LIG    1      -40.176  68.754  23.499  0.00  0.00    +0.294 HD
ENDBRANCH  30  32
BRANCH  31  34
ATOM     34  C   LIG    1      -40.742  70.893  23.134  0.00  0.00    +0.183 C 
BRANCH  34  35
ATOM     35  C   LIG    1      -41.406  72.224  23.058  0.00  0.00    +0.011 A 
ATOM     36  C   LIG    1      -42.588  72.576  22.437  0.00  0.00    +0.110 A 
ATOM     37  N   LIG    1      -42.771  73.907  22.680  0.00  0.00    -0.284 N 
ATOM     38  H   LIG    1      -43.537  74.501  22.385  0.00  0.00    +0.188 HD
ATOM     39  N   LIG    1      -41.788  74.455  23.413  0.00  0.00    -0.182 NA
ATOM     40  C   LIG    1      -40.961  73.433  23.642  0.00  0.00    +0.139 A 
ENDBRANCH  34  35
ENDBRANCH  31  34
ENDBRANCH   1  30
TORSDOF 8
ENDMDL
MODEL 6
REMARK VINA RESULT:      -6.3      8.858     11.527
REMARK  Name = pdb/CHEMBL3952298.pdb
REMARK                            x       y       z     vdW  Elec       q    Type
REMARK                         _______ _______ _______ _____ _____    ______ ____
ROOT
ATOM      1  C   LIG    1      -23.640  77.288  31.002  0.00  0.00    +0.149 A 
ATOM      2  N   LIG    1      -23.602  77.506  32.330  0.00  0.00    -0.160 NA
ATOM      3  N   LIG    1      -24.917  77.611  32.704  0.00  0.00    -0.218 N 
ATOM      4  C   LIG    1      -25.781  77.335  31.628  0.00  0.00    +0.129 A 
ATOM      5  C   LIG    1      -24.966  77.202  30.531  0.00  0.00    +0.078 A 
ENDROOT
BRANCH   3   6
ATOM      6  C   LIG    1      -25.254  77.985  34.041  0.00  0.00    +0.067 A 
ATOM      7  C   LIG    1      -26.067  77.151  34.831  0.00  0.00    +0.028 A 
ATOM      8  C   LIG    1      -26.439  77.546  36.123  0.00  0.00    +0.002 A 
ATOM      9  C   LIG    1      -25.965  78.743  36.654  0.00  0.00    +0.000 A 
ATOM     10  C   LIG    1      -25.110  79.544  35.900  0.00  0.00    +0.002 A 
ATOM     11  C   LIG    1      -24.758  79.172  34.597  0.00  0.00    +0.028 A 
ENDBRANCH   3   6
BRANCH   4  12
ATOM     12  N   LIG    1      -27.170  77.099  31.645  0.00  0.00    -0.266 N 
ATOM     13  H   LIG    1      -27.782  77.894  31.508  0.00  0.00    +0.157 HD
ATOM     14  C   LIG    1      -27.737  75.796  31.939  0.00  0.00    +0.251 C 
ATOM     15  O   LIG    1      -27.031  74.818  32.031  0.00  0.00    -0.270 OA
BRANCH  14  16
ATOM     16  C   LIG    1      -29.218  75.661  32.062  0.00  0.00    +0.056 A 
ATOM     17  C   LIG    1      -29.865  75.323  33.244  0.00  0.00    +0.054 A 
ATOM     18 CL   LIG    1      -29.075  75.255  34.778  0.00  0.00    -0.083 Cl
ATOM     19  C   LIG    1      -31.227  75.021  33.224  0.00  0.00    +0.041 A 
ATOM     20  C   LIG    1      -31.982  75.129  32.046  0.00  0.00    +0.052 A 
ATOM     21 CL   LIG    1      -33.635  74.634  32.206  0.00  0.00    -0.083 Cl
ATOM     22  C   LIG    1      -31.398  75.570  30.842  0.00  0.00    +0.019 A 
ATOM     23  C   LIG    1      -29.988  75.787  30.877  0.00  0.00    +0.026 A 
BRANCH  22  24
ATOM     24  C   LIG    1      -32.144  75.802  29.571  0.00  0.00    +0.072 A 
ATOM     25  N   LIG    1      -31.926  77.002  28.973  0.00  0.00    -0.255 NA
ATOM     26  C   LIG    1      -32.582  77.268  27.814  0.00  0.00    +0.111 A 
ATOM     27  C   LIG    1      -33.470  76.400  27.205  0.00  0.00    +0.020 A 
ATOM     28  C   LIG    1      -33.708  75.187  27.826  0.00  0.00    +0.004 A 
ATOM     29  C   LIG    1      -33.056  74.895  29.025  0.00  0.00    +0.028 A 
ENDBRANCH  22  24
ENDBRANCH  14  16
ENDBRANCH   4  12
BRANCH   1  30
ATOM     30  C   LIG    1      -22.429  77.099  30.206  0.00  0.00    +0.236 C 
ATOM     31  N   LIG    1      -21.312  76.851  30.787  0.00  0.00    -0.244 NA
BRANCH  30  32
ATOM     32  O   LIG    1      -22.586  77.230  28.871  0.00  0.00    -0.491 OA
ATOM     33  H   LIG    1      -23.501  77.505  28.681  0.00  0.00    +0.294 HD
ENDBRANCH  30  32
BRANCH  31  34
ATOM     34  C   LIG    1      -20.122  76.727  29.951  0.00  0.00    +0.183 C 
BRANCH  34  35
ATOM     35  C   LIG    1      -18.925  77.115  30.748  0.00  0.00    +0.011 A 
ATOM     36  C   LIG    1      -17.606  76.745  30.579  0.00  0.00    +0.110 A 
ATOM     37  N   LIG    1      -16.896  77.389  31.551  0.00  0.00    -0.284 N 
ATOM     38  H   LIG    1      -15.897  77.360  31.726  0.00  0.00    +0.188 HD
ATOM     39  N   LIG    1      -17.658  78.152  32.351  0.00  0.00    -0.182 NA
ATOM     40  C   LIG    1      -18.889  77.985  31.863  0.00  0.00    +0.139 A 
ENDBRANCH  34  35
ENDBRANCH  31  34
ENDBRANCH   1  30
TORSDOF 8
ENDMDL
MODEL 7
REMARK VINA RESULT:      -6.3     18.679     20.657
REMARK  Name = pdb/CHEMBL3952298.pdb
REMARK                            x       y       z     vdW  Elec       q    Type
REMARK                         _______ _______ _______ _____ _____    ______ ____
ROOT
ATOM      1  C   LIG    1      -20.524  82.449  13.852  0.00  0.00    +0.149 A 
ATOM      2  N   LIG    1      -21.766  82.224  14.322  0.00  0.00    -0.160 NA
ATOM      3  N   LIG    1      -21.943  80.870  14.202  0.00  0.00    -0.218 N 
ATOM      4  C   LIG    1      -20.765  80.232  13.773  0.00  0.00    +0.129 A 
ATOM      5  C   LIG    1      -19.888  81.247  13.481  0.00  0.00    +0.078 A 
ENDROOT
BRANCH   3   6
ATOM      6  C   LIG    1      -23.218  80.286  14.481  0.00  0.00    +0.067 A 
ATOM      7  C   LIG    1      -24.293  80.463  13.591  0.00  0.00    +0.028 A 
ATOM      8  C   LIG    1      -25.555  79.933  13.893  0.00  0.00    +0.002 A 
ATOM      9  C   LIG    1      -25.742  79.185  15.054  0.00  0.00    +0.000 A 
ATOM     10  C   LIG    1      -24.666  78.954  15.908  0.00  0.00    +0.002 A 
ATOM     11  C   LIG    1      -23.409  79.505  15.630  0.00  0.00    +0.028 A 
ENDBRANCH   3   6
BRANCH   4  12
ATOM     12  N   LIG    1      -20.455  78.858  13.758  0.00  0.00    -0.266 N 
ATOM     13  H   LIG    1      -20.698  78.331  12.928  0.00  0.00    +0.157 HD
ATOM     14  C   LIG    1      -19.896  78.172  14.909  0.00  0.00    +0.251 C 
ATOM     15  O   LIG    1      -19.528  78.789  15.881  0.00  0.00    -0.270 OA
BRANCH  14  16
ATOM     16  C   LIG    1      -19.717  76.691  14.853  0.00  0.00    +0.056 A 
ATOM     17  C   LIG    1      -19.069  76.033  13.815  0.00  0.00    +0.054 A 
ATOM     18 CL   LIG    1      -18.173  76.843  12.583  0.00  0.00    -0.083 Cl
ATOM     19  C   LIG    1      -19.123  74.640  13.740  0.00  0.00    +0.041 A 
ATOM     20  C   LIG    1      -19.753  73.879  14.738  0.00  0.00    +0.052 A 
ATOM     21 CL   LIG    1      -19.785  72.175  14.426  0.00  0.00    -0.083 Cl
ATOM     22  C   LIG    1      -20.334  74.491  15.867  0.00  0.00    +0.019 A 
ATOM     23  C   LIG    1      -20.336  75.918  15.869  0.00  0.00    +0.026 A 
BRANCH  22  24
ATOM     24  C   LIG    1      -20.939  73.755  17.015  0.00  0.00    +0.072 A 
ATOM     25  N   LIG    1      -20.078  72.999  17.745  0.00  0.00    -0.255 NA
ATOM     26  C   LIG    1      -20.575  72.304  18.801  0.00  0.00    +0.111 A 
ATOM     27  C   LIG    1      -21.906  72.306  19.177  0.00  0.00    +0.020 A 
ATOM     28  C   LIG    1      -22.785  73.059  18.420  0.00  0.00    +0.004 A 
ATOM     29  C   LIG    1      -22.302  73.772  17.322  0.00  0.00    +0.028 A 
ENDBRANCH  22  24
ENDBRANCH  14  16
ENDBRANCH   4  12
BRANCH   1  30
ATOM     30  C   LIG    1      -19.931  83.784  13.820  0.00  0.00    +0.236 C 
ATOM     31  N   LIG    1      -20.635  84.790  13.449  0.00  0.00    -0.244 NA
BRANCH  30  32
ATOM     32  O   LIG    1      -18.629  83.849  14.175  0.00  0.00    -0.491 OA
ATOM     33  H   LIG    1      -18.566  83.981  15.139  0.00  0.00    +0.294 HD
ENDBRANCH  30  32
BRANCH  31  34
ATOM     34  C   LIG    1      -19.979  86.093  13.380  0.00  0.00    +0.183 C 
BRANCH  34  35
ATOM     35  C   LIG    1      -20.839  87.106  14.051  0.00  0.00    +0.011 A 
ATOM     36  C   LIG    1      -21.031  88.437  13.734  0.00  0.00    +0.110 A 
ATOM     37  N   LIG    1      -21.933  88.923  14.636  0.00  0.00    -0.284 N 
ATOM     38  H   LIG    1      -22.315  89.860  14.702  0.00  0.00    +0.188 HD
ATOM     39  N   LIG    1      -22.342  88.006  15.528  0.00  0.00    -0.182 NA
ATOM     40  C   LIG    1      -21.678  86.905  15.172  0.00  0.00    +0.139 A 
ENDBRANCH  34  35
ENDBRANCH  31  34
ENDBRANCH   1  30
TORSDOF 8
ENDMDL
MODEL 8
REMARK VINA RESULT:      -6.3     18.713     21.636
REMARK  Name = pdb/CHEMBL3952298.pdb
REMARK                            x       y       z     vdW  Elec       q    Type
REMARK                         _______ _______ _______ _____ _____    ______ ____
ROOT
ATOM      1  C   LIG    1      -26.175  77.758  13.866  0.00  0.00    +0.149 A 
ATOM      2  N   LIG    1      -25.111  77.742  14.691  0.00  0.00    -0.160 NA
ATOM      3  N   LIG    1      -24.520  78.967  14.522  0.00  0.00    -0.218 N 
ATOM      4  C   LIG    1      -25.285  79.796  13.681  0.00  0.00    +0.129 A 
ATOM      5  C   LIG    1      -26.298  78.999  13.208  0.00  0.00    +0.078 A 
ENDROOT
BRANCH   3   6
ATOM      6  C   LIG    1      -23.267  79.251  15.148  0.00  0.00    +0.067 A 
ATOM      7  C   LIG    1      -23.171  80.259  16.125  0.00  0.00    +0.028 A 
ATOM      8  C   LIG    1      -21.931  80.570  16.700  0.00  0.00    +0.002 A 
ATOM      9  C   LIG    1      -20.793  79.849  16.344  0.00  0.00    +0.000 A 
ATOM     10  C   LIG    1      -20.893  78.809  15.424  0.00  0.00    +0.002 A 
ATOM     11  C   LIG    1      -22.122  78.511  14.822  0.00  0.00    +0.028 A 
ENDBRANCH   3   6
BRANCH   4  12
ATOM     12  N   LIG    1      -25.162  81.180  13.450  0.00  0.00    -0.266 N 
ATOM     13  H   LIG    1      -25.760  81.799  13.983  0.00  0.00    +0.157 HD
ATOM     14  C   LIG    1      -24.290  81.725  12.426  0.00  0.00    +0.251 C 
ATOM     15  O   LIG    1      -23.514  81.016  11.830  0.00  0.00    -0.270 OA
BRANCH  14  16
ATOM     16  C   LIG    1      -24.314  83.194  12.160  0.00  0.00    +0.056 A 
ATOM     17  C   LIG    1      -25.216  83.805  11.299  0.00  0.00    +0.054 A 
ATOM     18 CL   LIG    1      -26.579  82.997  10.614  0.00  0.00    -0.083 Cl
ATOM     19  C   LIG    1      -25.041  85.147  10.953  0.00  0.00    +0.041 A 
ATOM     20  C   LIG    1      -24.015  85.919  11.521  0.00  0.00    +0.052 A 
ATOM     21 CL   LIG    1      -23.912  87.536  10.906  0.00  0.00    -0.083 Cl
ATOM     22  C   LIG    1      -23.138  85.376  12.480  0.00  0.00    +0.019 A 
ATOM     23  C   LIG    1      -23.290  83.983  12.746  0.00  0.00    +0.026 A 
BRANCH  22  24
ATOM     24  C   LIG    1      -22.083  86.149  13.200  0.00  0.00    +0.072 A 
ATOM     25  N   LIG    1      -22.535  87.108  14.048  0.00  0.00    -0.255 NA
ATOM     26  C   LIG    1      -21.619  87.846  14.728  0.00  0.00    +0.111 A 
ATOM     27  C   LIG    1      -20.250  87.690  14.605  0.00  0.00    +0.020 A 
ATOM     28  C   LIG    1      -19.791  86.727  13.725  0.00  0.00    +0.004 A 
ATOM     29  C   LIG    1      -20.711  85.966  13.005  0.00  0.00    +0.028 A 
ENDBRANCH  22  24
ENDBRANCH  14  16
ENDBRANCH   4  12
BRANCH   1  30
ATOM     30  C   LIG    1      -27.097  76.629  13.757  0.00  0.00    +0.236 C 
ATOM     31  N   LIG    1      -27.152  75.948  12.671  0.00  0.00    -0.244 NA
BRANCH  30  32
ATOM     32  O   LIG    1      -27.866  76.401  14.844  0.00  0.00    -0.491 OA
ATOM     33  H   LIG    1      -28.134  77.255  15.231  0.00  0.00    +0.294 HD
ENDBRANCH  30  32
BRANCH  31  34
ATOM     34  C   LIG    1      -28.131  74.867  12.593  0.00  0.00    +0.183 C 
BRANCH  34  35
ATOM     35  C   LIG    1      -29.347  75.362  11.890  0.00  0.00    +0.011 A 
ATOM     36  C   LIG    1      -30.592  74.776  11.783  0.00  0.00    +0.110 A 
ATOM     37  N   LIG    1      -31.365  75.639  11.061  0.00  0.00    -0.284 N 
ATOM     38  H   LIG    1      -32.339  75.541  10.795  0.00  0.00    +0.188 HD
ATOM     39  N   LIG    1      -30.712  76.748  10.681  0.00  0.00    -0.182 NA
ATOM     40  C   LIG    1      -29.488  76.579  11.185  0.00  0.00    +0.139 A 
ENDBRANCH  34  35
ENDBRANCH  31  34
ENDBRANCH   1  30
TORSDOF 8
ENDMDL
MODEL 9
REMARK VINA RESULT:      -6.2      9.158     13.102
REMARK  Name = pdb/CHEMBL3952298.pdb
REMARK                            x       y       z     vdW  Elec       q    Type
REMARK                         _______ _______ _______ _____ _____    ______ ____
ROOT
ATOM      1  C   LIG    1      -37.617  76.765  26.066  0.00  0.00    +0.149 A 
ATOM      2  N   LIG    1      -38.539  77.743  26.157  0.00  0.00    -0.160 NA
ATOM      3  N   LIG    1      -39.470  77.433  25.199  0.00  0.00    -0.218 N 
ATOM      4  C   LIG    1      -39.194  76.193  24.595  0.00  0.00    +0.129 A 
ATOM      5  C   LIG    1      -37.976  75.807  25.096  0.00  0.00    +0.078 A 
ENDROOT
BRANCH   3   6
ATOM      6  C   LIG    1      -40.535  78.343  24.915  0.00  0.00    +0.067 A 
ATOM      7  C   LIG    1      -40.292  79.519  24.183  0.00  0.00    +0.028 A 
ATOM      8  C   LIG    1      -41.328  80.434  23.951  0.00  0.00    +0.002 A 
ATOM      9  C   LIG    1      -42.618  80.161  24.400  0.00  0.00    +0.000 A 
ATOM     10  C   LIG    1      -42.878  78.969  25.072  0.00  0.00    +0.002 A 
ATOM     11  C   LIG    1      -41.843  78.064  25.335  0.00  0.00    +0.028 A 
ENDBRANCH   3   6
BRANCH   4  12
ATOM     12  N   LIG    1      -40.015  75.413  23.758  0.00  0.00    -0.266 N 
ATOM     13  H   LIG    1      -39.879  75.495  22.758  0.00  0.00    +0.157 HD
ATOM     14  C   LIG    1      -41.090  74.584  24.273  0.00  0.00    +0.251 C 
ATOM     15  O   LIG    1      -41.225  74.410  25.462  0.00  0.00    -0.270 OA
BRANCH  14  16
ATOM     16  C   LIG    1      -41.994  73.889  23.309  0.00  0.00    +0.056 A 
ATOM     17  C   LIG    1      -41.820  72.572  22.904  0.00  0.00    +0.054 A 
ATOM     18 CL   LIG    1      -40.694  71.489  23.636  0.00  0.00    -0.083 Cl
ATOM     19  C   LIG    1      -42.587  72.066  21.852  0.00  0.00    +0.041 A 
ATOM     20  C   LIG    1      -43.591  72.836  21.244  0.00  0.00    +0.052 A 
ATOM     21 CL   LIG    1      -44.376  72.063  19.907  0.00  0.00    -0.083 Cl
ATOM     22  C   LIG    1      -43.880  74.142  21.688  0.00  0.00    +0.019 A 
ATOM     23  C   LIG    1      -43.023  74.658  22.705  0.00  0.00    +0.026 A 
BRANCH  22  24
ATOM     24  C   LIG    1      -44.988  74.992  21.162  0.00  0.00    +0.072 A 
ATOM     25  N   LIG    1      -46.202  74.793  21.736  0.00  0.00    -0.255 NA
ATOM     26  C   LIG    1      -47.249  75.537  21.294  0.00  0.00    +0.111 A 
ATOM     27  C   LIG    1      -47.162  76.481  20.286  0.00  0.00    +0.020 A 
ATOM     28  C   LIG    1      -45.929  76.667  19.687  0.00  0.00    +0.004 A 
ATOM     29  C   LIG    1      -44.841  75.905  20.114  0.00  0.00    +0.028 A 
ENDBRANCH  22  24
ENDBRANCH  14  16
ENDBRANCH   4  12
BRANCH   1  30
ATOM     30  C   LIG    1      -36.446  76.711  26.939  0.00  0.00    +0.236 C 
ATOM     31  N   LIG    1      -36.048  77.770  27.543  0.00  0.00    -0.244 NA
BRANCH  30  32
ATOM     32  O   LIG    1      -35.839  75.507  27.022  0.00  0.00    -0.491 OA
ATOM     33  H   LIG    1      -35.083  75.572  27.634  0.00  0.00    +0.294 HD
ENDBRANCH  30  32
BRANCH  31  34
ATOM     34  C   LIG    1      -34.840  77.677  28.358  0.00  0.00    +0.183 C 
BRANCH  34  35
ATOM     35  C   LIG    1      -33.662  78.048  27.526  0.00  0.00    +0.011 A 
ATOM     36  C   LIG    1      -33.088  79.288  27.329  0.00  0.00    +0.110 A 
ATOM     37  N   LIG    1      -32.019  79.092  26.503  0.00  0.00    -0.284 N 
ATOM     38  H   LIG    1      -31.359  79.779  26.153  0.00  0.00    +0.188 HD
ATOM     39  N   LIG    1      -31.855  77.811  26.138  0.00  0.00    -0.182 NA
ATOM     40  C   LIG    1      -32.853  77.178  26.759  0.00  0.00    +0.139 A 
ENDBRANCH  34  35
ENDBRANCH  31  34
ENDBRANCH   1  30
TORSDOF 8
ENDMDL
