MODEL 1
REMARK VINA RESULT:      -6.3      0.000      0.000
REMARK  Name = pdb/CHEMBL3910457.pdb
REMARK                            x       y       z     vdW  Elec       q    Type
REMARK                         _______ _______ _______ _____ _____    ______ ____
ROOT
ATOM      1  C   LIG    1      -31.791  93.959  22.906  0.00  0.00    +0.099 A 
ATOM      2  C   LIG    1      -32.158  93.504  21.657  0.00  0.00    +0.179 A 
ATOM      3  N   LIG    1      -33.193  92.703  21.248  0.00  0.00    -0.211 NA
ATOM      4  C   LIG    1      -33.291  92.428  19.965  0.00  0.00    +0.126 A 
ATOM      5  C   LIG    1      -32.248  92.894  18.970  0.00  0.00    +0.063 A 
ATOM      6  C   LIG    1      -31.273  93.689  19.424  0.00  0.00    +0.118 A 
ATOM      7  N   LIG    1      -31.219  94.025  20.767  0.00  0.00    -0.220 N 
ATOM      8  N   LIG    1      -30.321  94.829  21.386  0.00  0.00    -0.171 NA
ATOM      9  C   LIG    1      -30.671  94.782  22.676  0.00  0.00    +0.160 A 
ENDROOT
BRANCH   4  10
ATOM     10  N   LIG    1      -34.375  91.694  19.494  0.00  0.00    -0.308 N 
ATOM     11  C   LIG    1      -34.221  90.306  19.006  0.00  0.00    +0.108 C 
ATOM     12  C   LIG    1      -35.530  89.595  19.406  0.00  0.00    +0.029 C 
ATOM     13  C   LIG    1      -36.135  90.488  20.472  0.00  0.00    +0.021 C 
ATOM     14  C   LIG    1      -35.726  91.878  20.023  0.00  0.00    +0.107 C 
BRANCH  11  15
ATOM     15  C   LIG    1      -34.039  90.254  17.503  0.00  0.00    +0.011 A 
ATOM     16  C   LIG    1      -33.434  89.133  16.921  0.00  0.00    +0.129 A 
ATOM     17  F   LIG    1      -32.983  88.140  17.701  0.00  0.00    -0.205 F 
ATOM     18  C   LIG    1      -33.307  89.005  15.537  0.00  0.00    +0.041 A 
ATOM     19  C   LIG    1      -33.800  90.007  14.704  0.00  0.00    +0.041 A 
ATOM     20  C   LIG    1      -34.409  91.122  15.267  0.00  0.00    +0.124 A 
ATOM     21  F   LIG    1      -34.900  92.079  14.469  0.00  0.00    -0.205 F 
ATOM     22  C   LIG    1      -34.533  91.253  16.646  0.00  0.00    +0.046 A 
ENDBRANCH  11  15
ENDBRANCH   4  10
BRANCH   1  24
ATOM     23  C   LIG    1      -32.161  92.519  24.850  0.00  0.00    +0.326 C 
ATOM     24  N   LIG    1      -32.472  93.609  24.061  0.00  0.00    -0.272 N 
ATOM     25  H   LIG    1      -33.281  94.180  24.276  0.00  0.00    +0.155 HD
ATOM     26  O   LIG    1      -31.270  91.702  24.674  0.00  0.00    -0.263 OA
BRANCH  23  27
ATOM     27  C   LIG    1      -33.095  92.368  26.065  0.00  0.00    +0.395 C 
ATOM     28  O   LIG    1      -34.140  92.975  26.176  0.00  0.00    -0.240 OA
BRANCH  27  30
ATOM     29  C   LIG    1      -33.542  90.652  27.608  0.00  0.00    +0.280 C 
ATOM     30  O   LIG    1      -32.578  91.441  26.903  0.00  0.00    -0.461 OA
ENDBRANCH  27  30
ENDBRANCH  23  27
ENDBRANCH   1  24
TORSDOF 5
ENDMDL
MODEL 2
REMARK VINA RESULT:      -6.2     20.046     22.563
REMARK  Name = pdb/CHEMBL3910457.pdb
REMARK                            x       y       z     vdW  Elec       q    Type
REMARK                         _______ _______ _______ _____ _____    ______ ____
ROOT
ATOM      1  C   LIG    1      -23.098  77.218  30.669  0.00  0.00    +0.099 A 
ATOM      2  C   LIG    1      -21.846  77.434  31.205  0.00  0.00    +0.179 A 
ATOM      3  N   LIG    1      -21.450  77.919  32.426  0.00  0.00    -0.211 NA
ATOM      4  C   LIG    1      -20.159  78.021  32.659  0.00  0.00    +0.126 A 
ATOM      5  C   LIG    1      -19.131  77.709  31.592  0.00  0.00    +0.063 A 
ATOM      6  C   LIG    1      -19.576  77.222  30.429  0.00  0.00    +0.118 A 
ATOM      7  N   LIG    1      -20.935  77.057  30.219  0.00  0.00    -0.220 N 
ATOM      8  N   LIG    1      -21.551  76.560  29.119  0.00  0.00    -0.171 NA
ATOM      9  C   LIG    1      -22.855  76.663  29.397  0.00  0.00    +0.160 A 
ENDROOT
BRANCH   4  10
ATOM     10  N   LIG    1      -19.712  78.423  33.914  0.00  0.00    -0.308 N 
ATOM     11  C   LIG    1      -20.587  78.369  35.105  0.00  0.00    +0.108 C 
ATOM     12  C   LIG    1      -19.645  78.025  36.278  0.00  0.00    +0.029 C 
ATOM     13  C   LIG    1      -18.400  77.470  35.612  0.00  0.00    +0.021 C 
ATOM     14  C   LIG    1      -18.317  78.272  34.326  0.00  0.00    +0.107 C 
BRANCH  11  15
ATOM     15  C   LIG    1      -21.272  79.696  35.361  0.00  0.00    +0.011 A 
ATOM     16  C   LIG    1      -22.659  79.798  35.195  0.00  0.00    +0.129 A 
ATOM     17  F   LIG    1      -23.358  78.737  34.770  0.00  0.00    -0.205 F 
ATOM     18  C   LIG    1      -23.346  80.978  35.486  0.00  0.00    +0.041 A 
ATOM     19  C   LIG    1      -22.647  82.084  35.963  0.00  0.00    +0.041 A 
ATOM     20  C   LIG    1      -21.272  81.996  36.139  0.00  0.00    +0.124 A 
ATOM     21  F   LIG    1      -20.598  83.051  36.615  0.00  0.00    -0.205 F 
ATOM     22  C   LIG    1      -20.584  80.822  35.846  0.00  0.00    +0.046 A 
ENDBRANCH  11  15
ENDBRANCH   4  10
BRANCH   1  24
ATOM     23  C   LIG    1      -25.353  76.675  31.449  0.00  0.00    +0.326 C 
ATOM     24  N   LIG    1      -24.267  77.521  31.348  0.00  0.00    -0.272 N 
ATOM     25  H   LIG    1      -24.312  78.457  31.735  0.00  0.00    +0.155 HD
ATOM     26  O   LIG    1      -25.474  75.557  30.970  0.00  0.00    -0.263 OA
BRANCH  23  27
ATOM     27  C   LIG    1      -26.517  77.281  32.255  0.00  0.00    +0.395 C 
ATOM     28  O   LIG    1      -26.410  77.630  33.412  0.00  0.00    -0.240 OA
BRANCH  27  30
ATOM     29  C   LIG    1      -28.838  76.975  32.033  0.00  0.00    +0.280 C 
ATOM     30  O   LIG    1      -27.598  77.390  31.450  0.00  0.00    -0.461 OA
ENDBRANCH  27  30
ENDBRANCH  23  27
ENDBRANCH   1  24
TORSDOF 5
ENDMDL
MODEL 3
REMARK VINA RESULT:      -6.0     20.643     22.861
REMARK  Name = pdb/CHEMBL3910457.pdb
REMARK                            x       y       z     vdW  Elec       q    Type
REMARK                         _______ _______ _______ _____ _____    ______ ____
ROOT
ATOM      1  C   LIG    1      -24.673  77.597  32.728  0.00  0.00    +0.099 A 
ATOM      2  C   LIG    1      -24.558  78.299  33.911  0.00  0.00    +0.179 A 
ATOM      3  N   LIG    1      -23.510  78.994  34.459  0.00  0.00    -0.211 NA
ATOM      4  C   LIG    1      -23.696  79.570  35.627  0.00  0.00    +0.126 A 
ATOM      5  C   LIG    1      -24.986  79.400  36.400  0.00  0.00    +0.063 A 
ATOM      6  C   LIG    1      -25.979  78.728  35.807  0.00  0.00    +0.118 A 
ATOM      7  N   LIG    1      -25.793  78.183  34.547  0.00  0.00    -0.220 N 
ATOM      8  N   LIG    1      -26.690  77.498  33.799  0.00  0.00    -0.171 NA
ATOM      9  C   LIG    1      -26.007  77.146  32.705  0.00  0.00    +0.160 A 
ENDROOT
BRANCH   4  10
ATOM     10  N   LIG    1      -22.691  80.359  36.177  0.00  0.00    -0.308 N 
ATOM     11  C   LIG    1      -21.574  80.879  35.359  0.00  0.00    +0.108 C 
ATOM     12  C   LIG    1      -21.244  82.259  35.965  0.00  0.00    +0.029 C 
ATOM     13  C   LIG    1      -22.472  82.617  36.781  0.00  0.00    +0.021 C 
ATOM     14  C   LIG    1      -22.943  81.269  37.294  0.00  0.00    +0.107 C 
BRANCH  11  15
ATOM     15  C   LIG    1      -20.358  79.978  35.427  0.00  0.00    +0.011 A 
ATOM     16  C   LIG    1      -20.028  79.183  34.322  0.00  0.00    +0.129 A 
ATOM     17  F   LIG    1      -20.812  79.195  33.235  0.00  0.00    -0.205 F 
ATOM     18  C   LIG    1      -18.879  78.390  34.308  0.00  0.00    +0.041 A 
ATOM     19  C   LIG    1      -18.029  78.388  35.411  0.00  0.00    +0.041 A 
ATOM     20  C   LIG    1      -18.341  79.176  36.512  0.00  0.00    +0.124 A 
ATOM     21  F   LIG    1      -17.516  79.191  37.568  0.00  0.00    -0.205 F 
ATOM     22  C   LIG    1      -19.487  79.965  36.529  0.00  0.00    +0.046 A 
ENDBRANCH  11  15
ENDBRANCH   4  10
BRANCH   1  24
ATOM     23  C   LIG    1      -23.769  77.239  30.483  0.00  0.00    +0.326 C 
ATOM     24  N   LIG    1      -23.621  77.451  31.839  0.00  0.00    -0.272 N 
ATOM     25  H   LIG    1      -22.698  77.448  32.258  0.00  0.00    +0.155 HD
ATOM     26  O   LIG    1      -24.812  77.140  29.853  0.00  0.00    -0.263 OA
BRANCH  23  27
ATOM     27  C   LIG    1      -22.425  77.102  29.743  0.00  0.00    +0.395 C 
ATOM     28  O   LIG    1      -22.272  76.388  28.774  0.00  0.00    -0.240 OA
BRANCH  27  30
ATOM     29  C   LIG    1      -20.210  77.377  30.482  0.00  0.00    +0.280 C 
ATOM     30  O   LIG    1      -21.521  77.927  30.320  0.00  0.00    -0.461 OA
ENDBRANCH  27  30
ENDBRANCH  23  27
ENDBRANCH   1  24
TORSDOF 5
ENDMDL
MODEL 4
REMARK VINA RESULT:      -5.9     18.375     20.343
REMARK  Name = pdb/CHEMBL3910457.pdb
REMARK                            x       y       z     vdW  Elec       q    Type
REMARK                         _______ _______ _______ _____ _____    ______ ____
ROOT
ATOM      1  C   LIG    1      -37.744  76.098  25.147  0.00  0.00    +0.099 A 
ATOM      2  C   LIG    1      -38.437  74.939  24.866  0.00  0.00    +0.179 A 
ATOM      3  N   LIG    1      -38.109  73.618  25.039  0.00  0.00    -0.211 NA
ATOM      4  C   LIG    1      -38.986  72.711  24.666  0.00  0.00    +0.126 A 
ATOM      5  C   LIG    1      -40.280  73.092  23.979  0.00  0.00    +0.063 A 
ATOM      6  C   LIG    1      -40.555  74.395  23.856  0.00  0.00    +0.118 A 
ATOM      7  N   LIG    1      -39.652  75.342  24.313  0.00  0.00    -0.220 N 
ATOM      8  N   LIG    1      -39.779  76.690  24.288  0.00  0.00    -0.171 NA
ATOM      9  C   LIG    1      -38.624  77.139  24.791  0.00  0.00    +0.160 A 
ENDROOT
BRANCH   4  10
ATOM     10  N   LIG    1      -38.733  71.364  24.904  0.00  0.00    -0.308 N 
ATOM     11  C   LIG    1      -37.933  70.545  23.967  0.00  0.00    +0.108 C 
ATOM     12  C   LIG    1      -37.172  69.545  24.861  0.00  0.00    +0.029 C 
ATOM     13  C   LIG    1      -37.241  70.150  26.250  0.00  0.00    +0.021 C 
ATOM     14  C   LIG    1      -38.600  70.827  26.258  0.00  0.00    +0.107 C 
BRANCH  11  15
ATOM     15  C   LIG    1      -38.810  69.800  22.982  0.00  0.00    +0.011 A 
ATOM     16  C   LIG    1      -38.227  69.203  21.857  0.00  0.00    +0.129 A 
ATOM     17  F   LIG    1      -36.911  69.335  21.640  0.00  0.00    -0.205 F 
ATOM     18  C   LIG    1      -38.979  68.445  20.957  0.00  0.00    +0.041 A 
ATOM     19  C   LIG    1      -40.342  68.264  21.179  0.00  0.00    +0.041 A 
ATOM     20  C   LIG    1      -40.933  68.844  22.295  0.00  0.00    +0.124 A 
ATOM     21  F   LIG    1      -42.239  68.657  22.523  0.00  0.00    -0.205 F 
ATOM     22  C   LIG    1      -40.185  69.602  23.191  0.00  0.00    +0.046 A 
ENDBRANCH  11  15
ENDBRANCH   4  10
BRANCH   1  24
ATOM     23  C   LIG    1      -36.143  76.513  26.951  0.00  0.00    +0.326 C 
ATOM     24  N   LIG    1      -36.463  76.096  25.674  0.00  0.00    -0.272 N 
ATOM     25  H   LIG    1      -35.731  75.819  25.029  0.00  0.00    +0.155 HD
ATOM     26  O   LIG    1      -36.902  76.945  27.806  0.00  0.00    -0.263 OA
BRANCH  23  27
ATOM     27  C   LIG    1      -34.637  76.410  27.259  0.00  0.00    +0.395 C 
ATOM     28  O   LIG    1      -34.115  75.399  27.681  0.00  0.00    -0.240 OA
BRANCH  27  30
ATOM     29  C   LIG    1      -32.615  77.536  26.848  0.00  0.00    +0.280 C 
ATOM     30  O   LIG    1      -34.043  77.581  26.934  0.00  0.00    -0.461 OA
ENDBRANCH  27  30
ENDBRANCH  23  27
ENDBRANCH   1  24
TORSDOF 5
ENDMDL
MODEL 5
REMARK VINA RESULT:      -5.6     13.740     16.263
REMARK  Name = pdb/CHEMBL3910457.pdb
REMARK                            x       y       z     vdW  Elec       q    Type
REMARK                         _______ _______ _______ _____ _____    ______ ____
ROOT
ATOM      1  C   LIG    1      -24.923  84.445  11.562  0.00  0.00    +0.099 A 
ATOM      2  C   LIG    1      -25.083  83.076  11.622  0.00  0.00    +0.179 A 
ATOM      3  N   LIG    1      -24.799  82.169  12.611  0.00  0.00    -0.211 NA
ATOM      4  C   LIG    1      -25.060  80.901  12.377  0.00  0.00    +0.126 A 
ATOM      5  C   LIG    1      -25.568  80.428  11.032  0.00  0.00    +0.063 A 
ATOM      6  C   LIG    1      -25.845  81.360  10.113  0.00  0.00    +0.118 A 
ATOM      7  N   LIG    1      -25.628  82.699  10.395  0.00  0.00    -0.220 N 
ATOM      8  N   LIG    1      -25.872  83.765   9.596  0.00  0.00    -0.171 NA
ATOM      9  C   LIG    1      -25.442  84.815  10.306  0.00  0.00    +0.160 A 
ENDROOT
BRANCH   4  10
ATOM     10  N   LIG    1      -24.872  79.959  13.384  0.00  0.00    -0.308 N 
ATOM     11  C   LIG    1      -24.749  80.352  14.804  0.00  0.00    +0.108 C 
ATOM     12  C   LIG    1      -25.409  79.202  15.595  0.00  0.00    +0.029 C 
ATOM     13  C   LIG    1      -26.248  78.469  14.566  0.00  0.00    +0.021 C 
ATOM     14  C   LIG    1      -25.427  78.609  13.297  0.00  0.00    +0.107 C 
BRANCH  11  15
ATOM     15  C   LIG    1      -23.301  80.507  15.223  0.00  0.00    +0.011 A 
ATOM     16  C   LIG    1      -22.817  81.774  15.568  0.00  0.00    +0.129 A 
ATOM     17  F   LIG    1      -23.623  82.841  15.482  0.00  0.00    -0.205 F 
ATOM     18  C   LIG    1      -21.511  81.959  16.028  0.00  0.00    +0.041 A 
ATOM     19  C   LIG    1      -20.665  80.861  16.160  0.00  0.00    +0.041 A 
ATOM     20  C   LIG    1      -21.134  79.596  15.828  0.00  0.00    +0.124 A 
ATOM     21  F   LIG    1      -20.330  78.535  15.970  0.00  0.00    -0.205 F 
ATOM     22  C   LIG    1      -22.433  79.411  15.366  0.00  0.00    +0.046 A 
ENDBRANCH  11  15
ENDBRANCH   4  10
BRANCH   1  24
ATOM     23  C   LIG    1      -23.009  85.246  12.859  0.00  0.00    +0.326 C 
ATOM     24  N   LIG    1      -24.362  85.179  12.594  0.00  0.00    -0.272 N 
ATOM     25  H   LIG    1      -25.025  85.638  13.209  0.00  0.00    +0.155 HD
ATOM     26  O   LIG    1      -22.104  84.687  12.258  0.00  0.00    -0.263 OA
BRANCH  23  27
ATOM     27  C   LIG    1      -22.675  86.129  14.076  0.00  0.00    +0.395 C 
ATOM     28  O   LIG    1      -22.501  85.682  15.190  0.00  0.00    -0.240 OA
BRANCH  27  30
ATOM     29  C   LIG    1      -22.500  88.384  14.719  0.00  0.00    +0.280 C 
ATOM     30  O   LIG    1      -22.567  87.414  13.668  0.00  0.00    -0.461 OA
ENDBRANCH  27  30
ENDBRANCH  23  27
ENDBRANCH   1  24
TORSDOF 5
ENDMDL
MODEL 6
REMARK VINA RESULT:      -5.6     18.291     20.278
REMARK  Name = pdb/CHEMBL3910457.pdb
REMARK                            x       y       z     vdW  Elec       q    Type
REMARK                         _______ _______ _______ _____ _____    ______ ____
ROOT
ATOM      1  C   LIG    1      -37.973  74.914  24.931  0.00  0.00    +0.099 A 
ATOM      2  C   LIG    1      -39.177  75.367  24.431  0.00  0.00    +0.179 A 
ATOM      3  N   LIG    1      -40.257  74.698  23.913  0.00  0.00    -0.211 NA
ATOM      4  C   LIG    1      -41.284  75.410  23.503  0.00  0.00    +0.126 A 
ATOM      5  C   LIG    1      -41.254  76.924  23.505  0.00  0.00    +0.063 A 
ATOM      6  C   LIG    1      -40.182  77.520  24.040  0.00  0.00    +0.118 A 
ATOM      7  N   LIG    1      -39.135  76.757  24.530  0.00  0.00    -0.220 N 
ATOM      8  N   LIG    1      -37.996  77.193  25.119  0.00  0.00    -0.171 NA
ATOM      9  C   LIG    1      -37.299  76.076  25.356  0.00  0.00    +0.160 A 
ENDROOT
BRANCH   4  10
ATOM     10  N   LIG    1      -42.435  74.770  23.054  0.00  0.00    -0.308 N 
ATOM     11  C   LIG    1      -42.817  73.426  23.539  0.00  0.00    +0.108 C 
ATOM     12  C   LIG    1      -44.360  73.438  23.571  0.00  0.00    +0.029 C 
ATOM     13  C   LIG    1      -44.728  74.908  23.536  0.00  0.00    +0.021 C 
ATOM     14  C   LIG    1      -43.636  75.511  22.671  0.00  0.00    +0.107 C 
BRANCH  11  15
ATOM     15  C   LIG    1      -42.324  72.332  22.615  0.00  0.00    +0.011 A 
ATOM     16  C   LIG    1      -41.383  71.408  23.084  0.00  0.00    +0.129 A 
ATOM     17  F   LIG    1      -40.895  71.526  24.326  0.00  0.00    -0.205 F 
ATOM     18  C   LIG    1      -40.950  70.339  22.295  0.00  0.00    +0.041 A 
ATOM     19  C   LIG    1      -41.468  70.174  21.013  0.00  0.00    +0.041 A 
ATOM     20  C   LIG    1      -42.408  71.079  20.537  0.00  0.00    +0.124 A 
ATOM     21  F   LIG    1      -42.923  70.914  19.312  0.00  0.00    -0.205 F 
ATOM     22  C   LIG    1      -42.838  72.146  21.320  0.00  0.00    +0.046 A 
ENDBRANCH  11  15
ENDBRANCH   4  10
BRANCH   1  24
ATOM     23  C   LIG    1      -37.631  72.788  26.093  0.00  0.00    +0.326 C 
ATOM     24  N   LIG    1      -37.630  73.572  24.957  0.00  0.00    -0.272 N 
ATOM     25  H   LIG    1      -37.307  73.192  24.074  0.00  0.00    +0.155 HD
ATOM     26  O   LIG    1      -37.918  73.126  27.232  0.00  0.00    -0.263 OA
BRANCH  23  27
ATOM     27  C   LIG    1      -37.194  71.336  25.824  0.00  0.00    +0.395 C 
ATOM     28  O   LIG    1      -37.256  70.460  26.661  0.00  0.00    -0.240 OA
BRANCH  27  30
ATOM     29  C   LIG    1      -37.491  70.229  23.771  0.00  0.00    +0.280 C 
ATOM     30  O   LIG    1      -36.805  71.227  24.533  0.00  0.00    -0.461 OA
ENDBRANCH  27  30
ENDBRANCH  23  27
ENDBRANCH   1  24
TORSDOF 5
ENDMDL
MODEL 7
REMARK VINA RESULT:      -5.6     15.682     17.831
REMARK  Name = pdb/CHEMBL3910457.pdb
REMARK                            x       y       z     vdW  Elec       q    Type
REMARK                         _______ _______ _______ _____ _____    ______ ____
ROOT
ATOM      1  C   LIG    1      -18.853  85.601  12.821  0.00  0.00    +0.099 A 
ATOM      2  C   LIG    1      -19.032  84.350  13.374  0.00  0.00    +0.179 A 
ATOM      3  N   LIG    1      -20.131  83.751  13.935  0.00  0.00    -0.211 NA
ATOM      4  C   LIG    1      -20.000  82.524  14.391  0.00  0.00    +0.126 A 
ATOM      5  C   LIG    1      -18.661  81.816  14.393  0.00  0.00    +0.063 A 
ATOM      6  C   LIG    1      -17.630  82.442  13.815  0.00  0.00    +0.118 A 
ATOM      7  N   LIG    1      -17.798  83.708  13.278  0.00  0.00    -0.220 N 
ATOM      8  N   LIG    1      -16.875  84.469  12.643  0.00  0.00    -0.171 NA
ATOM      9  C   LIG    1      -17.518  85.610  12.373  0.00  0.00    +0.160 A 
ENDROOT
BRANCH   4  10
ATOM     10  N   LIG    1      -21.109  81.847  14.887  0.00  0.00    -0.308 N 
ATOM     11  C   LIG    1      -21.014  80.953  16.061  0.00  0.00    +0.108 C 
ATOM     12  C   LIG    1      -22.365  81.110  16.792  0.00  0.00    +0.029 C 
ATOM     13  C   LIG    1      -22.944  82.398  16.242  0.00  0.00    +0.021 C 
ATOM     14  C   LIG    1      -22.459  82.404  14.805  0.00  0.00    +0.107 C 
BRANCH  11  15
ATOM     15  C   LIG    1      -20.808  79.508  15.655  0.00  0.00    +0.011 A 
ATOM     16  C   LIG    1      -19.655  78.833  16.075  0.00  0.00    +0.129 A 
ATOM     17  F   LIG    1      -18.728  79.482  16.793  0.00  0.00    -0.205 F 
ATOM     18  C   LIG    1      -19.452  77.482  15.787  0.00  0.00    +0.041 A 
ATOM     19  C   LIG    1      -20.417  76.776  15.073  0.00  0.00    +0.041 A 
ATOM     20  C   LIG    1      -21.569  77.431  14.656  0.00  0.00    +0.124 A 
ATOM     21  F   LIG    1      -22.508  76.752  13.985  0.00  0.00    -0.205 F 
ATOM     22  C   LIG    1      -21.772  78.778  14.938  0.00  0.00    +0.046 A 
ENDBRANCH  11  15
ENDBRANCH   4  10
BRANCH   1  24
ATOM     23  C   LIG    1      -20.175  87.405  13.815  0.00  0.00    +0.326 C 
ATOM     24  N   LIG    1      -19.861  86.551  12.777  0.00  0.00    -0.272 N 
ATOM     25  H   LIG    1      -20.420  86.549  11.931  0.00  0.00    +0.155 HD
ATOM     26  O   LIG    1      -19.645  87.468  14.915  0.00  0.00    -0.263 OA
BRANCH  23  27
ATOM     27  C   LIG    1      -21.349  88.347  13.487  0.00  0.00    +0.395 C 
ATOM     28  O   LIG    1      -22.303  88.496  14.222  0.00  0.00    -0.240 OA
BRANCH  27  30
ATOM     29  C   LIG    1      -22.230  89.565  11.680  0.00  0.00    +0.280 C 
ATOM     30  O   LIG    1      -21.092  88.976  12.318  0.00  0.00    -0.461 OA
ENDBRANCH  27  30
ENDBRANCH  23  27
ENDBRANCH   1  24
TORSDOF 5
ENDMDL
MODEL 8
REMARK VINA RESULT:      -5.5     14.529     16.469
REMARK  Name = pdb/CHEMBL3910457.pdb
REMARK                            x       y       z     vdW  Elec       q    Type
REMARK                         _______ _______ _______ _____ _____    ______ ____
ROOT
ATOM      1  C   LIG    1      -19.420  85.507  13.064  0.00  0.00    +0.099 A 
ATOM      2  C   LIG    1      -19.688  84.258  13.585  0.00  0.00    +0.179 A 
ATOM      3  N   LIG    1      -20.819  83.733  14.156  0.00  0.00    -0.211 NA
ATOM      4  C   LIG    1      -20.777  82.487  14.575  0.00  0.00    +0.126 A 
ATOM      5  C   LIG    1      -19.501  81.673  14.524  0.00  0.00    +0.063 A 
ATOM      6  C   LIG    1      -18.435  82.231  13.939  0.00  0.00    +0.118 A 
ATOM      7  N   LIG    1      -18.512  83.522  13.442  0.00  0.00    -0.220 N 
ATOM      8  N   LIG    1      -17.544  84.225  12.806  0.00  0.00    -0.171 NA
ATOM      9  C   LIG    1      -18.099  85.422  12.583  0.00  0.00    +0.160 A 
ENDROOT
BRANCH   4  10
ATOM     10  N   LIG    1      -21.927  81.886  15.078  0.00  0.00    -0.308 N 
ATOM     11  C   LIG    1      -22.424  80.596  14.553  0.00  0.00    +0.108 C 
ATOM     12  C   LIG    1      -23.043  79.881  15.773  0.00  0.00    +0.029 C 
ATOM     13  C   LIG    1      -22.459  80.604  16.971  0.00  0.00    +0.021 C 
ATOM     14  C   LIG    1      -22.331  82.033  16.476  0.00  0.00    +0.107 C 
BRANCH  11  15
ATOM     15  C   LIG    1      -23.473  80.791  13.478  0.00  0.00    +0.011 A 
ATOM     16  C   LIG    1      -23.719  79.762  12.561  0.00  0.00    +0.129 A 
ATOM     17  F   LIG    1      -22.996  78.635  12.615  0.00  0.00    -0.205 F 
ATOM     18  C   LIG    1      -24.724  79.865  11.597  0.00  0.00    +0.041 A 
ATOM     19  C   LIG    1      -25.513  81.011  11.542  0.00  0.00    +0.041 A 
ATOM     20  C   LIG    1      -25.285  82.038  12.450  0.00  0.00    +0.124 A 
ATOM     21  F   LIG    1      -26.053  83.134  12.414  0.00  0.00    -0.205 F 
ATOM     22  C   LIG    1      -24.282  81.939  13.410  0.00  0.00    +0.046 A 
ENDBRANCH  11  15
ENDBRANCH   4  10
BRANCH   1  24
ATOM     23  C   LIG    1      -20.458  87.481  14.071  0.00  0.00    +0.326 C 
ATOM     24  N   LIG    1      -20.348  86.536  13.071  0.00  0.00    -0.272 N 
ATOM     25  H   LIG    1      -21.009  86.526  12.303  0.00  0.00    +0.155 HD
ATOM     26  O   LIG    1      -19.787  87.571  15.089  0.00  0.00    -0.263 OA
BRANCH  23  27
ATOM     27  C   LIG    1      -21.587  88.498  13.818  0.00  0.00    +0.395 C 
ATOM     28  O   LIG    1      -22.540  88.626  14.558  0.00  0.00    -0.240 OA
BRANCH  27  30
ATOM     29  C   LIG    1      -22.361  89.336  11.763  0.00  0.00    +0.280 C 
ATOM     30  O   LIG    1      -21.293  89.212  12.708  0.00  0.00    -0.461 OA
ENDBRANCH  27  30
ENDBRANCH  23  27
ENDBRANCH   1  24
TORSDOF 5
ENDMDL
MODEL 9
REMARK VINA RESULT:      -5.5     18.403     20.678
REMARK  Name = pdb/CHEMBL3910457.pdb
REMARK                            x       y       z     vdW  Elec       q    Type
REMARK                         _______ _______ _______ _____ _____    ______ ____
ROOT
ATOM      1  C   LIG    1      -34.355  70.621  28.075  0.00  0.00    +0.099 A 
ATOM      2  C   LIG    1      -33.958  71.925  28.284  0.00  0.00    +0.179 A 
ATOM      3  N   LIG    1      -34.379  73.105  27.726  0.00  0.00    -0.211 NA
ATOM      4  C   LIG    1      -33.801  74.217  28.126  0.00  0.00    +0.126 A 
ATOM      5  C   LIG    1      -32.641  74.205  29.099  0.00  0.00    +0.063 A 
ATOM      6  C   LIG    1      -32.287  73.027  29.624  0.00  0.00    +0.118 A 
ATOM      7  N   LIG    1      -32.948  71.870  29.245  0.00  0.00    -0.220 N 
ATOM      8  N   LIG    1      -32.736  70.609  29.690  0.00  0.00    -0.171 NA
ATOM      9  C   LIG    1      -33.586  69.861  28.978  0.00  0.00    +0.160 A 
ENDROOT
BRANCH   4  10
ATOM     10  N   LIG    1      -34.257  75.444  27.653  0.00  0.00    -0.308 N 
ATOM     11  C   LIG    1      -35.553  76.011  28.086  0.00  0.00    +0.108 C 
ATOM     12  C   LIG    1      -35.329  77.538  28.119  0.00  0.00    +0.029 C 
ATOM     13  C   LIG    1      -33.821  77.698  28.141  0.00  0.00    +0.021 C 
ATOM     14  C   LIG    1      -33.342  76.529  27.300  0.00  0.00    +0.107 C 
BRANCH  11  15
ATOM     15  C   LIG    1      -36.668  75.670  27.120  0.00  0.00    +0.011 A 
ATOM     16  C   LIG    1      -37.607  74.692  27.470  0.00  0.00    +0.129 A 
ATOM     17  F   LIG    1      -37.485  74.038  28.633  0.00  0.00    -0.205 F 
ATOM     18  C   LIG    1      -38.694  74.392  26.646  0.00  0.00    +0.041 A 
ATOM     19  C   LIG    1      -38.863  75.083  25.448  0.00  0.00    +0.041 A 
ATOM     20  C   LIG    1      -37.943  76.060  25.091  0.00  0.00    +0.124 A 
ATOM     21  F   LIG    1      -38.112  76.740  23.949  0.00  0.00    -0.205 F 
ATOM     22  C   LIG    1      -36.858  76.359  25.909  0.00  0.00    +0.046 A 
ENDBRANCH  11  15
ENDBRANCH   4  10
BRANCH   1  24
ATOM     23  C   LIG    1      -35.062  69.973  25.824  0.00  0.00    +0.326 C 
ATOM     24  N   LIG    1      -35.322  70.272  27.147  0.00  0.00    -0.272 N 
ATOM     25  H   LIG    1      -36.277  70.305  27.484  0.00  0.00    +0.155 HD
ATOM     26  O   LIG    1      -33.978  69.969  25.260  0.00  0.00    -0.263 OA
BRANCH  23  27
ATOM     27  C   LIG    1      -36.332  69.631  25.022  0.00  0.00    +0.395 C 
ATOM     28  O   LIG    1      -36.994  68.634  25.224  0.00  0.00    -0.240 OA
BRANCH  27  30
ATOM     29  C   LIG    1      -37.614  71.538  24.523  0.00  0.00    +0.280 C 
ATOM     30  O   LIG    1      -36.576  70.628  24.142  0.00  0.00    -0.461 OA
ENDBRANCH  27  30
ENDBRANCH  23  27
ENDBRANCH   1  24
TORSDOF 5
ENDMDL
