MODEL 1
REMARK VINA RESULT:      -6.9      0.000      0.000
REMARK  Name = pdb/CHEMBL3671134.pdb
REMARK                            x       y       z     vdW  Elec       q    Type
REMARK                         _______ _______ _______ _____ _____    ______ ____
ROOT
ATOM      1  C   LIG    1      -22.773  76.777  30.745  0.00  0.00    +0.101 A 
ATOM      2  C   LIG    1      -21.783  77.305  31.553  0.00  0.00    +0.170 A 
ATOM      3  N   LIG    1      -21.774  77.698  32.869  0.00  0.00    -0.212 NA
ATOM      4  C   LIG    1      -20.652  78.176  33.371  0.00  0.00    +0.126 A 
ATOM      5  C   LIG    1      -19.402  78.312  32.526  0.00  0.00    +0.063 A 
ATOM      6  C   LIG    1      -19.467  77.911  31.253  0.00  0.00    +0.118 A 
ATOM      7  N   LIG    1      -20.650  77.409  30.743  0.00  0.00    -0.221 N 
ATOM      8  N   LIG    1      -20.876  76.977  29.481  0.00  0.00    -0.173 NA
ATOM      9  C   LIG    1      -22.161  76.627  29.484  0.00  0.00    +0.150 A 
ENDROOT
BRANCH   4  10
ATOM     10  N   LIG    1      -20.615  78.568  34.705  0.00  0.00    -0.308 N 
ATOM     11  C   LIG    1      -20.476  79.974  35.128  0.00  0.00    +0.108 C 
ATOM     12  C   LIG    1      -19.482  79.889  36.298  0.00  0.00    +0.029 C 
ATOM     13  C   LIG    1      -19.815  78.562  36.952  0.00  0.00    +0.021 C 
ATOM     14  C   LIG    1      -20.126  77.665  35.759  0.00  0.00    +0.107 C 
BRANCH  11  15
ATOM     15  C   LIG    1      -21.802  80.605  35.517  0.00  0.00    +0.011 A 
ATOM     16  C   LIG    1      -21.814  81.908  36.039  0.00  0.00    +0.129 A 
ATOM     17  F   LIG    1      -20.666  82.591  36.147  0.00  0.00    -0.205 F 
ATOM     18  C   LIG    1      -22.992  82.523  36.466  0.00  0.00    +0.041 A 
ATOM     19  C   LIG    1      -24.199  81.840  36.367  0.00  0.00    +0.041 A 
ATOM     20  C   LIG    1      -24.213  80.565  35.815  0.00  0.00    +0.124 A 
ATOM     21  F   LIG    1      -25.374  79.905  35.715  0.00  0.00    -0.205 F 
ATOM     22  C   LIG    1      -23.039  79.953  35.377  0.00  0.00    +0.046 A 
ENDBRANCH  11  15
ENDBRANCH   4  10
BRANCH   1  25
ATOM     23  N   LIG    1      -24.794  77.373  31.841  0.00  0.00    -0.265 N 
ATOM     24  H   LIG    1      -24.433  78.316  31.869  0.00  0.00    +0.157 HD
ATOM     25  C   LIG    1      -24.147  76.435  31.062  0.00  0.00    +0.254 C 
ATOM     26  O   LIG    1      -24.635  75.399  30.656  0.00  0.00    -0.270 OA
BRANCH  23  30
ATOM     27  C   LIG    1      -29.470  76.707  31.586  0.00  0.00    +0.172 C 
ATOM     28  N   LIG    1      -28.171  76.896  32.185  0.00  0.00    -0.273 N 
ATOM     29  N   LIG    1      -27.107  77.206  31.418  0.00  0.00    -0.156 NA
ATOM     30  C   LIG    1      -26.080  77.181  32.276  0.00  0.00    +0.147 A 
ATOM     31  C   LIG    1      -26.526  77.009  33.608  0.00  0.00    +0.065 A 
ATOM     32  C   LIG    1      -27.886  76.847  33.516  0.00  0.00    +0.110 A 
ENDBRANCH  23  30
ENDBRANCH   1  25
TORSDOF 4
ENDMDL
MODEL 2
REMARK VINA RESULT:      -6.3      1.591      2.110
REMARK  Name = pdb/CHEMBL3671134.pdb
REMARK                            x       y       z     vdW  Elec       q    Type
REMARK                         _______ _______ _______ _____ _____    ______ ____
ROOT
ATOM      1  C   LIG    1      -22.915  77.037  30.571  0.00  0.00    +0.101 A 
ATOM      2  C   LIG    1      -21.961  77.570  31.418  0.00  0.00    +0.170 A 
ATOM      3  N   LIG    1      -22.049  78.168  32.651  0.00  0.00    -0.212 NA
ATOM      4  C   LIG    1      -20.937  78.587  33.224  0.00  0.00    +0.126 A 
ATOM      5  C   LIG    1      -19.592  78.437  32.542  0.00  0.00    +0.063 A 
ATOM      6  C   LIG    1      -19.566  77.845  31.344  0.00  0.00    +0.118 A 
ATOM      7  N   LIG    1      -20.739  77.408  30.761  0.00  0.00    -0.221 N 
ATOM      8  N   LIG    1      -20.877  76.806  29.557  0.00  0.00    -0.173 NA
ATOM      9  C   LIG    1      -22.189  76.613  29.439  0.00  0.00    +0.150 A 
ENDROOT
BRANCH   4  10
ATOM     10  N   LIG    1      -20.999  79.184  34.478  0.00  0.00    -0.308 N 
ATOM     11  C   LIG    1      -21.982  80.226  34.826  0.00  0.00    +0.108 C 
ATOM     12  C   LIG    1      -21.149  81.234  35.635  0.00  0.00    +0.029 C 
ATOM     13  C   LIG    1      -20.151  80.361  36.371  0.00  0.00    +0.021 C 
ATOM     14  C   LIG    1      -19.810  79.293  35.338  0.00  0.00    +0.107 C 
BRANCH  11  15
ATOM     15  C   LIG    1      -23.171  79.680  35.599  0.00  0.00    +0.011 A 
ATOM     16  C   LIG    1      -24.339  79.332  34.904  0.00  0.00    +0.129 A 
ATOM     17  F   LIG    1      -24.376  79.444  33.568  0.00  0.00    -0.205 F 
ATOM     18  C   LIG    1      -25.483  78.877  35.560  0.00  0.00    +0.041 A 
ATOM     19  C   LIG    1      -25.475  78.748  36.945  0.00  0.00    +0.041 A 
ATOM     20  C   LIG    1      -24.315  79.049  37.648  0.00  0.00    +0.124 A 
ATOM     21  F   LIG    1      -24.303  78.925  38.981  0.00  0.00    -0.205 F 
ATOM     22  C   LIG    1      -23.167  79.494  36.992  0.00  0.00    +0.046 A 
ENDBRANCH  11  15
ENDBRANCH   4  10
BRANCH   1  25
ATOM     23  N   LIG    1      -24.724  76.452  31.995  0.00  0.00    -0.265 N 
ATOM     24  H   LIG    1      -24.072  76.538  32.763  0.00  0.00    +0.157 HD
ATOM     25  C   LIG    1      -24.350  76.912  30.748  0.00  0.00    +0.254 C 
ATOM     26  O   LIG    1      -25.111  77.195  29.845  0.00  0.00    -0.270 OA
BRANCH  23  30
ATOM     27  C   LIG    1      -29.151  77.421  33.351  0.00  0.00    +0.172 C 
ATOM     28  N   LIG    1      -28.017  76.635  32.928  0.00  0.00    -0.273 N 
ATOM     29  N   LIG    1      -26.794  77.195  32.841  0.00  0.00    -0.156 NA
ATOM     30  C   LIG    1      -26.038  76.225  32.313  0.00  0.00    +0.147 A 
ATOM     31  C   LIG    1      -26.754  75.009  32.215  0.00  0.00    +0.065 A 
ATOM     32  C   LIG    1      -28.027  75.303  32.640  0.00  0.00    +0.110 A 
ENDBRANCH  23  30
ENDBRANCH   1  25
TORSDOF 4
ENDMDL
MODEL 3
REMARK VINA RESULT:      -6.2     19.701     22.278
REMARK  Name = pdb/CHEMBL3671134.pdb
REMARK                            x       y       z     vdW  Elec       q    Type
REMARK                         _______ _______ _______ _____ _____    ______ ____
ROOT
ATOM      1  C   LIG    1      -32.022  93.735  22.974  0.00  0.00    +0.101 A 
ATOM      2  C   LIG    1      -32.332  93.372  21.677  0.00  0.00    +0.170 A 
ATOM      3  N   LIG    1      -33.365  92.643  21.141  0.00  0.00    -0.212 NA
ATOM      4  C   LIG    1      -33.390  92.460  19.835  0.00  0.00    +0.126 A 
ATOM      5  C   LIG    1      -32.304  93.017  18.938  0.00  0.00    +0.063 A 
ATOM      6  C   LIG    1      -31.324  93.722  19.513  0.00  0.00    +0.118 A 
ATOM      7  N   LIG    1      -31.315  93.908  20.882  0.00  0.00    -0.221 N 
ATOM      8  N   LIG    1      -30.393  94.581  21.608  0.00  0.00    -0.173 NA
ATOM      9  C   LIG    1      -30.810  94.447  22.865  0.00  0.00    +0.150 A 
ENDROOT
BRANCH   4  10
ATOM     10  N   LIG    1      -34.433  91.736  19.268  0.00  0.00    -0.308 N 
ATOM     11  C   LIG    1      -34.807  91.842  17.846  0.00  0.00    +0.108 C 
ATOM     12  C   LIG    1      -36.344  91.861  17.891  0.00  0.00    +0.029 C 
ATOM     13  C   LIG    1      -36.677  90.956  19.060  0.00  0.00    +0.021 C 
ATOM     14  C   LIG    1      -35.584  91.290  20.069  0.00  0.00    +0.107 C 
BRANCH  11  15
ATOM     15  C   LIG    1      -34.250  90.705  17.005  0.00  0.00    +0.011 A 
ATOM     16  C   LIG    1      -34.294  90.802  15.606  0.00  0.00    +0.129 A 
ATOM     17  F   LIG    1      -34.785  91.910  15.032  0.00  0.00    -0.205 F 
ATOM     18  C   LIG    1      -33.850  89.771  14.778  0.00  0.00    +0.041 A 
ATOM     19  C   LIG    1      -33.334  88.609  15.344  0.00  0.00    +0.041 A 
ATOM     20  C   LIG    1      -33.244  88.511  16.727  0.00  0.00    +0.124 A 
ATOM     21  F   LIG    1      -32.747  87.395  17.275  0.00  0.00    -0.205 F 
ATOM     22  C   LIG    1      -33.678  89.546  17.555  0.00  0.00    +0.046 A 
ENDBRANCH  11  15
ENDBRANCH   4  10
BRANCH   1  25
ATOM     23  N   LIG    1      -32.236  92.409  24.934  0.00  0.00    -0.265 N 
ATOM     24  H   LIG    1      -31.286  92.108  24.763  0.00  0.00    +0.157 HD
ATOM     25  C   LIG    1      -32.737  93.473  24.209  0.00  0.00    +0.254 C 
ATOM     26  O   LIG    1      -33.691  94.154  24.528  0.00  0.00    -0.270 OA
BRANCH  23  30
ATOM     27  C   LIG    1      -34.899  89.764  27.811  0.00  0.00    +0.172 C 
ATOM     28  N   LIG    1      -34.020  90.831  27.398  0.00  0.00    -0.273 N 
ATOM     29  N   LIG    1      -33.748  91.021  26.092  0.00  0.00    -0.156 NA
ATOM     30  C   LIG    1      -32.826  91.992  26.098  0.00  0.00    +0.147 A 
ATOM     31  C   LIG    1      -32.639  92.515  27.399  0.00  0.00    +0.065 A 
ATOM     32  C   LIG    1      -33.440  91.755  28.215  0.00  0.00    +0.110 A 
ENDBRANCH  23  30
ENDBRANCH   1  25
TORSDOF 4
ENDMDL
MODEL 4
REMARK VINA RESULT:      -6.1     13.073     19.498
REMARK  Name = pdb/CHEMBL3671134.pdb
REMARK                            x       y       z     vdW  Elec       q    Type
REMARK                         _______ _______ _______ _____ _____    ______ ____
ROOT
ATOM      1  C   LIG    1      -38.447  76.375  25.542  0.00  0.00    +0.101 A 
ATOM      2  C   LIG    1      -38.765  75.112  25.077  0.00  0.00    +0.170 A 
ATOM      3  N   LIG    1      -38.109  73.908  25.146  0.00  0.00    -0.212 NA
ATOM      4  C   LIG    1      -38.678  72.854  24.593  0.00  0.00    +0.126 A 
ATOM      5  C   LIG    1      -40.011  72.957  23.881  0.00  0.00    +0.063 A 
ATOM      6  C   LIG    1      -40.605  74.153  23.847  0.00  0.00    +0.118 A 
ATOM      7  N   LIG    1      -39.998  75.247  24.434  0.00  0.00    -0.221 N 
ATOM      8  N   LIG    1      -40.464  76.516  24.472  0.00  0.00    -0.173 NA
ATOM      9  C   LIG    1      -39.513  77.191  25.114  0.00  0.00    +0.150 A 
ENDROOT
BRANCH   4  10
ATOM     10  N   LIG    1      -38.039  71.620  24.663  0.00  0.00    -0.308 N 
ATOM     11  C   LIG    1      -38.758  70.335  24.586  0.00  0.00    +0.108 C 
ATOM     12  C   LIG    1      -38.067  69.485  25.666  0.00  0.00    +0.029 C 
ATOM     13  C   LIG    1      -36.626  69.954  25.619  0.00  0.00    +0.021 C 
ATOM     14  C   LIG    1      -36.765  71.453  25.380  0.00  0.00    +0.107 C 
BRANCH  11  15
ATOM     15  C   LIG    1      -38.697  69.708  23.203  0.00  0.00    +0.011 A 
ATOM     16  C   LIG    1      -39.882  69.546  22.471  0.00  0.00    +0.129 A 
ATOM     17  F   LIG    1      -41.043  69.986  22.979  0.00  0.00    -0.205 F 
ATOM     18  C   LIG    1      -39.901  68.928  21.220  0.00  0.00    +0.041 A 
ATOM     19  C   LIG    1      -38.713  68.463  20.665  0.00  0.00    +0.041 A 
ATOM     20  C   LIG    1      -37.523  68.650  21.358  0.00  0.00    +0.124 A 
ATOM     21  F   LIG    1      -36.377  68.205  20.826  0.00  0.00    -0.205 F 
ATOM     22  C   LIG    1      -37.501  69.278  22.603  0.00  0.00    +0.046 A 
ENDBRANCH  11  15
ENDBRANCH   4  10
BRANCH   1  25
ATOM     23  N   LIG    1      -36.323  75.855  26.470  0.00  0.00    -0.265 N 
ATOM     24  H   LIG    1      -36.303  75.069  25.836  0.00  0.00    +0.157 HD
ATOM     25  C   LIG    1      -37.294  76.822  26.302  0.00  0.00    +0.254 C 
ATOM     26  O   LIG    1      -37.241  77.956  26.734  0.00  0.00    -0.270 OA
BRANCH  23  30
ATOM     27  C   LIG    1      -32.371  78.038  27.881  0.00  0.00    +0.172 C 
ATOM     28  N   LIG    1      -33.419  77.046  27.846  0.00  0.00    -0.273 N 
ATOM     29  N   LIG    1      -34.330  77.053  26.853  0.00  0.00    -0.156 NA
ATOM     30  C   LIG    1      -35.193  76.094  27.209  0.00  0.00    +0.147 A 
ATOM     31  C   LIG    1      -34.734  75.382  28.342  0.00  0.00    +0.065 A 
ATOM     32  C   LIG    1      -33.573  76.011  28.719  0.00  0.00    +0.110 A 
ENDBRANCH  23  30
ENDBRANCH   1  25
TORSDOF 4
ENDMDL
MODEL 5
REMARK VINA RESULT:      -6.1     18.564     21.778
REMARK  Name = pdb/CHEMBL3671134.pdb
REMARK                            x       y       z     vdW  Elec       q    Type
REMARK                         _______ _______ _______ _____ _____    ______ ____
ROOT
ATOM      1  C   LIG    1      -40.065  68.884  21.386  0.00  0.00    +0.101 A 
ATOM      2  C   LIG    1      -39.379  69.489  22.423  0.00  0.00    +0.170 A 
ATOM      3  N   LIG    1      -39.723  70.486  23.303  0.00  0.00    -0.212 NA
ATOM      4  C   LIG    1      -38.833  70.860  24.202  0.00  0.00    +0.126 A 
ATOM      5  C   LIG    1      -37.457  70.230  24.262  0.00  0.00    +0.063 A 
ATOM      6  C   LIG    1      -37.178  69.263  23.383  0.00  0.00    +0.118 A 
ATOM      7  N   LIG    1      -38.123  68.880  22.450  0.00  0.00    -0.221 N 
ATOM      8  N   LIG    1      -37.988  67.933  21.494  0.00  0.00    -0.173 NA
ATOM      9  C   LIG    1      -39.148  67.962  20.842  0.00  0.00    +0.150 A 
ENDROOT
BRANCH   4  10
ATOM     10  N   LIG    1      -39.164  71.858  25.113  0.00  0.00    -0.308 N 
ATOM     11  C   LIG    1      -38.630  73.230  25.032  0.00  0.00    +0.108 C 
ATOM     12  C   LIG    1      -38.310  73.566  26.499  0.00  0.00    +0.029 C 
ATOM     13  C   LIG    1      -39.392  72.841  27.274  0.00  0.00    +0.021 C 
ATOM     14  C   LIG    1      -39.552  71.539  26.496  0.00  0.00    +0.107 C 
BRANCH  11  15
ATOM     15  C   LIG    1      -39.608  74.205  24.398  0.00  0.00    +0.011 A 
ATOM     16  C   LIG    1      -39.297  75.574  24.381  0.00  0.00    +0.129 A 
ATOM     17  F   LIG    1      -38.128  75.996  24.884  0.00  0.00    -0.205 F 
ATOM     18  C   LIG    1      -40.176  76.525  23.863  0.00  0.00    +0.041 A 
ATOM     19  C   LIG    1      -41.396  76.118  23.333  0.00  0.00    +0.041 A 
ATOM     20  C   LIG    1      -41.704  74.764  23.304  0.00  0.00    +0.124 A 
ATOM     21  F   LIG    1      -42.877  74.368  22.793  0.00  0.00    -0.205 F 
ATOM     22  C   LIG    1      -40.822  73.810  23.811  0.00  0.00    +0.046 A 
ENDBRANCH  11  15
ENDBRANCH   4  10
BRANCH   1  25
ATOM     23  N   LIG    1      -41.703  70.420  20.610  0.00  0.00    -0.265 N 
ATOM     24  H   LIG    1      -40.936  71.052  20.421  0.00  0.00    +0.157 HD
ATOM     25  C   LIG    1      -41.420  69.103  20.915  0.00  0.00    +0.254 C 
ATOM     26  O   LIG    1      -42.200  68.176  20.822  0.00  0.00    -0.270 OA
BRANCH  23  30
ATOM     27  C   LIG    1      -45.401  71.010  17.721  0.00  0.00    +0.172 C 
ATOM     28  N   LIG    1      -44.609  71.096  18.924  0.00  0.00    -0.273 N 
ATOM     29  N   LIG    1      -43.318  70.710  18.919  0.00  0.00    -0.156 NA
ATOM     30  C   LIG    1      -42.952  70.811  20.202  0.00  0.00    +0.147 A 
ATOM     31  C   LIG    1      -43.969  71.408  20.983  0.00  0.00    +0.065 A 
ATOM     32  C   LIG    1      -45.022  71.598  20.122  0.00  0.00    +0.110 A 
ENDBRANCH  23  30
ENDBRANCH   1  25
TORSDOF 4
ENDMDL
MODEL 6
REMARK VINA RESULT:      -6.1     11.838     14.786
REMARK  Name = pdb/CHEMBL3671134.pdb
REMARK                            x       y       z     vdW  Elec       q    Type
REMARK                         _______ _______ _______ _____ _____    ______ ____
ROOT
ATOM      1  C   LIG    1      -35.493  70.402  25.723  0.00  0.00    +0.101 A 
ATOM      2  C   LIG    1      -34.784  70.709  26.869  0.00  0.00    +0.170 A 
ATOM      3  N   LIG    1      -34.740  71.834  27.657  0.00  0.00    -0.212 NA
ATOM      4  C   LIG    1      -33.947  71.828  28.711  0.00  0.00    +0.126 A 
ATOM      5  C   LIG    1      -33.088  70.626  29.047  0.00  0.00    +0.063 A 
ATOM      6  C   LIG    1      -33.173  69.559  28.248  0.00  0.00    +0.118 A 
ATOM      7  N   LIG    1      -34.012  69.580  27.150  0.00  0.00    -0.221 N 
ATOM      8  N   LIG    1      -34.198  68.590  26.246  0.00  0.00    -0.173 NA
ATOM      9  C   LIG    1      -35.067  69.104  25.378  0.00  0.00    +0.150 A 
ENDROOT
BRANCH   4  10
ATOM     10  N   LIG    1      -33.895  72.950  29.531  0.00  0.00    -0.308 N 
ATOM     11  C   LIG    1      -32.756  73.887  29.542  0.00  0.00    +0.108 C 
ATOM     12  C   LIG    1      -32.561  74.178  31.039  0.00  0.00    +0.029 C 
ATOM     13  C   LIG    1      -33.970  74.139  31.596  0.00  0.00    +0.021 C 
ATOM     14  C   LIG    1      -34.612  72.999  30.815  0.00  0.00    +0.107 C 
BRANCH  11  15
ATOM     15  C   LIG    1      -33.016  75.139  28.720  0.00  0.00    +0.011 A 
ATOM     16  C   LIG    1      -32.048  76.154  28.695  0.00  0.00    +0.129 A 
ATOM     17  F   LIG    1      -30.893  75.989  29.356  0.00  0.00    -0.205 F 
ATOM     18  C   LIG    1      -32.249  77.350  28.005  0.00  0.00    +0.041 A 
ATOM     19  C   LIG    1      -33.436  77.551  27.307  0.00  0.00    +0.041 A 
ATOM     20  C   LIG    1      -34.389  76.540  27.288  0.00  0.00    +0.124 A 
ATOM     21  F   LIG    1      -35.532  76.729  26.616  0.00  0.00    -0.205 F 
ATOM     22  C   LIG    1      -34.185  75.340  27.968  0.00  0.00    +0.046 A 
ENDBRANCH  11  15
ENDBRANCH   4  10
BRANCH   1  25
ATOM     23  N   LIG    1      -37.003  72.235  25.720  0.00  0.00    -0.265 N 
ATOM     24  H   LIG    1      -36.500  72.576  26.528  0.00  0.00    +0.157 HD
ATOM     25  C   LIG    1      -36.466  71.192  24.991  0.00  0.00    +0.254 C 
ATOM     26  O   LIG    1      -36.751  70.915  23.844  0.00  0.00    -0.270 OA
BRANCH  23  30
ATOM     27  C   LIG    1      -39.125  76.237  24.357  0.00  0.00    +0.172 C 
ATOM     28  N   LIG    1      -38.946  74.825  24.595  0.00  0.00    -0.273 N 
ATOM     29  N   LIG    1      -37.875  74.380  25.281  0.00  0.00    -0.156 NA
ATOM     30  C   LIG    1      -37.976  73.049  25.199  0.00  0.00    +0.147 A 
ATOM     31  C   LIG    1      -39.196  72.661  24.595  0.00  0.00    +0.065 A 
ATOM     32  C   LIG    1      -39.810  73.835  24.233  0.00  0.00    +0.110 A 
ENDBRANCH  23  30
ENDBRANCH   1  25
TORSDOF 4
ENDMDL
MODEL 7
REMARK VINA RESULT:      -6.0     13.792     18.234
REMARK  Name = pdb/CHEMBL3671134.pdb
REMARK                            x       y       z     vdW  Elec       q    Type
REMARK                         _______ _______ _______ _____ _____    ______ ____
ROOT
ATOM      1  C   LIG    1      -35.549  79.039  28.206  0.00  0.00    +0.101 A 
ATOM      2  C   LIG    1      -36.537  78.154  27.816  0.00  0.00    +0.170 A 
ATOM      3  N   LIG    1      -37.525  78.231  26.867  0.00  0.00    -0.212 NA
ATOM      4  C   LIG    1      -38.337  77.201  26.724  0.00  0.00    +0.126 A 
ATOM      5  C   LIG    1      -38.207  75.966  27.592  0.00  0.00    +0.063 A 
ATOM      6  C   LIG    1      -37.224  75.945  28.498  0.00  0.00    +0.118 A 
ATOM      7  N   LIG    1      -36.380  77.030  28.631  0.00  0.00    -0.221 N 
ATOM      8  N   LIG    1      -35.354  77.164  29.503  0.00  0.00    -0.173 NA
ATOM      9  C   LIG    1      -34.880  78.385  29.260  0.00  0.00    +0.150 A 
ENDROOT
BRANCH   4  10
ATOM     10  N   LIG    1      -39.338  77.250  25.760  0.00  0.00    -0.308 N 
ATOM     11  C   LIG    1      -39.162  76.734  24.390  0.00  0.00    +0.108 C 
ATOM     12  C   LIG    1      -39.837  77.810  23.523  0.00  0.00    +0.029 C 
ATOM     13  C   LIG    1      -40.986  78.293  24.387  0.00  0.00    +0.021 C 
ATOM     14  C   LIG    1      -40.383  78.286  25.788  0.00  0.00    +0.107 C 
BRANCH  11  15
ATOM     15  C   LIG    1      -39.765  75.351  24.200  0.00  0.00    +0.011 A 
ATOM     16  C   LIG    1      -38.984  74.220  24.478  0.00  0.00    +0.129 A 
ATOM     17  F   LIG    1      -37.737  74.371  24.948  0.00  0.00    -0.205 F 
ATOM     18  C   LIG    1      -39.459  72.924  24.273  0.00  0.00    +0.041 A 
ATOM     19  C   LIG    1      -40.749  72.734  23.788  0.00  0.00    +0.041 A 
ATOM     20  C   LIG    1      -41.552  73.842  23.545  0.00  0.00    +0.124 A 
ATOM     21  F   LIG    1      -42.795  73.663  23.081  0.00  0.00    -0.205 F 
ATOM     22  C   LIG    1      -41.082  75.137  23.761  0.00  0.00    +0.046 A 
ENDBRANCH  11  15
ENDBRANCH   4  10
BRANCH   1  25
ATOM     23  N   LIG    1      -36.213  81.298  27.890  0.00  0.00    -0.265 N 
ATOM     24  H   LIG    1      -36.902  81.135  28.610  0.00  0.00    +0.157 HD
ATOM     25  C   LIG    1      -35.223  80.356  27.690  0.00  0.00    +0.254 C 
ATOM     26  O   LIG    1      -34.162  80.557  27.134  0.00  0.00    -0.270 OA
BRANCH  23  30
ATOM     27  C   LIG    1      -35.150  85.907  27.900  0.00  0.00    +0.172 C 
ATOM     28  N   LIG    1      -35.636  84.641  27.405  0.00  0.00    -0.273 N 
ATOM     29  N   LIG    1      -35.734  83.580  28.230  0.00  0.00    -0.156 NA
ATOM     30  C   LIG    1      -36.091  82.579  27.417  0.00  0.00    +0.147 A 
ATOM     31  C   LIG    1      -36.367  83.049  26.112  0.00  0.00    +0.065 A 
ATOM     32  C   LIG    1      -36.081  84.391  26.142  0.00  0.00    +0.110 A 
ENDBRANCH  23  30
ENDBRANCH   1  25
TORSDOF 4
ENDMDL
MODEL 8
REMARK VINA RESULT:      -6.0      1.790      2.092
REMARK  Name = pdb/CHEMBL3671134.pdb
REMARK                            x       y       z     vdW  Elec       q    Type
REMARK                         _______ _______ _______ _____ _____    ______ ____
ROOT
ATOM      1  C   LIG    1      -23.095  77.135  30.711  0.00  0.00    +0.101 A 
ATOM      2  C   LIG    1      -22.277  77.512  31.760  0.00  0.00    +0.170 A 
ATOM      3  N   LIG    1      -22.517  77.696  33.100  0.00  0.00    -0.212 NA
ATOM      4  C   LIG    1      -21.512  78.067  33.869  0.00  0.00    +0.126 A 
ATOM      5  C   LIG    1      -20.128  78.306  33.302  0.00  0.00    +0.063 A 
ATOM      6  C   LIG    1      -19.952  78.109  31.992  0.00  0.00    +0.118 A 
ATOM      7  N   LIG    1      -21.014  77.716  31.200  0.00  0.00    -0.221 N 
ATOM      8  N   LIG    1      -20.998  77.489  29.867  0.00  0.00    -0.173 NA
ATOM      9  C   LIG    1      -22.258  77.169  29.577  0.00  0.00    +0.150 A 
ENDROOT
BRANCH   4  10
ATOM     10  N   LIG    1      -21.727  78.247  35.232  0.00  0.00    -0.308 N 
ATOM     11  C   LIG    1      -20.717  78.825  36.137  0.00  0.00    +0.108 C 
ATOM     12  C   LIG    1      -20.820  77.936  37.387  0.00  0.00    +0.029 C 
ATOM     13  C   LIG    1      -22.293  77.581  37.450  0.00  0.00    +0.021 C 
ATOM     14  C   LIG    1      -22.660  77.392  35.983  0.00  0.00    +0.107 C 
BRANCH  11  15
ATOM     15  C   LIG    1      -20.963  80.296  36.430  0.00  0.00    +0.011 A 
ATOM     16  C   LIG    1      -20.013  81.015  37.171  0.00  0.00    +0.129 A 
ATOM     17  F   LIG    1      -18.885  80.411  37.571  0.00  0.00    -0.205 F 
ATOM     18  C   LIG    1      -20.205  82.352  37.520  0.00  0.00    +0.041 A 
ATOM     19  C   LIG    1      -21.364  83.008  37.119  0.00  0.00    +0.041 A 
ATOM     20  C   LIG    1      -22.298  82.325  36.351  0.00  0.00    +0.124 A 
ATOM     21  F   LIG    1      -23.414  82.953  35.962  0.00  0.00    -0.205 F 
ATOM     22  C   LIG    1      -22.102  80.992  35.991  0.00  0.00    +0.046 A 
ENDBRANCH  11  15
ENDBRANCH   4  10
BRANCH   1  25
ATOM     23  N   LIG    1      -24.893  76.043  31.812  0.00  0.00    -0.265 N 
ATOM     24  H   LIG    1      -24.326  76.077  32.648  0.00  0.00    +0.157 HD
ATOM     25  C   LIG    1      -24.501  76.776  30.710  0.00  0.00    +0.254 C 
ATOM     26  O   LIG    1      -25.224  77.111  29.793  0.00  0.00    -0.270 OA
BRANCH  23  30
ATOM     27  C   LIG    1      -28.446  72.922  31.930  0.00  0.00    +0.172 C 
ATOM     28  N   LIG    1      -27.778  74.200  31.989  0.00  0.00    -0.273 N 
ATOM     29  N   LIG    1      -26.476  74.303  31.658  0.00  0.00    -0.156 NA
ATOM     30  C   LIG    1      -26.176  75.575  31.944  0.00  0.00    +0.147 A 
ATOM     31  C   LIG    1      -27.330  76.308  32.308  0.00  0.00    +0.065 A 
ATOM     32  C   LIG    1      -28.354  75.393  32.308  0.00  0.00    +0.110 A 
ENDBRANCH  23  30
ENDBRANCH   1  25
TORSDOF 4
ENDMDL
MODEL 9
REMARK VINA RESULT:      -6.0     12.092     16.161
REMARK  Name = pdb/CHEMBL3671134.pdb
REMARK                            x       y       z     vdW  Elec       q    Type
REMARK                         _______ _______ _______ _____ _____    ______ ____
ROOT
ATOM      1  C   LIG    1      -33.706  75.761  28.101  0.00  0.00    +0.101 A 
ATOM      2  C   LIG    1      -33.582  74.399  28.306  0.00  0.00    +0.170 A 
ATOM      3  N   LIG    1      -34.299  73.325  27.842  0.00  0.00    -0.212 NA
ATOM      4  C   LIG    1      -33.932  72.116  28.222  0.00  0.00    +0.126 A 
ATOM      5  C   LIG    1      -32.763  71.905  29.162  0.00  0.00    +0.063 A 
ATOM      6  C   LIG    1      -32.099  72.987  29.580  0.00  0.00    +0.118 A 
ATOM      7  N   LIG    1      -32.494  74.245  29.169  0.00  0.00    -0.221 N 
ATOM      8  N   LIG    1      -31.936  75.429  29.512  0.00  0.00    -0.173 NA
ATOM      9  C   LIG    1      -32.688  76.334  28.889  0.00  0.00    +0.150 A 
ENDROOT
BRANCH   4  10
ATOM     10  N   LIG    1      -34.635  71.011  27.755  0.00  0.00    -0.308 N 
ATOM     11  C   LIG    1      -36.091  70.852  27.926  0.00  0.00    +0.108 C 
ATOM     12  C   LIG    1      -36.237  69.369  28.304  0.00  0.00    +0.029 C 
ATOM     13  C   LIG    1      -35.132  68.691  27.518  0.00  0.00    +0.021 C 
ATOM     14  C   LIG    1      -33.990  69.698  27.600  0.00  0.00    +0.107 C 
BRANCH  11  15
ATOM     15  C   LIG    1      -36.875  71.229  26.679  0.00  0.00    +0.011 A 
ATOM     16  C   LIG    1      -37.782  72.298  26.738  0.00  0.00    +0.129 A 
ATOM     17  F   LIG    1      -37.912  72.998  27.873  0.00  0.00    -0.205 F 
ATOM     18  C   LIG    1      -38.571  72.658  25.645  0.00  0.00    +0.041 A 
ATOM     19  C   LIG    1      -38.457  71.952  24.451  0.00  0.00    +0.041 A 
ATOM     20  C   LIG    1      -37.536  70.916  24.362  0.00  0.00    +0.124 A 
ATOM     21  F   LIG    1      -37.422  70.236  23.215  0.00  0.00    -0.205 F 
ATOM     22  C   LIG    1      -36.738  70.562  25.450  0.00  0.00    +0.046 A 
ENDBRANCH  11  15
ENDBRANCH   4  10
BRANCH   1  25
ATOM     23  N   LIG    1      -35.863  75.859  27.112  0.00  0.00    -0.265 N 
ATOM     24  H   LIG    1      -36.137  75.150  27.777  0.00  0.00    +0.157 HD
ATOM     25  C   LIG    1      -34.649  76.495  27.278  0.00  0.00    +0.254 C 
ATOM     26  O   LIG    1      -34.344  77.568  26.796  0.00  0.00    -0.270 OA
BRANCH  23  30
ATOM     27  C   LIG    1      -39.330  78.783  25.769  0.00  0.00    +0.172 C 
ATOM     28  N   LIG    1      -38.407  77.675  25.706  0.00  0.00    -0.273 N 
ATOM     29  N   LIG    1      -37.647  77.362  26.774  0.00  0.00    -0.156 NA
ATOM     30  C   LIG    1      -36.849  76.389  26.319  0.00  0.00    +0.147 A 
ATOM     31  C   LIG    1      -37.217  75.988  25.013  0.00  0.00    +0.065 A 
ATOM     32  C   LIG    1      -38.242  76.828  24.652  0.00  0.00    +0.110 A 
ENDBRANCH  23  30
ENDBRANCH   1  25
TORSDOF 4
ENDMDL
