MODEL 1
REMARK VINA RESULT:      -7.0      0.000      0.000
REMARK  Name = pdb/CHEMBL3907673.pdb
REMARK                            x       y       z     vdW  Elec       q    Type
REMARK                         _______ _______ _______ _____ _____    ______ ____
ROOT
ATOM      1  C   LIG    1      -31.630  87.085  30.641  0.00  0.00    +0.149 A 
ATOM      2  N   LIG    1      -32.716  87.813  30.334  0.00  0.00    -0.160 NA
ATOM      3  N   LIG    1      -33.600  86.915  29.788  0.00  0.00    -0.218 N 
ATOM      4  C   LIG    1      -33.055  85.621  29.758  0.00  0.00    +0.129 A 
ATOM      5  C   LIG    1      -31.783  85.745  30.258  0.00  0.00    +0.078 A 
ENDROOT
BRANCH   3   6
ATOM      6  C   LIG    1      -34.880  87.376  29.347  0.00  0.00    +0.067 A 
ATOM      7  C   LIG    1      -35.051  88.087  28.152  0.00  0.00    +0.028 A 
ATOM      8  C   LIG    1      -36.323  88.524  27.761  0.00  0.00    +0.002 A 
ATOM      9  C   LIG    1      -37.437  88.241  28.547  0.00  0.00    +0.000 A 
ATOM     10  C   LIG    1      -37.283  87.525  29.729  0.00  0.00    +0.002 A 
ATOM     11  C   LIG    1      -36.014  87.089  30.129  0.00  0.00    +0.028 A 
ENDBRANCH   3   6
BRANCH   4  12
ATOM     12  N   LIG    1      -33.616  84.432  29.283  0.00  0.00    -0.266 N 
ATOM     13  H   LIG    1      -33.378  84.124  28.350  0.00  0.00    +0.157 HD
ATOM     14  C   LIG    1      -34.503  83.606  30.064  0.00  0.00    +0.251 C 
ATOM     15  O   LIG    1      -34.723  83.835  31.235  0.00  0.00    -0.270 OA
BRANCH  14  16
ATOM     16  C   LIG    1      -35.208  82.501  29.382  0.00  0.00    +0.056 A 
ATOM     17  C   LIG    1      -36.581  82.448  29.184  0.00  0.00    +0.054 A 
ATOM     18 CL   LIG    1      -37.662  83.709  29.650  0.00  0.00    -0.083 Cl
ATOM     19  C   LIG    1      -37.137  81.331  28.562  0.00  0.00    +0.041 A 
ATOM     20  C   LIG    1      -36.333  80.263  28.128  0.00  0.00    +0.052 A 
ATOM     21 CL   LIG    1      -37.211  78.919  27.483  0.00  0.00    -0.083 Cl
ATOM     22  C   LIG    1      -34.932  80.295  28.272  0.00  0.00    +0.019 A 
ATOM     23  C   LIG    1      -34.403  81.441  28.915  0.00  0.00    +0.026 A 
BRANCH  22  24
ATOM     24  C   LIG    1      -33.980  79.240  27.835  0.00  0.00    +0.072 A 
ATOM     25  N   LIG    1      -33.240  79.561  26.738  0.00  0.00    -0.255 NA
ATOM     26  C   LIG    1      -32.377  78.639  26.248  0.00  0.00    +0.111 A 
ATOM     27  C   LIG    1      -32.189  77.391  26.806  0.00  0.00    +0.020 A 
ATOM     28  C   LIG    1      -32.944  77.062  27.920  0.00  0.00    +0.004 A 
ATOM     29  C   LIG    1      -33.860  77.983  28.425  0.00  0.00    +0.028 A 
ENDBRANCH  22  24
ENDBRANCH  14  16
ENDBRANCH   4  12
BRANCH   1  30
ATOM     30  C   LIG    1      -30.453  87.658  31.280  0.00  0.00    +0.236 C 
ATOM     31  N   LIG    1      -30.426  87.798  32.555  0.00  0.00    -0.244 NA
BRANCH  30  32
ATOM     32  O   LIG    1      -29.455  88.015  30.446  0.00  0.00    -0.491 OA
ATOM     33  H   LIG    1      -29.690  87.736  29.540  0.00  0.00    +0.294 HD
ENDBRANCH  30  32
BRANCH  31  34
ATOM     34  C   LIG    1      -29.208  88.346  33.152  0.00  0.00    +0.182 C 
BRANCH  34  35
ATOM     35  C   LIG    1      -28.520  87.361  34.066  0.00  0.00    -0.005 A 
ATOM     36  C   LIG    1      -27.331  87.706  34.695  0.00  0.00    +0.140 A 
ATOM     37  N   LIG    1      -26.643  86.863  35.497  0.00  0.00    -0.157 NA
ATOM     38  N   LIG    1      -27.121  85.610  35.715  0.00  0.00    -0.158 NA
ATOM     39  C   LIG    1      -28.277  85.237  35.133  0.00  0.00    +0.135 A 
ATOM     40  C   LIG    1      -29.004  86.077  34.310  0.00  0.00    +0.028 A 
ENDBRANCH  34  35
ENDBRANCH  31  34
ENDBRANCH   1  30
TORSDOF 8
ENDMDL
MODEL 2
REMARK VINA RESULT:      -6.7     18.766     22.056
REMARK  Name = pdb/CHEMBL3907673.pdb
REMARK                            x       y       z     vdW  Elec       q    Type
REMARK                         _______ _______ _______ _____ _____    ______ ____
ROOT
ATOM      1  C   LIG    1      -30.848  66.181  19.256  0.00  0.00    +0.149 A 
ATOM      2  N   LIG    1      -29.697  65.500  19.376  0.00  0.00    -0.160 NA
ATOM      3  N   LIG    1      -28.742  66.323  18.830  0.00  0.00    -0.218 N 
ATOM      4  C   LIG    1      -29.310  67.523  18.371  0.00  0.00    +0.129 A 
ATOM      5  C   LIG    1      -30.657  67.405  18.602  0.00  0.00    +0.078 A 
ENDROOT
BRANCH   3   6
ATOM      6  C   LIG    1      -27.381  65.887  18.799  0.00  0.00    +0.067 A 
ATOM      7  C   LIG    1      -26.855  65.000  19.747  0.00  0.00    +0.028 A 
ATOM      8  C   LIG    1      -25.514  64.603  19.681  0.00  0.00    +0.002 A 
ATOM      9  C   LIG    1      -24.690  65.071  18.662  0.00  0.00    +0.000 A 
ATOM     10  C   LIG    1      -25.202  65.943  17.707  0.00  0.00    +0.002 A 
ATOM     11  C   LIG    1      -26.540  66.347  17.768  0.00  0.00    +0.028 A 
ENDBRANCH   3   6
BRANCH   4  12
ATOM     12  N   LIG    1      -28.696  68.616  17.752  0.00  0.00    -0.266 N 
ATOM     13  H   LIG    1      -28.855  68.765  16.766  0.00  0.00    +0.157 HD
ATOM     14  C   LIG    1      -27.860  69.558  18.455  0.00  0.00    +0.251 C 
ATOM     15  O   LIG    1      -27.736  69.525  19.662  0.00  0.00    -0.270 OA
BRANCH  14  16
ATOM     16  C   LIG    1      -27.088  70.533  17.658  0.00  0.00    +0.056 A 
ATOM     17  C   LIG    1      -27.618  71.310  16.636  0.00  0.00    +0.054 A 
ATOM     18 CL   LIG    1      -29.285  71.295  16.193  0.00  0.00    -0.083 Cl
ATOM     19  C   LIG    1      -26.779  72.167  15.925  0.00  0.00    +0.041 A 
ATOM     20  C   LIG    1      -25.410  72.263  16.229  0.00  0.00    +0.052 A 
ATOM     21 CL   LIG    1      -24.510  73.291  15.169  0.00  0.00    -0.083 Cl
ATOM     22  C   LIG    1      -24.840  71.525  17.285  0.00  0.00    +0.019 A 
ATOM     23  C   LIG    1      -25.720  70.659  17.979  0.00  0.00    +0.026 A 
BRANCH  22  24
ATOM     24  C   LIG    1      -23.415  71.558  17.712  0.00  0.00    +0.072 A 
ATOM     25  N   LIG    1      -22.609  70.670  17.069  0.00  0.00    -0.255 NA
ATOM     26  C   LIG    1      -21.304  70.606  17.427  0.00  0.00    +0.111 A 
ATOM     27  C   LIG    1      -20.735  71.402  18.400  0.00  0.00    +0.020 A 
ATOM     28  C   LIG    1      -21.556  72.304  19.058  0.00  0.00    +0.004 A 
ATOM     29  C   LIG    1      -22.909  72.368  18.727  0.00  0.00    +0.028 A 
ENDBRANCH  22  24
ENDBRANCH  14  16
ENDBRANCH   4  12
BRANCH   1  30
ATOM     30  C   LIG    1      -32.121  65.669  19.749  0.00  0.00    +0.236 C 
ATOM     31  N   LIG    1      -32.833  66.388  20.537  0.00  0.00    -0.244 NA
BRANCH  30  32
ATOM     32  O   LIG    1      -32.451  64.431  19.326  0.00  0.00    -0.491 OA
ATOM     33  H   LIG    1      -31.642  63.885  19.296  0.00  0.00    +0.294 HD
ENDBRANCH  30  32
BRANCH  31  34
ATOM     34  C   LIG    1      -34.118  65.843  20.976  0.00  0.00    +0.182 C 
BRANCH  34  35
ATOM     35  C   LIG    1      -35.007  66.893  21.599  0.00  0.00    -0.005 A 
ATOM     36  C   LIG    1      -34.734  67.369  22.875  0.00  0.00    +0.140 A 
ATOM     37  N   LIG    1      -35.506  68.281  23.508  0.00  0.00    -0.157 NA
ATOM     38  N   LIG    1      -36.608  68.771  22.882  0.00  0.00    -0.158 NA
ATOM     39  C   LIG    1      -36.903  68.345  21.640  0.00  0.00    +0.135 A 
ATOM     40  C   LIG    1      -36.133  67.415  20.966  0.00  0.00    +0.028 A 
ENDBRANCH  34  35
ENDBRANCH  31  34
ENDBRANCH   1  30
TORSDOF 8
ENDMDL
MODEL 3
REMARK VINA RESULT:      -6.7      5.735      9.788
REMARK  Name = pdb/CHEMBL3907673.pdb
REMARK                            x       y       z     vdW  Elec       q    Type
REMARK                         _______ _______ _______ _____ _____    ______ ____
ROOT
ATOM      1  C   LIG    1      -37.004  80.028  27.833  0.00  0.00    +0.149 A 
ATOM      2  N   LIG    1      -36.007  79.171  28.106  0.00  0.00    -0.160 NA
ATOM      3  N   LIG    1      -36.425  77.968  27.590  0.00  0.00    -0.218 N 
ATOM      4  C   LIG    1      -37.690  78.086  26.992  0.00  0.00    +0.129 A 
ATOM      5  C   LIG    1      -38.073  79.387  27.193  0.00  0.00    +0.078 A 
ENDROOT
BRANCH   3   6
ATOM      6  C   LIG    1      -35.577  76.823  27.715  0.00  0.00    +0.067 A 
ATOM      7  C   LIG    1      -34.214  76.860  27.394  0.00  0.00    +0.028 A 
ATOM      8  C   LIG    1      -33.422  75.713  27.526  0.00  0.00    +0.002 A 
ATOM      9  C   LIG    1      -33.975  74.525  27.997  0.00  0.00    +0.000 A 
ATOM     10  C   LIG    1      -35.325  74.478  28.331  0.00  0.00    +0.002 A 
ATOM     11  C   LIG    1      -36.123  75.619  28.196  0.00  0.00    +0.028 A 
ENDBRANCH   3   6
BRANCH   4  12
ATOM     12  N   LIG    1      -38.468  77.110  26.362  0.00  0.00    -0.266 N 
ATOM     13  H   LIG    1      -39.350  76.849  26.781  0.00  0.00    +0.157 HD
ATOM     14  C   LIG    1      -38.088  76.468  25.128  0.00  0.00    +0.251 C 
ATOM     15  O   LIG    1      -37.116  76.826  24.494  0.00  0.00    -0.270 OA
BRANCH  14  16
ATOM     16  C   LIG    1      -38.873  75.299  24.680  0.00  0.00    +0.056 A 
ATOM     17  C   LIG    1      -40.128  75.374  24.090  0.00  0.00    +0.054 A 
ATOM     18 CL   LIG    1      -40.926  76.860  23.730  0.00  0.00    -0.083 Cl
ATOM     19  C   LIG    1      -40.790  74.197  23.746  0.00  0.00    +0.041 A 
ATOM     20  C   LIG    1      -40.209  72.939  23.981  0.00  0.00    +0.052 A 
ATOM     21 CL   LIG    1      -41.227  71.594  23.593  0.00  0.00    -0.083 Cl
ATOM     22  C   LIG    1      -38.922  72.819  24.539  0.00  0.00    +0.019 A 
ATOM     23  C   LIG    1      -38.282  74.035  24.883  0.00  0.00    +0.026 A 
BRANCH  22  24
ATOM     24  C   LIG    1      -38.197  71.549  24.814  0.00  0.00    +0.072 A 
ATOM     25  N   LIG    1      -37.802  71.389  26.107  0.00  0.00    -0.255 NA
ATOM     26  C   LIG    1      -37.099  70.278  26.435  0.00  0.00    +0.111 A 
ATOM     27  C   LIG    1      -36.771  69.284  25.535  0.00  0.00    +0.020 A 
ATOM     28  C   LIG    1      -37.170  69.448  24.219  0.00  0.00    +0.004 A 
ATOM     29  C   LIG    1      -37.869  70.597  23.851  0.00  0.00    +0.028 A 
ENDBRANCH  22  24
ENDBRANCH  14  16
ENDBRANCH   4  12
BRANCH   1  30
ATOM     30  C   LIG    1      -36.946  81.440  28.187  0.00  0.00    +0.236 C 
ATOM     31  N   LIG    1      -35.817  82.050  28.193  0.00  0.00    -0.244 NA
BRANCH  30  32
ATOM     32  O   LIG    1      -38.129  82.008  28.500  0.00  0.00    -0.491 OA
ATOM     33  H   LIG    1      -38.235  81.996  29.471  0.00  0.00    +0.294 HD
ENDBRANCH  30  32
BRANCH  31  34
ATOM     34  C   LIG    1      -35.818  83.475  28.522  0.00  0.00    +0.182 C 
BRANCH  34  35
ATOM     35  C   LIG    1      -34.749  83.835  29.526  0.00  0.00    -0.005 A 
ATOM     36  C   LIG    1      -34.692  83.179  30.749  0.00  0.00    +0.140 A 
ATOM     37  N   LIG    1      -33.785  83.473  31.708  0.00  0.00    -0.157 NA
ATOM     38  N   LIG    1      -32.876  84.458  31.486  0.00  0.00    -0.158 NA
ATOM     39  C   LIG    1      -32.889  85.113  30.310  0.00  0.00    +0.135 A 
ATOM     40  C   LIG    1      -33.801  84.833  29.309  0.00  0.00    +0.028 A 
ENDBRANCH  34  35
ENDBRANCH  31  34
ENDBRANCH   1  30
TORSDOF 8
ENDMDL
MODEL 4
REMARK VINA RESULT:      -6.6      6.623     10.704
REMARK  Name = pdb/CHEMBL3907673.pdb
REMARK                            x       y       z     vdW  Elec       q    Type
REMARK                         _______ _______ _______ _____ _____    ______ ____
ROOT
ATOM      1  C   LIG    1      -37.108  80.012  27.705  0.00  0.00    +0.149 A 
ATOM      2  N   LIG    1      -36.103  79.180  28.021  0.00  0.00    -0.160 NA
ATOM      3  N   LIG    1      -36.496  77.954  27.542  0.00  0.00    -0.218 N 
ATOM      4  C   LIG    1      -37.755  78.031  26.924  0.00  0.00    +0.129 A 
ATOM      5  C   LIG    1      -38.160  79.332  27.074  0.00  0.00    +0.078 A 
ENDROOT
BRANCH   3   6
ATOM      6  C   LIG    1      -35.633  76.827  27.719  0.00  0.00    +0.067 A 
ATOM      7  C   LIG    1      -34.266  76.873  27.414  0.00  0.00    +0.028 A 
ATOM      8  C   LIG    1      -33.459  75.743  27.598  0.00  0.00    +0.002 A 
ATOM      9  C   LIG    1      -34.001  74.565  28.103  0.00  0.00    +0.000 A 
ATOM     10  C   LIG    1      -35.354  74.509  28.422  0.00  0.00    +0.002 A 
ATOM     11  C   LIG    1      -36.168  75.633  28.236  0.00  0.00    +0.028 A 
ENDBRANCH   3   6
BRANCH   4  12
ATOM     12  N   LIG    1      -38.509  77.021  26.318  0.00  0.00    -0.266 N 
ATOM     13  H   LIG    1      -39.368  76.728  26.761  0.00  0.00    +0.157 HD
ATOM     14  C   LIG    1      -38.135  76.389  25.078  0.00  0.00    +0.251 C 
ATOM     15  O   LIG    1      -37.195  76.781  24.418  0.00  0.00    -0.270 OA
BRANCH  14  16
ATOM     16  C   LIG    1      -38.884  75.187  24.655  0.00  0.00    +0.056 A 
ATOM     17  C   LIG    1      -40.144  75.211  24.071  0.00  0.00    +0.054 A 
ATOM     18 CL   LIG    1      -40.991  76.664  23.689  0.00  0.00    -0.083 Cl
ATOM     19  C   LIG    1      -40.770  74.007  23.752  0.00  0.00    +0.041 A 
ATOM     20  C   LIG    1      -40.148  72.773  24.006  0.00  0.00    +0.052 A 
ATOM     21 CL   LIG    1      -41.123  71.390  23.649  0.00  0.00    -0.083 Cl
ATOM     22  C   LIG    1      -38.854  72.704  24.559  0.00  0.00    +0.019 A 
ATOM     23  C   LIG    1      -38.252  73.946  24.878  0.00  0.00    +0.026 A 
BRANCH  22  24
ATOM     24  C   LIG    1      -38.088  71.463  24.853  0.00  0.00    +0.072 A 
ATOM     25  N   LIG    1      -37.681  71.340  26.146  0.00  0.00    -0.255 NA
ATOM     26  C   LIG    1      -36.941  70.258  26.490  0.00  0.00    +0.111 A 
ATOM     27  C   LIG    1      -36.586  69.259  25.607  0.00  0.00    +0.020 A 
ATOM     28  C   LIG    1      -36.997  69.386  24.290  0.00  0.00    +0.004 A 
ATOM     29  C   LIG    1      -37.735  70.505  23.906  0.00  0.00    +0.028 A 
ENDBRANCH  22  24
ENDBRANCH  14  16
ENDBRANCH   4  12
BRANCH   1  30
ATOM     30  C   LIG    1      -37.077  81.436  28.010  0.00  0.00    +0.236 C 
ATOM     31  N   LIG    1      -36.148  82.172  27.517  0.00  0.00    -0.244 NA
BRANCH  30  32
ATOM     32  O   LIG    1      -38.059  81.878  28.822  0.00  0.00    -0.491 OA
ATOM     33  H   LIG    1      -38.240  82.814  28.613  0.00  0.00    +0.294 HD
ENDBRANCH  30  32
BRANCH  31  34
ATOM     34  C   LIG    1      -36.181  83.601  27.825  0.00  0.00    +0.182 C 
BRANCH  34  35
ATOM     35  C   LIG    1      -36.586  84.438  26.636  0.00  0.00    -0.005 A 
ATOM     36  C   LIG    1      -35.627  85.140  25.917  0.00  0.00    +0.140 A 
ATOM     37  N   LIG    1      -35.923  85.935  24.864  0.00  0.00    -0.157 NA
ATOM     38  N   LIG    1      -37.216  86.069  24.472  0.00  0.00    -0.158 NA
ATOM     39  C   LIG    1      -38.177  85.397  25.134  0.00  0.00    +0.135 A 
ATOM     40  C   LIG    1      -37.907  84.575  26.211  0.00  0.00    +0.028 A 
ENDBRANCH  34  35
ENDBRANCH  31  34
ENDBRANCH   1  30
TORSDOF 8
ENDMDL
MODEL 5
REMARK VINA RESULT:      -6.6      8.880     13.956
REMARK  Name = pdb/CHEMBL3907673.pdb
REMARK                            x       y       z     vdW  Elec       q    Type
REMARK                         _______ _______ _______ _____ _____    ______ ____
ROOT
ATOM      1  C   LIG    1      -29.524  76.027  31.339  0.00  0.00    +0.149 A 
ATOM      2  N   LIG    1      -28.997  74.848  31.706  0.00  0.00    -0.160 NA
ATOM      3  N   LIG    1      -27.727  75.147  32.134  0.00  0.00    -0.218 N 
ATOM      4  C   LIG    1      -27.468  76.524  32.031  0.00  0.00    +0.129 A 
ATOM      5  C   LIG    1      -28.598  77.071  31.479  0.00  0.00    +0.078 A 
ENDROOT
BRANCH   3   6
ATOM      6  C   LIG    1      -26.882  74.093  32.602  0.00  0.00    +0.067 A 
ATOM      7  C   LIG    1      -26.157  73.269  31.729  0.00  0.00    +0.028 A 
ATOM      8  C   LIG    1      -25.345  72.244  32.230  0.00  0.00    +0.002 A 
ATOM      9  C   LIG    1      -25.232  72.042  33.603  0.00  0.00    +0.000 A 
ATOM     10  C   LIG    1      -25.936  72.860  34.481  0.00  0.00    +0.002 A 
ATOM     11  C   LIG    1      -26.754  73.883  33.987  0.00  0.00    +0.028 A 
ENDBRANCH   3   6
BRANCH   4  12
ATOM     12  N   LIG    1      -26.308  77.235  32.352  0.00  0.00    -0.266 N 
ATOM     13  H   LIG    1      -25.693  77.521  31.603  0.00  0.00    +0.157 HD
ATOM     14  C   LIG    1      -25.952  77.604  33.700  0.00  0.00    +0.251 C 
ATOM     15  O   LIG    1      -26.706  77.420  34.633  0.00  0.00    -0.270 OA
BRANCH  14  16
ATOM     16  C   LIG    1      -24.600  78.151  33.939  0.00  0.00    +0.056 A 
ATOM     17  C   LIG    1      -24.288  79.069  34.933  0.00  0.00    +0.054 A 
ATOM     18 CL   LIG    1      -25.431  79.653  36.086  0.00  0.00    -0.083 Cl
ATOM     19  C   LIG    1      -22.982  79.546  35.035  0.00  0.00    +0.041 A 
ATOM     20  C   LIG    1      -21.977  79.111  34.153  0.00  0.00    +0.052 A 
ATOM     21 CL   LIG    1      -20.450  79.897  34.361  0.00  0.00    -0.083 Cl
ATOM     22  C   LIG    1      -22.242  78.151  33.157  0.00  0.00    +0.019 A 
ATOM     23  C   LIG    1      -23.581  77.695  33.078  0.00  0.00    +0.026 A 
BRANCH  22  24
ATOM     24  C   LIG    1      -21.260  77.600  32.184  0.00  0.00    +0.072 A 
ATOM     25  N   LIG    1      -21.714  77.522  30.903  0.00  0.00    -0.255 NA
ATOM     26  C   LIG    1      -20.897  76.993  29.960  0.00  0.00    +0.111 A 
ATOM     27  C   LIG    1      -19.619  76.540  30.218  0.00  0.00    +0.020 A 
ATOM     28  C   LIG    1      -19.159  76.616  31.522  0.00  0.00    +0.004 A 
ATOM     29  C   LIG    1      -19.992  77.130  32.516  0.00  0.00    +0.028 A 
ENDBRANCH  22  24
ENDBRANCH  14  16
ENDBRANCH   4  12
BRANCH   1  30
ATOM     30  C   LIG    1      -30.889  76.161  30.848  0.00  0.00    +0.236 C 
ATOM     31  N   LIG    1      -31.130  76.034  29.594  0.00  0.00    -0.244 NA
BRANCH  30  32
ATOM     32  O   LIG    1      -31.820  76.428  31.788  0.00  0.00    -0.491 OA
ATOM     33  H   LIG    1      -32.536  76.950  31.379  0.00  0.00    +0.294 HD
ENDBRANCH  30  32
BRANCH  31  34
ATOM     34  C   LIG    1      -32.521  76.144  29.157  0.00  0.00    +0.182 C 
BRANCH  34  35
ATOM     35  C   LIG    1      -32.742  77.309  28.223  0.00  0.00    -0.005 A 
ATOM     36  C   LIG    1      -32.223  77.279  26.935  0.00  0.00    +0.140 A 
ATOM     37  N   LIG    1      -32.352  78.300  26.058  0.00  0.00    -0.157 NA
ATOM     38  N   LIG    1      -33.020  79.422  26.434  0.00  0.00    -0.158 NA
ATOM     39  C   LIG    1      -33.549  79.489  27.670  0.00  0.00    +0.135 A 
ATOM     40  C   LIG    1      -33.436  78.461  28.588  0.00  0.00    +0.028 A 
ENDBRANCH  34  35
ENDBRANCH  31  34
ENDBRANCH   1  30
TORSDOF 8
ENDMDL
MODEL 6
REMARK VINA RESULT:      -6.5      8.938     16.433
REMARK  Name = pdb/CHEMBL3907673.pdb
REMARK                            x       y       z     vdW  Elec       q    Type
REMARK                         _______ _______ _______ _____ _____    ______ ____
ROOT
ATOM      1  C   LIG    1      -35.468  69.152  25.001  0.00  0.00    +0.149 A 
ATOM      2  N   LIG    1      -36.637  69.810  25.072  0.00  0.00    -0.160 NA
ATOM      3  N   LIG    1      -36.343  70.984  25.721  0.00  0.00    -0.218 N 
ATOM      4  C   LIG    1      -34.979  71.052  26.052  0.00  0.00    +0.129 A 
ATOM      5  C   LIG    1      -34.439  69.863  25.634  0.00  0.00    +0.078 A 
ENDROOT
BRANCH   3   6
ATOM      6  C   LIG    1      -37.388  71.929  25.963  0.00  0.00    +0.067 A 
ATOM      7  C   LIG    1      -37.878  72.193  27.249  0.00  0.00    +0.028 A 
ATOM      8  C   LIG    1      -38.908  73.123  27.439  0.00  0.00    +0.002 A 
ATOM      9  C   LIG    1      -39.444  73.812  26.355  0.00  0.00    +0.000 A 
ATOM     10  C   LIG    1      -38.958  73.568  25.075  0.00  0.00    +0.002 A 
ATOM     11  C   LIG    1      -37.933  72.636  24.876  0.00  0.00    +0.028 A 
ENDBRANCH   3   6
BRANCH   4  12
ATOM     12  N   LIG    1      -34.276  72.063  26.714  0.00  0.00    -0.266 N 
ATOM     13  H   LIG    1      -33.825  72.779  26.163  0.00  0.00    +0.157 HD
ATOM     14  C   LIG    1      -34.180  72.150  28.151  0.00  0.00    +0.251 C 
ATOM     15  O   LIG    1      -34.809  71.412  28.880  0.00  0.00    -0.270 OA
BRANCH  14  16
ATOM     16  C   LIG    1      -33.229  73.124  28.727  0.00  0.00    +0.056 A 
ATOM     17  C   LIG    1      -32.201  72.796  29.602  0.00  0.00    +0.054 A 
ATOM     18 CL   LIG    1      -31.842  71.181  30.090  0.00  0.00    -0.083 Cl
ATOM     19  C   LIG    1      -31.392  73.809  30.113  0.00  0.00    +0.041 A 
ATOM     20  C   LIG    1      -31.595  75.153  29.755  0.00  0.00    +0.052 A 
ATOM     21 CL   LIG    1      -30.568  76.278  30.576  0.00  0.00    -0.083 Cl
ATOM     22  C   LIG    1      -32.599  75.524  28.840  0.00  0.00    +0.019 A 
ATOM     23  C   LIG    1      -33.406  74.470  28.347  0.00  0.00    +0.026 A 
BRANCH  22  24
ATOM     24  C   LIG    1      -32.894  76.905  28.370  0.00  0.00    +0.072 A 
ATOM     25  N   LIG    1      -32.239  77.271  27.234  0.00  0.00    -0.255 NA
ATOM     26  C   LIG    1      -32.419  78.528  26.761  0.00  0.00    +0.111 A 
ATOM     27  C   LIG    1      -33.242  79.461  27.356  0.00  0.00    +0.020 A 
ATOM     28  C   LIG    1      -33.906  79.091  28.515  0.00  0.00    +0.004 A 
ATOM     29  C   LIG    1      -33.714  77.813  29.037  0.00  0.00    +0.028 A 
ENDBRANCH  22  24
ENDBRANCH  14  16
ENDBRANCH   4  12
BRANCH   1  30
ATOM     30  C   LIG    1      -35.332  67.857  24.348  0.00  0.00    +0.236 C 
ATOM     31  N   LIG    1      -34.825  67.787  23.171  0.00  0.00    -0.244 NA
BRANCH  30  32
ATOM     32  O   LIG    1      -35.775  66.800  25.059  0.00  0.00    -0.491 OA
ATOM     33  H   LIG    1      -35.603  65.985  24.549  0.00  0.00    +0.294 HD
ENDBRANCH  30  32
BRANCH  31  34
ATOM     34  C   LIG    1      -34.678  66.461  22.574  0.00  0.00    +0.182 C 
BRANCH  34  35
ATOM     35  C   LIG    1      -34.496  66.520  21.076  0.00  0.00    -0.005 A 
ATOM     36  C   LIG    1      -33.229  66.389  20.523  0.00  0.00    +0.140 A 
ATOM     37  N   LIG    1      -32.987  66.466  19.195  0.00  0.00    -0.157 NA
ATOM     38  N   LIG    1      -34.021  66.682  18.340  0.00  0.00    -0.158 NA
ATOM     39  C   LIG    1      -35.268  66.803  18.834  0.00  0.00    +0.135 A 
ATOM     40  C   LIG    1      -35.547  66.726  20.185  0.00  0.00    +0.028 A 
ENDBRANCH  34  35
ENDBRANCH  31  34
ENDBRANCH   1  30
TORSDOF 8
ENDMDL
MODEL 7
REMARK VINA RESULT:      -6.5      9.361     14.799
REMARK  Name = pdb/CHEMBL3907673.pdb
REMARK                            x       y       z     vdW  Elec       q    Type
REMARK                         _______ _______ _______ _____ _____    ______ ____
ROOT
ATOM      1  C   LIG    1      -27.881  76.063  32.154  0.00  0.00    +0.149 A 
ATOM      2  N   LIG    1      -26.895  75.823  31.276  0.00  0.00    -0.160 NA
ATOM      3  N   LIG    1      -25.830  76.563  31.729  0.00  0.00    -0.218 N 
ATOM      4  C   LIG    1      -26.163  77.266  32.898  0.00  0.00    +0.129 A 
ATOM      5  C   LIG    1      -27.483  76.981  33.136  0.00  0.00    +0.078 A 
ENDROOT
BRANCH   3   6
ATOM      6  C   LIG    1      -24.598  76.529  31.004  0.00  0.00    +0.067 A 
ATOM      7  C   LIG    1      -24.155  77.607  30.225  0.00  0.00    +0.028 A 
ATOM      8  C   LIG    1      -22.943  77.528  29.527  0.00  0.00    +0.002 A 
ATOM      9  C   LIG    1      -22.153  76.385  29.614  0.00  0.00    +0.000 A 
ATOM     10  C   LIG    1      -22.574  75.313  30.395  0.00  0.00    +0.002 A 
ATOM     11  C   LIG    1      -23.787  75.383  31.091  0.00  0.00    +0.028 A 
ENDBRANCH   3   6
BRANCH   4  12
ATOM     12  N   LIG    1      -25.378  78.130  33.668  0.00  0.00    -0.266 N 
ATOM     13  H   LIG    1      -25.558  79.122  33.616  0.00  0.00    +0.157 HD
ATOM     14  C   LIG    1      -24.335  77.675  34.554  0.00  0.00    +0.251 C 
ATOM     15  O   LIG    1      -24.154  76.496  34.776  0.00  0.00    -0.270 OA
BRANCH  14  16
ATOM     16  C   LIG    1      -23.428  78.685  35.139  0.00  0.00    +0.056 A 
ATOM     17  C   LIG    1      -23.841  79.745  35.936  0.00  0.00    +0.054 A 
ATOM     18 CL   LIG    1      -25.479  79.995  36.418  0.00  0.00    -0.083 Cl
ATOM     19  C   LIG    1      -22.896  80.659  36.397  0.00  0.00    +0.041 A 
ATOM     20  C   LIG    1      -21.534  80.525  36.074  0.00  0.00    +0.052 A 
ATOM     21 CL   LIG    1      -20.531  81.815  36.640  0.00  0.00    -0.083 Cl
ATOM     22  C   LIG    1      -21.068  79.442  35.303  0.00  0.00    +0.019 A 
ATOM     23  C   LIG    1      -22.057  78.537  34.845  0.00  0.00    +0.026 A 
BRANCH  22  24
ATOM     24  C   LIG    1      -19.655  79.183  34.916  0.00  0.00    +0.072 A 
ATOM     25  N   LIG    1      -19.446  79.064  33.575  0.00  0.00    -0.255 NA
ATOM     26  C   LIG    1      -18.193  78.786  33.140  0.00  0.00    +0.111 A 
ATOM     27  C   LIG    1      -17.106  78.631  33.975  0.00  0.00    +0.020 A 
ATOM     28  C   LIG    1      -17.319  78.748  35.339  0.00  0.00    +0.004 A 
ATOM     29  C   LIG    1      -18.605  79.005  35.814  0.00  0.00    +0.028 A 
ENDBRANCH  22  24
ENDBRANCH  14  16
ENDBRANCH   4  12
BRANCH   1  30
ATOM     30  C   LIG    1      -29.193  75.437  32.056  0.00  0.00    +0.236 C 
ATOM     31  N   LIG    1      -29.935  75.670  31.036  0.00  0.00    -0.244 NA
BRANCH  30  32
ATOM     32  O   LIG    1      -29.535  74.642  33.091  0.00  0.00    -0.491 OA
ATOM     33  H   LIG    1      -30.459  74.353  32.970  0.00  0.00    +0.294 HD
ENDBRANCH  30  32
BRANCH  31  34
ATOM     34  C   LIG    1      -31.228  74.990  30.968  0.00  0.00    +0.182 C 
BRANCH  34  35
ATOM     35  C   LIG    1      -32.001  75.344  29.721  0.00  0.00    -0.005 A 
ATOM     36  C   LIG    1      -31.712  76.513  29.029  0.00  0.00    +0.140 A 
ATOM     37  N   LIG    1      -32.386  76.910  27.926  0.00  0.00    -0.157 NA
ATOM     38  N   LIG    1      -33.400  76.140  27.452  0.00  0.00    -0.158 NA
ATOM     39  C   LIG    1      -33.707  74.992  28.085  0.00  0.00    +0.135 A 
ATOM     40  C   LIG    1      -33.035  74.559  29.213  0.00  0.00    +0.028 A 
ENDBRANCH  34  35
ENDBRANCH  31  34
ENDBRANCH   1  30
TORSDOF 8
ENDMDL
MODEL 8
REMARK VINA RESULT:      -6.4      9.209     14.762
REMARK  Name = pdb/CHEMBL3907673.pdb
REMARK                            x       y       z     vdW  Elec       q    Type
REMARK                         _______ _______ _______ _____ _____    ______ ____
ROOT
ATOM      1  C   LIG    1      -26.984  75.760  32.089  0.00  0.00    +0.149 A 
ATOM      2  N   LIG    1      -25.891  75.494  31.355  0.00  0.00    -0.160 NA
ATOM      3  N   LIG    1      -24.959  76.417  31.762  0.00  0.00    -0.218 N 
ATOM      4  C   LIG    1      -25.481  77.260  32.757  0.00  0.00    +0.129 A 
ATOM      5  C   LIG    1      -26.784  76.867  32.926  0.00  0.00    +0.078 A 
ENDROOT
BRANCH   3   6
ATOM      6  C   LIG    1      -23.660  76.408  31.164  0.00  0.00    +0.067 A 
ATOM      7  C   LIG    1      -22.637  75.557  31.605  0.00  0.00    +0.028 A 
ATOM      8  C   LIG    1      -21.378  75.585  30.993  0.00  0.00    +0.002 A 
ATOM      9  C   LIG    1      -21.132  76.444  29.926  0.00  0.00    +0.000 A 
ATOM     10  C   LIG    1      -22.142  77.284  29.470  0.00  0.00    +0.002 A 
ATOM     11  C   LIG    1      -23.402  77.266  30.079  0.00  0.00    +0.028 A 
ENDBRANCH   3   6
BRANCH   4  12
ATOM     12  N   LIG    1      -24.871  78.323  33.429  0.00  0.00    -0.266 N 
ATOM     13  H   LIG    1      -25.169  79.264  33.216  0.00  0.00    +0.157 HD
ATOM     14  C   LIG    1      -23.849  78.146  34.431  0.00  0.00    +0.251 C 
ATOM     15  O   LIG    1      -23.539  77.046  34.840  0.00  0.00    -0.270 OA
BRANCH  14  16
ATOM     16  C   LIG    1      -23.123  79.343  34.905  0.00  0.00    +0.056 A 
ATOM     17  C   LIG    1      -21.800  79.632  34.598  0.00  0.00    +0.054 A 
ATOM     18 CL   LIG    1      -20.827  78.662  33.555  0.00  0.00    -0.083 Cl
ATOM     19  C   LIG    1      -21.209  80.773  35.140  0.00  0.00    +0.041 A 
ATOM     20  C   LIG    1      -21.930  81.636  35.983  0.00  0.00    +0.052 A 
ATOM     21 CL   LIG    1      -20.998  82.934  36.647  0.00  0.00    -0.083 Cl
ATOM     22  C   LIG    1      -23.285  81.402  36.286  0.00  0.00    +0.019 A 
ATOM     23  C   LIG    1      -23.850  80.230  35.725  0.00  0.00    +0.026 A 
BRANCH  22  24
ATOM     24  C   LIG    1      -24.153  82.251  37.145  0.00  0.00    +0.072 A 
ATOM     25  N   LIG    1      -25.357  82.572  36.595  0.00  0.00    -0.255 NA
ATOM     26  C   LIG    1      -26.192  83.378  37.295  0.00  0.00    +0.111 A 
ATOM     27  C   LIG    1      -25.902  83.884  38.545  0.00  0.00    +0.020 A 
ATOM     28  C   LIG    1      -24.676  83.560  39.104  0.00  0.00    +0.004 A 
ATOM     29  C   LIG    1      -23.787  82.757  38.391  0.00  0.00    +0.028 A 
ENDBRANCH  22  24
ENDBRANCH  14  16
ENDBRANCH   4  12
BRANCH   1  30
ATOM     30  C   LIG    1      -28.209  74.978  31.989  0.00  0.00    +0.236 C 
ATOM     31  N   LIG    1      -29.277  75.525  31.535  0.00  0.00    -0.244 NA
BRANCH  30  32
ATOM     32  O   LIG    1      -28.117  73.699  32.408  0.00  0.00    -0.491 OA
ATOM     33  H   LIG    1      -28.094  73.116  31.625  0.00  0.00    +0.294 HD
ENDBRANCH  30  32
BRANCH  31  34
ATOM     34  C   LIG    1      -30.472  74.689  31.422  0.00  0.00    +0.182 C 
BRANCH  34  35
ATOM     35  C   LIG    1      -31.363  75.107  30.277  0.00  0.00    -0.005 A 
ATOM     36  C   LIG    1      -31.125  76.301  29.609  0.00  0.00    +0.140 A 
ATOM     37  N   LIG    1      -31.902  76.754  28.599  0.00  0.00    -0.157 NA
ATOM     38  N   LIG    1      -32.973  76.020  28.201  0.00  0.00    -0.158 NA
ATOM     39  C   LIG    1      -33.234  74.850  28.815  0.00  0.00    +0.135 A 
ATOM     40  C   LIG    1      -32.458  74.359  29.848  0.00  0.00    +0.028 A 
ENDBRANCH  34  35
ENDBRANCH  31  34
ENDBRANCH   1  30
TORSDOF 8
ENDMDL
MODEL 9
REMARK VINA RESULT:      -6.3      9.164     17.173
REMARK  Name = pdb/CHEMBL3907673.pdb
REMARK                            x       y       z     vdW  Elec       q    Type
REMARK                         _______ _______ _______ _____ _____    ______ ____
ROOT
ATOM      1  C   LIG    1      -36.544  69.526  25.031  0.00  0.00    +0.149 A 
ATOM      2  N   LIG    1      -36.253  68.691  26.042  0.00  0.00    -0.160 NA
ATOM      3  N   LIG    1      -35.366  69.385  26.829  0.00  0.00    -0.218 N 
ATOM      4  C   LIG    1      -35.108  70.660  26.299  0.00  0.00    +0.129 A 
ATOM      5  C   LIG    1      -35.823  70.724  25.130  0.00  0.00    +0.078 A 
ENDROOT
BRANCH   3   6
ATOM      6  C   LIG    1      -34.851  68.767  28.011  0.00  0.00    +0.067 A 
ATOM      7  C   LIG    1      -33.773  67.871  27.980  0.00  0.00    +0.028 A 
ATOM      8  C   LIG    1      -33.303  67.285  29.162  0.00  0.00    +0.002 A 
ATOM      9  C   LIG    1      -33.889  67.599  30.385  0.00  0.00    +0.000 A 
ATOM     10  C   LIG    1      -34.951  68.496  30.432  0.00  0.00    +0.002 A 
ATOM     11  C   LIG    1      -35.429  69.082  29.254  0.00  0.00    +0.028 A 
ENDBRANCH   3   6
BRANCH   4  12
ATOM     12  N   LIG    1      -34.270  71.669  26.782  0.00  0.00    -0.266 N 
ATOM     13  H   LIG    1      -33.385  71.825  26.321  0.00  0.00    +0.157 HD
ATOM     14  C   LIG    1      -34.613  72.518  27.896  0.00  0.00    +0.251 C 
ATOM     15  O   LIG    1      -35.712  72.485  28.411  0.00  0.00    -0.270 OA
BRANCH  14  16
ATOM     16  C   LIG    1      -33.560  73.391  28.457  0.00  0.00    +0.056 A 
ATOM     17  C   LIG    1      -32.537  72.955  29.288  0.00  0.00    +0.054 A 
ATOM     18 CL   LIG    1      -32.308  71.304  29.734  0.00  0.00    -0.083 Cl
ATOM     19  C   LIG    1      -31.625  73.881  29.789  0.00  0.00    +0.041 A 
ATOM     20  C   LIG    1      -31.718  75.245  29.464  0.00  0.00    +0.052 A 
ATOM     21 CL   LIG    1      -30.568  76.256  30.269  0.00  0.00    -0.083 Cl
ATOM     22  C   LIG    1      -32.715  75.723  28.592  0.00  0.00    +0.019 A 
ATOM     23  C   LIG    1      -33.630  74.756  28.108  0.00  0.00    +0.026 A 
BRANCH  22  24
ATOM     24  C   LIG    1      -32.901  77.135  28.159  0.00  0.00    +0.072 A 
ATOM     25  N   LIG    1      -33.798  77.842  28.901  0.00  0.00    -0.255 NA
ATOM     26  C   LIG    1      -34.058  79.124  28.548  0.00  0.00    +0.111 A 
ATOM     27  C   LIG    1      -33.454  79.766  27.486  0.00  0.00    +0.020 A 
ATOM     28  C   LIG    1      -32.545  79.045  26.728  0.00  0.00    +0.004 A 
ATOM     29  C   LIG    1      -32.283  77.715  27.054  0.00  0.00    +0.028 A 
ENDBRANCH  22  24
ENDBRANCH  14  16
ENDBRANCH   4  12
BRANCH   1  30
ATOM     30  C   LIG    1      -37.487  69.185  23.975  0.00  0.00    +0.236 C 
ATOM     31  N   LIG    1      -37.154  69.349  22.747  0.00  0.00    -0.244 NA
BRANCH  30  32
ATOM     32  O   LIG    1      -38.681  68.716  24.393  0.00  0.00    -0.491 OA
ATOM     33  H   LIG    1      -38.607  68.467  25.334  0.00  0.00    +0.294 HD
ENDBRANCH  30  32
BRANCH  31  34
ATOM     34  C   LIG    1      -38.123  68.960  21.723  0.00  0.00    +0.182 C 
BRANCH  34  35
ATOM     35  C   LIG    1      -37.538  68.012  20.705  0.00  0.00    -0.005 A 
ATOM     36  C   LIG    1      -36.943  66.826  21.116  0.00  0.00    +0.140 A 
ATOM     37  N   LIG    1      -36.368  65.949  20.263  0.00  0.00    -0.157 NA
ATOM     38  N   LIG    1      -36.360  66.219  18.932  0.00  0.00    -0.158 NA
ATOM     39  C   LIG    1      -36.936  67.353  18.489  0.00  0.00    +0.135 A 
ATOM     40  C   LIG    1      -37.534  68.268  19.335  0.00  0.00    +0.028 A 
ENDBRANCH  34  35
ENDBRANCH  31  34
ENDBRANCH   1  30
TORSDOF 8
ENDMDL
