MODEL 1
REMARK VINA RESULT:      -7.0      0.000      0.000
REMARK  Name = pdb/CHEMBL3971279.pdb
REMARK                            x       y       z     vdW  Elec       q    Type
REMARK                         _______ _______ _______ _____ _____    ______ ____
ROOT
ATOM      1  C   LIG    1      -31.137  87.061  31.007  0.00  0.00    +0.131 C 
ATOM      2  N   LIG    1      -32.266  87.781  30.970  0.00  0.00    -0.141 NA
ATOM      3  N   LIG    1      -33.105  87.083  30.165  0.00  0.00    -0.201 N 
ATOM      4  C   LIG    1      -32.604  85.802  29.914  0.00  0.00    +0.185 C 
ATOM      5  C   LIG    1      -31.302  85.826  30.341  0.00  0.00    +0.056 C 
ENDROOT
BRANCH   3   6
ATOM      6  C   LIG    1      -34.317  87.682  29.718  0.00  0.00    +0.052 A 
ATOM      7  C   LIG    1      -35.449  87.635  30.546  0.00  0.00    +0.025 A 
ATOM      8  C   LIG    1      -36.649  88.223  30.135  0.00  0.00    +0.002 A 
ATOM      9  C   LIG    1      -36.717  88.887  28.912  0.00  0.00    +0.000 A 
ATOM     10  C   LIG    1      -35.587  88.967  28.102  0.00  0.00    +0.002 A 
ATOM     11  C   LIG    1      -34.384  88.370  28.500  0.00  0.00    +0.025 A 
ENDBRANCH   3   6
BRANCH   4  12
ATOM     12  N   LIG    1      -33.302  84.695  29.413  0.00  0.00    -0.282 N 
ATOM     13  H   LIG    1      -33.179  84.499  28.425  0.00  0.00    +0.152 HD
ATOM     14  C   LIG    1      -34.267  83.929  30.157  0.00  0.00    +0.247 C 
ATOM     15  O   LIG    1      -34.487  84.190  31.328  0.00  0.00    -0.270 OA
BRANCH  14  16
ATOM     16  C   LIG    1      -34.988  82.813  29.478  0.00  0.00    +0.056 A 
ATOM     17  C   LIG    1      -36.350  82.812  29.165  0.00  0.00    +0.056 A 
ATOM     18 CL   LIG    1      -37.446  84.098  29.514  0.00  0.00    -0.083 Cl
ATOM     19  C   LIG    1      -36.909  81.719  28.503  0.00  0.00    +0.059 A 
ATOM     20  C   LIG    1      -36.124  80.628  28.139  0.00  0.00    +0.134 A 
ATOM     21  F   LIG    1      -36.732  79.657  27.447  0.00  0.00    -0.205 F 
ATOM     22  C   LIG    1      -34.757  80.567  28.427  0.00  0.00    +0.039 A 
ATOM     23  C   LIG    1      -34.214  81.682  29.114  0.00  0.00    +0.027 A 
BRANCH  22  24
ATOM     24  C   LIG    1      -33.887  79.451  27.987  0.00  0.00    +0.109 A 
ATOM     25  C   LIG    1      -33.735  78.238  28.666  0.00  0.00    +0.149 A 
ATOM     26  F   LIG    1      -34.319  78.010  29.850  0.00  0.00    -0.203 F 
ATOM     27  C   LIG    1      -32.930  77.236  28.130  0.00  0.00    +0.042 A 
ATOM     28  C   LIG    1      -32.271  77.462  26.930  0.00  0.00    +0.023 A 
ATOM     29  C   LIG    1      -32.442  78.691  26.319  0.00  0.00    +0.111 A 
ATOM     30  N   LIG    1      -33.226  79.680  26.815  0.00  0.00    -0.252 NA
ENDBRANCH  22  24
ENDBRANCH  14  16
ENDBRANCH   4  12
BRANCH   1  31
ATOM     31  C   LIG    1      -29.927  87.494  31.698  0.00  0.00    +0.233 C 
ATOM     32  N   LIG    1      -29.802  87.326  32.961  0.00  0.00    -0.241 NA
BRANCH  31  33
ATOM     33  O   LIG    1      -29.004  88.050  30.881  0.00  0.00    -0.491 OA
ATOM     34  H   LIG    1      -28.330  87.421  30.593  0.00  0.00    +0.294 HD
ENDBRANCH  31  33
BRANCH  32  35
ATOM     35  C   LIG    1      -28.599  87.704  33.673  0.00  0.00    +0.222 C 
BRANCH  35  36
ATOM     36  C   LIG    1      -28.169  86.582  34.540  0.00  0.00    +0.158 A 
ATOM     37  C   LIG    1      -28.750  85.405  34.947  0.00  0.00    +0.069 A 
ATOM     38  C   LIG    1      -27.791  84.831  35.800  0.00  0.00    +0.157 A 
ATOM     39  N   LIG    1      -26.695  85.586  35.904  0.00  0.00    -0.086 NA
ATOM     40  O   LIG    1      -26.935  86.691  35.104  0.00  0.00    -0.358 OA
ENDBRANCH  35  36
ENDBRANCH  32  35
ENDBRANCH   1  31
TORSDOF 8
ENDMDL
MODEL 2
REMARK VINA RESULT:      -7.0      9.019     15.780
REMARK  Name = pdb/CHEMBL3971279.pdb
REMARK                            x       y       z     vdW  Elec       q    Type
REMARK                         _______ _______ _______ _____ _____    ______ ____
ROOT
ATOM      1  C   LIG    1      -35.687  69.321  25.010  0.00  0.00    +0.131 C 
ATOM      2  N   LIG    1      -36.648  70.232  24.807  0.00  0.00    -0.141 NA
ATOM      3  N   LIG    1      -36.332  71.269  25.623  0.00  0.00    -0.201 N 
ATOM      4  C   LIG    1      -35.038  71.123  26.135  0.00  0.00    +0.185 C 
ATOM      5  C   LIG    1      -34.673  69.833  25.851  0.00  0.00    +0.056 C 
ENDROOT
BRANCH   3   6
ATOM      6  C   LIG    1      -37.273  72.315  25.834  0.00  0.00    +0.052 A 
ATOM      7  C   LIG    1      -37.812  72.985  24.724  0.00  0.00    +0.025 A 
ATOM      8  C   LIG    1      -38.745  74.011  24.903  0.00  0.00    +0.002 A 
ATOM      9  C   LIG    1      -39.168  74.353  26.185  0.00  0.00    +0.000 A 
ATOM     10  C   LIG    1      -38.664  73.668  27.289  0.00  0.00    +0.002 A 
ATOM     11  C   LIG    1      -37.719  72.647  27.120  0.00  0.00    +0.025 A 
ENDBRANCH   3   6
BRANCH   4  12
ATOM     12  N   LIG    1      -34.242  72.107  26.736  0.00  0.00    -0.282 N 
ATOM     13  H   LIG    1      -33.583  72.581  26.127  0.00  0.00    +0.152 HD
ATOM     14  C   LIG    1      -34.201  72.380  28.148  0.00  0.00    +0.247 C 
ATOM     15  O   LIG    1      -34.932  71.774  28.912  0.00  0.00    -0.270 OA
BRANCH  14  16
ATOM     16  C   LIG    1      -33.255  73.414  28.661  0.00  0.00    +0.056 A 
ATOM     17  C   LIG    1      -32.093  73.146  29.389  0.00  0.00    +0.056 A 
ATOM     18 CL   LIG    1      -31.546  71.573  29.835  0.00  0.00    -0.083 Cl
ATOM     19  C   LIG    1      -31.271  74.198  29.794  0.00  0.00    +0.059 A 
ATOM     20  C   LIG    1      -31.586  75.516  29.472  0.00  0.00    +0.134 A 
ATOM     21  F   LIG    1      -30.703  76.451  29.842  0.00  0.00    -0.205 F 
ATOM     22  C   LIG    1      -32.736  75.848  28.749  0.00  0.00    +0.039 A 
ATOM     23  C   LIG    1      -33.565  74.765  28.362  0.00  0.00    +0.027 A 
BRANCH  22  24
ATOM     24  C   LIG    1      -33.056  77.234  28.332  0.00  0.00    +0.109 A 
ATOM     25  C   LIG    1      -32.518  77.880  27.216  0.00  0.00    +0.149 A 
ATOM     26  F   LIG    1      -31.577  77.309  26.451  0.00  0.00    -0.203 F 
ATOM     27  C   LIG    1      -32.933  79.168  26.888  0.00  0.00    +0.042 A 
ATOM     28  C   LIG    1      -33.869  79.806  27.691  0.00  0.00    +0.023 A 
ATOM     29  C   LIG    1      -34.345  79.124  28.796  0.00  0.00    +0.111 A 
ATOM     30  N   LIG    1      -33.963  77.866  29.132  0.00  0.00    -0.252 NA
ENDBRANCH  22  24
ENDBRANCH  14  16
ENDBRANCH   4  12
BRANCH   1  31
ATOM     31  C   LIG    1      -35.684  68.001  24.389  0.00  0.00    +0.233 C 
ATOM     32  N   LIG    1      -34.898  67.742  23.412  0.00  0.00    -0.241 NA
BRANCH  31  33
ATOM     33  O   LIG    1      -36.556  67.134  24.951  0.00  0.00    -0.491 OA
ATOM     34  H   LIG    1      -36.785  66.400  24.367  0.00  0.00    +0.294 HD
ENDBRANCH  31  33
BRANCH  32  35
ATOM     35  C   LIG    1      -34.837  66.432  22.800  0.00  0.00    +0.222 C 
BRANCH  35  36
ATOM     36  C   LIG    1      -34.457  66.572  21.375  0.00  0.00    +0.158 A 
ATOM     37  C   LIG    1      -35.128  66.437  20.184  0.00  0.00    +0.069 A 
ATOM     38  C   LIG    1      -34.144  66.679  19.210  0.00  0.00    +0.157 A 
ATOM     39  N   LIG    1      -32.957  66.956  19.754  0.00  0.00    -0.086 NA
ATOM     40  O   LIG    1      -33.157  66.892  21.123  0.00  0.00    -0.358 OA
ENDBRANCH  35  36
ENDBRANCH  32  35
ENDBRANCH   1  31
TORSDOF 8
ENDMDL
MODEL 3
REMARK VINA RESULT:      -6.6      9.297     13.311
REMARK  Name = pdb/CHEMBL3971279.pdb
REMARK                            x       y       z     vdW  Elec       q    Type
REMARK                         _______ _______ _______ _____ _____    ______ ____
ROOT
ATOM      1  C   LIG    1      -37.982  76.712  26.297  0.00  0.00    +0.131 C 
ATOM      2  N   LIG    1      -39.278  77.048  26.312  0.00  0.00    -0.141 NA
ATOM      3  N   LIG    1      -39.849  76.304  25.332  0.00  0.00    -0.201 N 
ATOM      4  C   LIG    1      -38.970  75.311  24.885  0.00  0.00    +0.185 C 
ATOM      5  C   LIG    1      -37.745  75.644  25.403  0.00  0.00    +0.056 C 
ENDROOT
BRANCH   3   6
ATOM      6  C   LIG    1      -41.181  76.582  24.917  0.00  0.00    +0.052 A 
ATOM      7  C   LIG    1      -42.252  76.040  25.644  0.00  0.00    +0.025 A 
ATOM      8  C   LIG    1      -43.571  76.307  25.262  0.00  0.00    +0.002 A 
ATOM      9  C   LIG    1      -43.828  77.138  24.175  0.00  0.00    +0.000 A 
ATOM     10  C   LIG    1      -42.770  77.708  23.471  0.00  0.00    +0.002 A 
ATOM     11  C   LIG    1      -41.445  77.436  23.838  0.00  0.00    +0.025 A 
ENDBRANCH   3   6
BRANCH   4  12
ATOM     12  N   LIG    1      -39.282  74.168  24.138  0.00  0.00    -0.282 N 
ATOM     13  H   LIG    1      -39.066  74.208  23.148  0.00  0.00    +0.152 HD
ATOM     14  C   LIG    1      -40.001  73.029  24.645  0.00  0.00    +0.247 C 
ATOM     15  O   LIG    1      -40.335  72.985  25.816  0.00  0.00    -0.270 OA
BRANCH  14  16
ATOM     16  C   LIG    1      -40.325  71.904  23.719  0.00  0.00    +0.056 A 
ATOM     17  C   LIG    1      -41.468  71.828  22.919  0.00  0.00    +0.056 A 
ATOM     18 CL   LIG    1      -42.717  73.017  22.864  0.00  0.00    -0.083 Cl
ATOM     19  C   LIG    1      -41.651  70.736  22.072  0.00  0.00    +0.059 A 
ATOM     20  C   LIG    1      -40.700  69.720  22.001  0.00  0.00    +0.134 A 
ATOM     21  F   LIG    1      -40.927  68.749  21.109  0.00  0.00    -0.205 F 
ATOM     22  C   LIG    1      -39.537  69.737  22.778  0.00  0.00    +0.039 A 
ATOM     23  C   LIG    1      -39.381  70.848  23.644  0.00  0.00    +0.027 A 
BRANCH  22  24
ATOM     24  C   LIG    1      -38.478  68.705  22.669  0.00  0.00    +0.109 A 
ATOM     25  C   LIG    1      -37.602  68.568  21.589  0.00  0.00    +0.149 A 
ATOM     26  F   LIG    1      -37.703  69.330  20.491  0.00  0.00    -0.203 F 
ATOM     27  C   LIG    1      -36.607  67.594  21.618  0.00  0.00    +0.042 A 
ATOM     28  C   LIG    1      -36.510  66.754  22.719  0.00  0.00    +0.023 A 
ATOM     29  C   LIG    1      -37.421  66.925  23.745  0.00  0.00    +0.111 A 
ATOM     30  N   LIG    1      -38.394  67.870  23.745  0.00  0.00    -0.252 NA
ENDBRANCH  22  24
ENDBRANCH  14  16
ENDBRANCH   4  12
BRANCH   1  31
ATOM     31  C   LIG    1      -36.975  77.346  27.143  0.00  0.00    +0.233 C 
ATOM     32  N   LIG    1      -36.081  76.642  27.729  0.00  0.00    -0.241 NA
BRANCH  31  33
ATOM     33  O   LIG    1      -37.093  78.690  27.214  0.00  0.00    -0.491 OA
ATOM     34  H   LIG    1      -36.314  79.153  26.882  0.00  0.00    +0.294 HD
ENDBRANCH  31  33
BRANCH  32  35
ATOM     35  C   LIG    1      -35.041  77.239  28.541  0.00  0.00    +0.222 C 
BRANCH  35  36
ATOM     36  C   LIG    1      -33.949  77.722  27.663  0.00  0.00    +0.158 A 
ATOM     37  C   LIG    1      -32.816  77.151  27.137  0.00  0.00    +0.069 A 
ATOM     38  C   LIG    1      -32.211  78.196  26.420  0.00  0.00    +0.157 A 
ATOM     39  N   LIG    1      -32.919  79.326  26.484  0.00  0.00    -0.086 NA
ATOM     40  O   LIG    1      -34.020  79.023  27.267  0.00  0.00    -0.358 OA
ENDBRANCH  35  36
ENDBRANCH  32  35
ENDBRANCH   1  31
TORSDOF 8
ENDMDL
MODEL 4
REMARK VINA RESULT:      -6.5      8.410     12.779
REMARK  Name = pdb/CHEMBL3971279.pdb
REMARK                            x       y       z     vdW  Elec       q    Type
REMARK                         _______ _______ _______ _____ _____    ______ ____
ROOT
ATOM      1  C   LIG    1      -37.853  75.975  25.719  0.00  0.00    +0.131 C 
ATOM      2  N   LIG    1      -38.476  75.022  25.014  0.00  0.00    -0.141 NA
ATOM      3  N   LIG    1      -39.587  75.620  24.515  0.00  0.00    -0.201 N 
ATOM      4  C   LIG    1      -39.525  77.007  24.683  0.00  0.00    +0.185 C 
ATOM      5  C   LIG    1      -38.490  77.226  25.554  0.00  0.00    +0.056 C 
ENDROOT
BRANCH   3   6
ATOM      6  C   LIG    1      -40.603  74.829  23.907  0.00  0.00    +0.052 A 
ATOM      7  C   LIG    1      -40.428  73.440  23.818  0.00  0.00    +0.025 A 
ATOM      8  C   LIG    1      -41.414  72.640  23.234  0.00  0.00    +0.002 A 
ATOM      9  C   LIG    1      -42.591  73.217  22.763  0.00  0.00    +0.000 A 
ATOM     10  C   LIG    1      -42.787  74.591  22.879  0.00  0.00    +0.002 A 
ATOM     11  C   LIG    1      -41.798  75.402  23.453  0.00  0.00    +0.025 A 
ENDBRANCH   3   6
BRANCH   4  12
ATOM     12  N   LIG    1      -40.296  77.981  24.035  0.00  0.00    -0.282 N 
ATOM     13  H   LIG    1      -40.006  78.227  23.094  0.00  0.00    +0.152 HD
ATOM     14  C   LIG    1      -41.353  78.736  24.654  0.00  0.00    +0.247 C 
ATOM     15  O   LIG    1      -41.675  78.510  25.807  0.00  0.00    -0.270 OA
BRANCH  14  16
ATOM     16  C   LIG    1      -42.050  79.792  23.863  0.00  0.00    +0.056 A 
ATOM     17  C   LIG    1      -43.381  79.731  23.442  0.00  0.00    +0.056 A 
ATOM     18 CL   LIG    1      -44.456  78.417  23.750  0.00  0.00    -0.083 Cl
ATOM     19  C   LIG    1      -43.933  80.795  22.728  0.00  0.00    +0.059 A 
ATOM     20  C   LIG    1      -43.177  81.928  22.439  0.00  0.00    +0.134 A 
ATOM     21  F   LIG    1      -43.811  82.927  21.812  0.00  0.00    -0.205 F 
ATOM     22  C   LIG    1      -41.840  82.049  22.830  0.00  0.00    +0.039 A 
ATOM     23  C   LIG    1      -41.296  80.948  23.539  0.00  0.00    +0.027 A 
BRANCH  22  24
ATOM     24  C   LIG    1      -41.037  83.273  22.597  0.00  0.00    +0.109 A 
ATOM     25  C   LIG    1      -40.703  83.784  21.340  0.00  0.00    +0.149 A 
ATOM     26  F   LIG    1      -41.023  83.145  20.206  0.00  0.00    -0.203 F 
ATOM     27  C   LIG    1      -39.988  84.975  21.239  0.00  0.00    +0.042 A 
ATOM     28  C   LIG    1      -39.597  85.633  22.397  0.00  0.00    +0.023 A 
ATOM     29  C   LIG    1      -39.937  85.063  23.611  0.00  0.00    +0.111 A 
ATOM     30  N   LIG    1      -40.639  83.910  23.736  0.00  0.00    -0.252 NA
ENDBRANCH  22  24
ENDBRANCH  14  16
ENDBRANCH   4  12
BRANCH   1  31
ATOM     31  C   LIG    1      -36.645  75.738  26.503  0.00  0.00    +0.233 C 
ATOM     32  N   LIG    1      -35.898  76.714  26.859  0.00  0.00    -0.241 NA
BRANCH  31  33
ATOM     33  O   LIG    1      -36.436  74.436  26.798  0.00  0.00    -0.491 OA
ATOM     34  H   LIG    1      -37.236  73.900  26.719  0.00  0.00    +0.294 HD
ENDBRANCH  31  33
BRANCH  32  35
ATOM     35  C   LIG    1      -34.716  76.522  27.674  0.00  0.00    +0.222 C 
BRANCH  35  36
ATOM     36  C   LIG    1      -33.706  77.547  27.323  0.00  0.00    +0.158 A 
ATOM     37  C   LIG    1      -33.135  78.601  27.994  0.00  0.00    +0.069 A 
ATOM     38  C   LIG    1      -32.275  79.181  27.045  0.00  0.00    +0.157 A 
ATOM     39  N   LIG    1      -32.300  78.530  25.880  0.00  0.00    -0.086 NA
ATOM     40  O   LIG    1      -33.202  77.495  26.059  0.00  0.00    -0.358 OA
ENDBRANCH  35  36
ENDBRANCH  32  35
ENDBRANCH   1  31
TORSDOF 8
ENDMDL
MODEL 5
REMARK VINA RESULT:      -6.4      9.736     13.882
REMARK  Name = pdb/CHEMBL3971279.pdb
REMARK                            x       y       z     vdW  Elec       q    Type
REMARK                         _______ _______ _______ _____ _____    ______ ____
ROOT
ATOM      1  C   LIG    1      -24.874  82.985  37.323  0.00  0.00    +0.131 C 
ATOM      2  N   LIG    1      -23.810  83.506  37.946  0.00  0.00    -0.141 NA
ATOM      3  N   LIG    1      -22.850  82.551  37.869  0.00  0.00    -0.201 N 
ATOM      4  C   LIG    1      -23.220  81.545  36.971  0.00  0.00    +0.185 C 
ATOM      5  C   LIG    1      -24.551  81.749  36.718  0.00  0.00    +0.056 C 
ENDROOT
BRANCH   3   6
ATOM      6  C   LIG    1      -21.658  82.682  38.636  0.00  0.00    +0.052 A 
ATOM      7  C   LIG    1      -21.544  81.985  39.848  0.00  0.00    +0.025 A 
ATOM      8  C   LIG    1      -20.380  82.089  40.616  0.00  0.00    +0.002 A 
ATOM      9  C   LIG    1      -19.314  82.863  40.164  0.00  0.00    +0.000 A 
ATOM     10  C   LIG    1      -19.407  83.529  38.945  0.00  0.00    +0.002 A 
ATOM     11  C   LIG    1      -20.574  83.440  38.175  0.00  0.00    +0.025 A 
ENDBRANCH   3   6
BRANCH   4  12
ATOM     12  N   LIG    1      -22.393  80.580  36.381  0.00  0.00    -0.282 N 
ATOM     13  H   LIG    1      -22.502  79.630  36.721  0.00  0.00    +0.152 HD
ATOM     14  C   LIG    1      -21.330  80.867  35.456  0.00  0.00    +0.247 C 
ATOM     15  O   LIG    1      -21.130  82.011  35.085  0.00  0.00    -0.270 OA
BRANCH  14  16
ATOM     16  C   LIG    1      -20.481  79.747  34.954  0.00  0.00    +0.056 A 
ATOM     17  C   LIG    1      -19.349  79.246  35.604  0.00  0.00    +0.056 A 
ATOM     18 CL   LIG    1      -18.724  79.838  37.098  0.00  0.00    -0.083 Cl
ATOM     19  C   LIG    1      -18.648  78.175  35.050  0.00  0.00    +0.059 A 
ATOM     20  C   LIG    1      -19.068  77.587  33.859  0.00  0.00    +0.134 A 
ATOM     21  F   LIG    1      -18.375  76.521  33.440  0.00  0.00    -0.205 F 
ATOM     22  C   LIG    1      -20.190  78.044  33.160  0.00  0.00    +0.039 A 
ATOM     23  C   LIG    1      -20.877  79.143  33.733  0.00  0.00    +0.027 A 
BRANCH  22  24
ATOM     24  C   LIG    1      -20.697  77.390  31.930  0.00  0.00    +0.109 A 
ATOM     25  C   LIG    1      -21.852  76.606  31.858  0.00  0.00    +0.149 A 
ATOM     26  F   LIG    1      -22.574  76.303  32.946  0.00  0.00    -0.203 F 
ATOM     27  C   LIG    1      -22.265  76.084  30.634  0.00  0.00    +0.042 A 
ATOM     28  C   LIG    1      -21.509  76.337  29.498  0.00  0.00    +0.023 A 
ATOM     29  C   LIG    1      -20.364  77.100  29.639  0.00  0.00    +0.111 A 
ATOM     30  N   LIG    1      -19.945  77.626  30.817  0.00  0.00    -0.252 NA
ENDBRANCH  22  24
ENDBRANCH  14  16
ENDBRANCH   4  12
BRANCH   1  31
ATOM     31  C   LIG    1      -26.170  83.651  37.247  0.00  0.00    +0.233 C 
ATOM     32  N   LIG    1      -26.529  84.259  36.179  0.00  0.00    -0.241 NA
BRANCH  31  33
ATOM     33  O   LIG    1      -26.905  83.539  38.376  0.00  0.00    -0.491 OA
ATOM     34  H   LIG    1      -27.769  83.135  38.223  0.00  0.00    +0.294 HD
ENDBRANCH  31  33
BRANCH  32  35
ATOM     35  C   LIG    1      -27.824  84.894  36.052  0.00  0.00    +0.222 C 
BRANCH  35  36
ATOM     36  C   LIG    1      -27.654  86.366  36.073  0.00  0.00    +0.158 A 
ATOM     37  C   LIG    1      -28.404  87.412  36.551  0.00  0.00    +0.069 A 
ATOM     38  C   LIG    1      -27.661  88.551  36.197  0.00  0.00    +0.157 A 
ATOM     39  N   LIG    1      -26.531  88.236  35.561  0.00  0.00    -0.086 NA
ATOM     40  O   LIG    1      -26.526  86.854  35.487  0.00  0.00    -0.358 OA
ENDBRANCH  35  36
ENDBRANCH  32  35
ENDBRANCH   1  31
TORSDOF 8
ENDMDL
MODEL 6
REMARK VINA RESULT:      -6.1      9.455     16.427
REMARK  Name = pdb/CHEMBL3971279.pdb
REMARK                            x       y       z     vdW  Elec       q    Type
REMARK                         _______ _______ _______ _____ _____    ______ ____
ROOT
ATOM      1  C   LIG    1      -40.534  73.051  23.849  0.00  0.00    +0.131 C 
ATOM      2  N   LIG    1      -40.188  71.781  24.099  0.00  0.00    -0.141 NA
ATOM      3  N   LIG    1      -38.893  71.838  24.500  0.00  0.00    -0.201 N 
ATOM      4  C   LIG    1      -38.509  73.159  24.756  0.00  0.00    +0.185 C 
ATOM      5  C   LIG    1      -39.503  73.940  24.227  0.00  0.00    +0.056 C 
ENDROOT
BRANCH   3   6
ATOM      6  C   LIG    1      -38.137  70.639  24.624  0.00  0.00    +0.052 A 
ATOM      7  C   LIG    1      -37.984  70.054  25.891  0.00  0.00    +0.025 A 
ATOM      8  C   LIG    1      -37.254  68.870  26.038  0.00  0.00    +0.002 A 
ATOM      9  C   LIG    1      -36.701  68.249  24.921  0.00  0.00    +0.000 A 
ATOM     10  C   LIG    1      -36.879  68.805  23.657  0.00  0.00    +0.002 A 
ATOM     11  C   LIG    1      -37.599  69.998  23.501  0.00  0.00    +0.025 A 
ENDBRANCH   3   6
BRANCH   4  12
ATOM     12  N   LIG    1      -37.391  73.598  25.478  0.00  0.00    -0.282 N 
ATOM     13  H   LIG    1      -36.567  73.824  24.931  0.00  0.00    +0.152 HD
ATOM     14  C   LIG    1      -37.295  73.610  26.913  0.00  0.00    +0.247 C 
ATOM     15  O   LIG    1      -38.248  73.276  27.596  0.00  0.00    -0.270 OA
BRANCH  14  16
ATOM     16  C   LIG    1      -36.018  74.042  27.552  0.00  0.00    +0.056 A 
ATOM     17  C   LIG    1      -35.091  73.184  28.151  0.00  0.00    +0.056 A 
ATOM     18 CL   LIG    1      -35.261  71.472  28.268  0.00  0.00    -0.083 Cl
ATOM     19  C   LIG    1      -33.916  73.703  28.694  0.00  0.00    +0.059 A 
ATOM     20  C   LIG    1      -33.645  75.068  28.638  0.00  0.00    +0.134 A 
ATOM     21  F   LIG    1      -32.462  75.464  29.122  0.00  0.00    -0.205 F 
ATOM     22  C   LIG    1      -34.533  75.977  28.055  0.00  0.00    +0.039 A 
ATOM     23  C   LIG    1      -35.728  75.430  27.525  0.00  0.00    +0.027 A 
BRANCH  22  24
ATOM     24  C   LIG    1      -34.236  77.423  27.920  0.00  0.00    +0.109 A 
ATOM     25  C   LIG    1      -33.152  77.956  27.215  0.00  0.00    +0.149 A 
ATOM     26  F   LIG    1      -32.218  77.176  26.654  0.00  0.00    -0.203 F 
ATOM     27  C   LIG    1      -33.001  79.336  27.108  0.00  0.00    +0.042 A 
ATOM     28  C   LIG    1      -33.924  80.171  27.723  0.00  0.00    +0.023 A 
ATOM     29  C   LIG    1      -34.961  79.583  28.426  0.00  0.00    +0.111 A 
ATOM     30  N   LIG    1      -35.134  78.242  28.538  0.00  0.00    -0.252 NA
ENDBRANCH  22  24
ENDBRANCH  14  16
ENDBRANCH   4  12
BRANCH   1  31
ATOM     31  C   LIG    1      -41.831  73.441  23.306  0.00  0.00    +0.233 C 
ATOM     32  N   LIG    1      -42.355  72.787  22.338  0.00  0.00    -0.241 NA
BRANCH  31  33
ATOM     33  O   LIG    1      -42.381  74.508  23.926  0.00  0.00    -0.491 OA
ATOM     34  H   LIG    1      -43.164  74.843  23.473  0.00  0.00    +0.294 HD
ENDBRANCH  31  33
BRANCH  32  35
ATOM     35  C   LIG    1      -43.659  73.117  21.803  0.00  0.00    +0.222 C 
BRANCH  35  36
ATOM     36  C   LIG    1      -43.907  72.315  20.582  0.00  0.00    +0.158 A 
ATOM     37  C   LIG    1      -44.967  72.183  19.719  0.00  0.00    +0.069 A 
ATOM     38  C   LIG    1      -44.533  71.218  18.794  0.00  0.00    +0.157 A 
ATOM     39  N   LIG    1      -43.294  70.794  19.054  0.00  0.00    -0.086 NA
ATOM     40  O   LIG    1      -42.898  71.492  20.182  0.00  0.00    -0.358 OA
ENDBRANCH  35  36
ENDBRANCH  32  35
ENDBRANCH   1  31
TORSDOF 8
ENDMDL
MODEL 7
REMARK VINA RESULT:      -6.1     18.994     21.957
REMARK  Name = pdb/CHEMBL3971279.pdb
REMARK                            x       y       z     vdW  Elec       q    Type
REMARK                         _______ _______ _______ _____ _____    ______ ____
ROOT
ATOM      1  C   LIG    1      -25.655  79.742  12.890  0.00  0.00    +0.131 C 
ATOM      2  N   LIG    1      -24.710  79.257  13.706  0.00  0.00    -0.141 NA
ATOM      3  N   LIG    1      -23.895  80.309  13.970  0.00  0.00    -0.201 N 
ATOM      4  C   LIG    1      -24.474  81.507  13.540  0.00  0.00    +0.185 C 
ATOM      5  C   LIG    1      -25.529  81.142  12.745  0.00  0.00    +0.056 C 
ENDROOT
BRANCH   3   6
ATOM      6  C   LIG    1      -22.649  80.092  14.622  0.00  0.00    +0.052 A 
ATOM      7  C   LIG    1      -22.479  80.542  15.941  0.00  0.00    +0.025 A 
ATOM      8  C   LIG    1      -21.268  80.333  16.607  0.00  0.00    +0.002 A 
ATOM      9  C   LIG    1      -20.233  79.649  15.975  0.00  0.00    +0.000 A 
ATOM     10  C   LIG    1      -20.408  79.167  14.680  0.00  0.00    +0.002 A 
ATOM     11  C   LIG    1      -21.614  79.383  13.999  0.00  0.00    +0.025 A 
ENDBRANCH   3   6
BRANCH   4  12
ATOM     12  N   LIG    1      -24.114  82.810  13.909  0.00  0.00    -0.282 N 
ATOM     13  H   LIG    1      -24.761  83.297  14.520  0.00  0.00    +0.152 HD
ATOM     14  C   LIG    1      -22.989  83.531  13.376  0.00  0.00    +0.247 C 
ATOM     15  O   LIG    1      -22.233  82.993  12.584  0.00  0.00    -0.270 OA
BRANCH  14  16
ATOM     16  C   LIG    1      -22.758  84.941  13.808  0.00  0.00    +0.056 A 
ATOM     17  C   LIG    1      -22.557  85.351  15.129  0.00  0.00    +0.056 A 
ATOM     18 CL   LIG    1      -22.549  84.303  16.499  0.00  0.00    -0.083 Cl
ATOM     19  C   LIG    1      -22.324  86.698  15.409  0.00  0.00    +0.059 A 
ATOM     20  C   LIG    1      -22.278  87.641  14.386  0.00  0.00    +0.134 A 
ATOM     21  F   LIG    1      -21.980  88.897  14.743  0.00  0.00    -0.205 F 
ATOM     22  C   LIG    1      -22.474  87.294  13.046  0.00  0.00    +0.039 A 
ATOM     23  C   LIG    1      -22.725  85.924  12.787  0.00  0.00    +0.027 A 
BRANCH  22  24
ATOM     24  C   LIG    1      -22.358  88.268  11.934  0.00  0.00    +0.109 A 
ATOM     25  C   LIG    1      -21.160  88.819  11.473  0.00  0.00    +0.149 A 
ATOM     26  F   LIG    1      -19.987  88.567  12.069  0.00  0.00    -0.203 F 
ATOM     27  C   LIG    1      -21.165  89.685  10.382  0.00  0.00    +0.042 A 
ATOM     28  C   LIG    1      -22.371  90.006   9.775  0.00  0.00    +0.023 A 
ATOM     29  C   LIG    1      -23.525  89.448  10.293  0.00  0.00    +0.111 A 
ATOM     30  N   LIG    1      -23.546  88.596  11.348  0.00  0.00    -0.252 NA
ENDBRANCH  22  24
ENDBRANCH  14  16
ENDBRANCH   4  12
BRANCH   1  31
ATOM     31  C   LIG    1      -26.698  78.919  12.286  0.00  0.00    +0.233 C 
ATOM     32  N   LIG    1      -27.065  79.118  11.076  0.00  0.00    -0.241 NA
BRANCH  31  33
ATOM     33  O   LIG    1      -27.189  77.970  13.113  0.00  0.00    -0.491 OA
ATOM     34  H   LIG    1      -27.947  78.276  13.628  0.00  0.00    +0.294 HD
ENDBRANCH  31  33
BRANCH  32  35
ATOM     35  C   LIG    1      -28.065  78.294  10.429  0.00  0.00    +0.222 C 
BRANCH  35  36
ATOM     36  C   LIG    1      -29.403  78.900  10.627  0.00  0.00    +0.158 A 
ATOM     37  C   LIG    1      -30.212  79.709   9.867  0.00  0.00    +0.069 A 
ATOM     38  C   LIG    1      -31.332  79.935  10.686  0.00  0.00    +0.157 A 
ATOM     39  N   LIG    1      -31.231  79.304  11.859  0.00  0.00    -0.086 NA
ATOM     40  O   LIG    1      -30.013  78.647  11.817  0.00  0.00    -0.358 OA
ENDBRANCH  35  36
ENDBRANCH  32  35
ENDBRANCH   1  31
TORSDOF 8
ENDMDL
MODEL 8
REMARK VINA RESULT:      -6.1      7.005     10.954
REMARK  Name = pdb/CHEMBL3971279.pdb
REMARK                            x       y       z     vdW  Elec       q    Type
REMARK                         _______ _______ _______ _____ _____    ______ ____
ROOT
ATOM      1  C   LIG    1      -29.402  95.414  30.741  0.00  0.00    +0.131 C 
ATOM      2  N   LIG    1      -28.472  95.755  31.643  0.00  0.00    -0.141 NA
ATOM      3  N   LIG    1      -28.358  94.678  32.460  0.00  0.00    -0.201 N 
ATOM      4  C   LIG    1      -29.015  93.570  31.917  0.00  0.00    +0.185 C 
ATOM      5  C   LIG    1      -29.781  94.061  30.893  0.00  0.00    +0.056 C 
ENDROOT
BRANCH   3   6
ATOM      6  C   LIG    1      -27.622  94.786  33.674  0.00  0.00    +0.052 A 
ATOM      7  C   LIG    1      -27.770  95.936  34.464  0.00  0.00    +0.025 A 
ATOM      8  C   LIG    1      -27.065  96.062  35.666  0.00  0.00    +0.002 A 
ATOM      9  C   LIG    1      -26.236  95.031  36.099  0.00  0.00    +0.000 A 
ATOM     10  C   LIG    1      -26.112  93.871  35.337  0.00  0.00    +0.002 A 
ATOM     11  C   LIG    1      -26.805  93.742  34.125  0.00  0.00    +0.025 A 
ENDBRANCH   3   6
BRANCH   4  12
ATOM     12  N   LIG    1      -28.862  92.225  32.279  0.00  0.00    -0.282 N 
ATOM     13  H   LIG    1      -28.196  91.688  31.733  0.00  0.00    +0.152 HD
ATOM     14  C   LIG    1      -29.671  91.541  33.253  0.00  0.00    +0.247 C 
ATOM     15  O   LIG    1      -30.528  92.146  33.873  0.00  0.00    -0.270 OA
BRANCH  14  16
ATOM     16  C   LIG    1      -29.443  90.086  33.494  0.00  0.00    +0.056 A 
ATOM     17  C   LIG    1      -28.580  89.559  34.459  0.00  0.00    +0.056 A 
ATOM     18 CL   LIG    1      -27.615  90.495  35.539  0.00  0.00    -0.083 Cl
ATOM     19  C   LIG    1      -28.469  88.177  34.609  0.00  0.00    +0.059 A 
ATOM     20  C   LIG    1      -29.218  87.310  33.816  0.00  0.00    +0.134 A 
ATOM     21  F   LIG    1      -29.097  86.003  34.080  0.00  0.00    -0.205 F 
ATOM     22  C   LIG    1      -30.095  87.775  32.833  0.00  0.00    +0.039 A 
ATOM     23  C   LIG    1      -30.180  89.182  32.686  0.00  0.00    +0.027 A 
BRANCH  22  24
ATOM     24  C   LIG    1      -30.955  86.876  32.026  0.00  0.00    +0.109 A 
ATOM     25  C   LIG    1      -30.802  86.636  30.658  0.00  0.00    +0.149 A 
ATOM     26  F   LIG    1      -29.886  87.281  29.922  0.00  0.00    -0.203 F 
ATOM     27  C   LIG    1      -31.636  85.727  30.012  0.00  0.00    +0.042 A 
ATOM     28  C   LIG    1      -32.628  85.081  30.737  0.00  0.00    +0.023 A 
ATOM     29  C   LIG    1      -32.745  85.379  32.082  0.00  0.00    +0.111 A 
ATOM     30  N   LIG    1      -31.940  86.254  32.736  0.00  0.00    -0.252 NA
ENDBRANCH  22  24
ENDBRANCH  14  16
ENDBRANCH   4  12
BRANCH   1  31
ATOM     31  C   LIG    1      -29.900  96.323  29.714  0.00  0.00    +0.233 C 
ATOM     32  N   LIG    1      -30.012  95.935  28.500  0.00  0.00    -0.241 NA
BRANCH  31  33
ATOM     33  O   LIG    1      -30.221  97.549  30.183  0.00  0.00    -0.491 OA
ATOM     34  H   LIG    1      -30.749  97.516  30.991  0.00  0.00    +0.294 HD
ENDBRANCH  31  33
BRANCH  32  35
ATOM     35  C   LIG    1      -30.543  96.794  27.463  0.00  0.00    +0.222 C 
BRANCH  35  36
ATOM     36  C   LIG    1      -30.556  96.060  26.175  0.00  0.00    +0.158 A 
ATOM     37  C   LIG    1      -31.534  95.454  25.426  0.00  0.00    +0.069 A 
ATOM     38  C   LIG    1      -30.837  94.916  24.330  0.00  0.00    +0.157 A 
ATOM     39  N   LIG    1      -29.530  95.179  24.388  0.00  0.00    -0.086 NA
ATOM     40  O   LIG    1      -29.354  95.906  25.554  0.00  0.00    -0.358 OA
ENDBRANCH  35  36
ENDBRANCH  32  35
ENDBRANCH   1  31
TORSDOF 8
ENDMDL
MODEL 9
REMARK VINA RESULT:      -6.1     19.207     21.878
REMARK  Name = pdb/CHEMBL3971279.pdb
REMARK                            x       y       z     vdW  Elec       q    Type
REMARK                         _______ _______ _______ _____ _____    ______ ____
ROOT
ATOM      1  C   LIG    1      -27.420  78.686  11.927  0.00  0.00    +0.131 C 
ATOM      2  N   LIG    1      -26.853  77.788  12.743  0.00  0.00    -0.141 NA
ATOM      3  N   LIG    1      -25.556  78.172  12.845  0.00  0.00    -0.201 N 
ATOM      4  C   LIG    1      -25.372  79.452  12.312  0.00  0.00    +0.185 C 
ATOM      5  C   LIG    1      -26.520  79.730  11.618  0.00  0.00    +0.056 C 
ENDROOT
BRANCH   3   6
ATOM      6  C   LIG    1      -24.607  77.303  13.454  0.00  0.00    +0.052 A 
ATOM      7  C   LIG    1      -24.232  76.125  12.789  0.00  0.00    +0.025 A 
ATOM      8  C   LIG    1      -23.295  75.260  13.361  0.00  0.00    +0.002 A 
ATOM      9  C   LIG    1      -22.706  75.578  14.583  0.00  0.00    +0.000 A 
ATOM     10  C   LIG    1      -23.048  76.762  15.231  0.00  0.00    +0.002 A 
ATOM     11  C   LIG    1      -23.995  77.630  14.671  0.00  0.00    +0.025 A 
ENDBRANCH   3   6
BRANCH   4  12
ATOM     12  N   LIG    1      -24.283  80.311  12.513  0.00  0.00    -0.282 N 
ATOM     13  H   LIG    1      -23.529  80.242  11.838  0.00  0.00    +0.152 HD
ATOM     14  C   LIG    1      -24.109  81.159  13.662  0.00  0.00    +0.247 C 
ATOM     15  O   LIG    1      -24.969  81.208  14.525  0.00  0.00    -0.270 OA
BRANCH  14  16
ATOM     16  C   LIG    1      -22.866  81.977  13.780  0.00  0.00    +0.056 A 
ATOM     17  C   LIG    1      -21.571  81.459  13.867  0.00  0.00    +0.056 A 
ATOM     18 CL   LIG    1      -21.175  79.780  13.864  0.00  0.00    -0.083 Cl
ATOM     19  C   LIG    1      -20.481  82.326  13.948  0.00  0.00    +0.059 A 
ATOM     20  C   LIG    1      -20.665  83.706  13.930  0.00  0.00    +0.134 A 
ATOM     21  F   LIG    1      -19.557  84.458  13.941  0.00  0.00    -0.205 F 
ATOM     22  C   LIG    1      -21.935  84.285  13.848  0.00  0.00    +0.039 A 
ATOM     23  C   LIG    1      -23.028  83.385  13.784  0.00  0.00    +0.027 A 
BRANCH  22  24
ATOM     24  C   LIG    1      -22.151  85.749  13.756  0.00  0.00    +0.109 A 
ATOM     25  C   LIG    1      -22.318  86.604  14.848  0.00  0.00    +0.149 A 
ATOM     26  F   LIG    1      -22.379  86.145  16.106  0.00  0.00    -0.203 F 
ATOM     27  C   LIG    1      -22.460  87.975  14.646  0.00  0.00    +0.042 A 
ATOM     28  C   LIG    1      -22.453  88.475  13.350  0.00  0.00    +0.023 A 
ATOM     29  C   LIG    1      -22.308  87.575  12.310  0.00  0.00    +0.111 A 
ATOM     30  N   LIG    1      -22.160  86.237  12.482  0.00  0.00    -0.252 NA
ENDBRANCH  22  24
ENDBRANCH  14  16
ENDBRANCH   4  12
BRANCH   1  31
ATOM     31  C   LIG    1      -28.805  78.601  11.473  0.00  0.00    +0.233 C 
ATOM     32  N   LIG    1      -29.148  79.078  10.336  0.00  0.00    -0.241 NA
BRANCH  31  33
ATOM     33  O   LIG    1      -29.626  77.980  12.348  0.00  0.00    -0.491 OA
ATOM     34  H   LIG    1      -30.502  77.805  11.982  0.00  0.00    +0.294 HD
ENDBRANCH  31  33
BRANCH  32  35
ATOM     35  C   LIG    1      -30.502  78.974   9.834  0.00  0.00    +0.222 C 
BRANCH  35  36
ATOM     36  C   LIG    1      -31.253  80.202  10.186  0.00  0.00    +0.158 A 
ATOM     37  C   LIG    1      -32.490  80.448  10.728  0.00  0.00    +0.069 A 
ATOM     38  C   LIG    1      -32.576  81.851  10.754  0.00  0.00    +0.157 A 
ATOM     39  N   LIG    1      -31.472  82.431  10.277  0.00  0.00    -0.086 NA
ATOM     40  O   LIG    1      -30.635  81.386   9.923  0.00  0.00    -0.358 OA
ENDBRANCH  35  36
ENDBRANCH  32  35
ENDBRANCH   1  31
TORSDOF 8
ENDMDL
