MODEL 1
REMARK VINA RESULT:      -6.2      0.000      0.000
REMARK  Name = pdb/CHEMBL3908178.pdb
REMARK                            x       y       z     vdW  Elec       q    Type
REMARK                         _______ _______ _______ _____ _____    ______ ____
ROOT
ATOM      1  C   LIG    1      -38.723  78.231  26.723  0.00  0.00    +0.133 A 
ATOM      2  C   LIG    1      -37.607  78.136  27.530  0.00  0.00    +0.183 A 
ATOM      3  N   LIG    1      -36.250  78.189  27.307  0.00  0.00    -0.211 NA
ATOM      4  C   LIG    1      -35.430  78.048  28.328  0.00  0.00    +0.126 A 
ATOM      5  C   LIG    1      -35.950  77.878  29.736  0.00  0.00    +0.063 A 
ATOM      6  C   LIG    1      -37.274  77.843  29.906  0.00  0.00    +0.118 A 
ATOM      7  N   LIG    1      -38.123  77.956  28.819  0.00  0.00    -0.220 N 
ATOM      8  N   LIG    1      -39.481  77.911  28.845  0.00  0.00    -0.171 NA
ATOM      9  C   LIG    1      -39.831  78.123  27.577  0.00  0.00    +0.165 A 
ENDROOT
BRANCH   4  10
ATOM     10  N   LIG    1      -34.052  78.059  28.116  0.00  0.00    -0.308 N 
ATOM     11  C   LIG    1      -33.324  76.942  27.471  0.00  0.00    +0.107 C 
ATOM     12  C   LIG    1      -32.281  77.631  26.561  0.00  0.00    +0.029 C 
ATOM     13  C   LIG    1      -32.637  79.112  26.577  0.00  0.00    +0.021 C 
ATOM     14  C   LIG    1      -33.316  79.309  27.919  0.00  0.00    +0.107 C 
BRANCH  11  15
ATOM     15  C   LIG    1      -32.667  76.009  28.490  0.00  0.00    -0.006 A 
ATOM     16  C   LIG    1      -33.130  74.702  28.743  0.00  0.00    +0.046 A 
ATOM     17 CL   LIG    1      -34.556  74.073  27.997  0.00  0.00    -0.083 Cl
ATOM     18  C   LIG    1      -32.457  73.850  29.639  0.00  0.00    +0.023 A 
ATOM     19  C   LIG    1      -31.319  74.291  30.312  0.00  0.00    +0.040 A 
ATOM     20  C   LIG    1      -30.868  75.581  30.089  0.00  0.00    +0.124 A 
ATOM     21  F   LIG    1      -29.788  76.025  30.743  0.00  0.00    -0.205 F 
ATOM     22  C   LIG    1      -31.520  76.427  29.194  0.00  0.00    +0.045 A 
ENDBRANCH  11  15
ENDBRANCH   4  10
BRANCH   1  24
ATOM     23  C   LIG    1      -38.929  77.693  24.484  0.00  0.00    +0.283 C 
ATOM     24  N   LIG    1      -38.835  78.597  25.380  0.00  0.00    -0.194 NA
BRANCH  23  27
ATOM     25  C   LIG    1      -38.049  74.084  24.902  0.00  0.00    +0.133 C 
ATOM     26  C   LIG    1      -37.588  75.550  24.848  0.00  0.00    +0.140 C 
ATOM     27  N   LIG    1      -38.777  76.321  24.468  0.00  0.00    -0.283 N 
ATOM     28  C   LIG    1      -39.928  75.429  24.368  0.00  0.00    +0.112 C 
ATOM     29  C   LIG    1      -39.533  74.212  25.185  0.00  0.00    +0.052 C 
BRANCH  25  30
ATOM     30  O   LIG    1      -37.405  73.366  25.946  0.00  0.00    -0.390 OA
ATOM     31  H   LIG    1      -37.016  72.561  25.561  0.00  0.00    +0.210 HD
ENDBRANCH  25  30
ENDBRANCH  23  27
BRANCH  23  32
ATOM     32  O   LIG    1      -39.221  78.190  23.262  0.00  0.00    -0.481 OA
ATOM     33  H   LIG    1      -40.148  78.093  23.044  0.00  0.00    +0.295 HD
ENDBRANCH  23  32
ENDBRANCH   1  24
TORSDOF 6
ENDMDL
MODEL 2
REMARK VINA RESULT:      -6.1     17.904     20.645
REMARK  Name = pdb/CHEMBL3908178.pdb
REMARK                            x       y       z     vdW  Elec       q    Type
REMARK                         _______ _______ _______ _____ _____    ______ ____
ROOT
ATOM      1  C   LIG    1      -22.197  84.124  12.043  0.00  0.00    +0.133 A 
ATOM      2  C   LIG    1      -23.149  83.163  12.321  0.00  0.00    +0.183 A 
ATOM      3  N   LIG    1      -23.160  82.005  13.064  0.00  0.00    -0.211 NA
ATOM      4  C   LIG    1      -24.265  81.289  13.114  0.00  0.00    +0.126 A 
ATOM      5  C   LIG    1      -25.524  81.739  12.411  0.00  0.00    +0.063 A 
ATOM      6  C   LIG    1      -25.469  82.874  11.709  0.00  0.00    +0.118 A 
ATOM      7  N   LIG    1      -24.291  83.597  11.638  0.00  0.00    -0.220 N 
ATOM      8  N   LIG    1      -24.090  84.747  10.943  0.00  0.00    -0.171 NA
ATOM      9  C   LIG    1      -22.832  85.077  11.233  0.00  0.00    +0.165 A 
ENDROOT
BRANCH   4  10
ATOM     10  N   LIG    1      -24.284  80.094  13.830  0.00  0.00    -0.308 N 
ATOM     11  C   LIG    1      -23.917  80.002  15.263  0.00  0.00    +0.107 C 
ATOM     12  C   LIG    1      -24.939  79.010  15.863  0.00  0.00    +0.029 C 
ATOM     13  C   LIG    1      -25.972  78.772  14.770  0.00  0.00    +0.021 C 
ATOM     14  C   LIG    1      -25.203  79.007  13.485  0.00  0.00    +0.107 C 
BRANCH  11  15
ATOM     15  C   LIG    1      -22.475  79.532  15.465  0.00  0.00    -0.006 A 
ATOM     16  C   LIG    1      -21.499  80.313  16.118  0.00  0.00    +0.046 A 
ATOM     17 CL   LIG    1      -21.821  81.923  16.655  0.00  0.00    -0.083 Cl
ATOM     18  C   LIG    1      -20.202  79.817  16.345  0.00  0.00    +0.023 A 
ATOM     19  C   LIG    1      -19.847  78.541  15.911  0.00  0.00    +0.040 A 
ATOM     20  C   LIG    1      -20.790  77.775  15.248  0.00  0.00    +0.124 A 
ATOM     21  F   LIG    1      -20.459  76.555  14.808  0.00  0.00    -0.205 F 
ATOM     22  C   LIG    1      -22.081  78.251  15.030  0.00  0.00    +0.045 A 
ENDBRANCH  11  15
ENDBRANCH   4  10
BRANCH   1  24
ATOM     23  C   LIG    1      -20.699  85.369  13.287  0.00  0.00    +0.283 C 
ATOM     24  N   LIG    1      -20.930  84.322  12.595  0.00  0.00    -0.194 NA
BRANCH  23  27
ATOM     25  C   LIG    1      -22.485  88.387  14.582  0.00  0.00    +0.133 C 
ATOM     26  C   LIG    1      -22.190  86.883  14.704  0.00  0.00    +0.140 C 
ATOM     27  N   LIG    1      -21.381  86.545  13.528  0.00  0.00    -0.283 N 
ATOM     28  C   LIG    1      -21.107  87.754  12.758  0.00  0.00    +0.112 C 
ATOM     29  C   LIG    1      -21.322  88.887  13.746  0.00  0.00    +0.052 C 
BRANCH  25  30
ATOM     30  O   LIG    1      -22.494  89.027  15.851  0.00  0.00    -0.390 OA
ATOM     31  H   LIG    1      -23.360  88.861  16.264  0.00  0.00    +0.210 HD
ENDBRANCH  25  30
ENDBRANCH  23  27
BRANCH  23  32
ATOM     32  O   LIG    1      -19.501  85.335  13.912  0.00  0.00    -0.481 OA
ATOM     33  H   LIG    1      -19.591  85.283  14.864  0.00  0.00    +0.295 HD
ENDBRANCH  23  32
ENDBRANCH   1  24
TORSDOF 6
ENDMDL
MODEL 3
REMARK VINA RESULT:      -6.1      3.199      6.426
REMARK  Name = pdb/CHEMBL3908178.pdb
REMARK                            x       y       z     vdW  Elec       q    Type
REMARK                         _______ _______ _______ _____ _____    ______ ____
ROOT
ATOM      1  C   LIG    1      -34.704  80.263  27.994  0.00  0.00    +0.133 A 
ATOM      2  C   LIG    1      -36.015  79.831  28.029  0.00  0.00    +0.183 A 
ATOM      3  N   LIG    1      -36.843  79.196  27.132  0.00  0.00    -0.211 NA
ATOM      4  C   LIG    1      -38.083  78.928  27.488  0.00  0.00    +0.126 A 
ATOM      5  C   LIG    1      -38.593  79.263  28.870  0.00  0.00    +0.063 A 
ATOM      6  C   LIG    1      -37.750  79.870  29.710  0.00  0.00    +0.118 A 
ATOM      7  N   LIG    1      -36.462  80.177  29.310  0.00  0.00    -0.220 N 
ATOM      8  N   LIG    1      -35.515  80.812  30.048  0.00  0.00    -0.171 NA
ATOM      9  C   LIG    1      -34.444  80.818  29.256  0.00  0.00    +0.165 A 
ENDROOT
BRANCH   4  10
ATOM     10  N   LIG    1      -38.949  78.321  26.580  0.00  0.00    -0.308 N 
ATOM     11  C   LIG    1      -39.761  77.126  26.911  0.00  0.00    +0.107 C 
ATOM     12  C   LIG    1      -41.128  77.387  26.238  0.00  0.00    +0.029 C 
ATOM     13  C   LIG    1      -41.079  78.830  25.753  0.00  0.00    +0.021 C 
ATOM     14  C   LIG    1      -39.603  79.084  25.515  0.00  0.00    +0.107 C 
BRANCH  11  15
ATOM     15  C   LIG    1      -39.117  75.830  26.416  0.00  0.00    -0.006 A 
ATOM     16  C   LIG    1      -38.090  75.167  27.120  0.00  0.00    +0.046 A 
ATOM     17 CL   LIG    1      -37.391  75.823  28.557  0.00  0.00    -0.083 Cl
ATOM     18  C   LIG    1      -37.571  73.940  26.667  0.00  0.00    +0.023 A 
ATOM     19  C   LIG    1      -38.053  73.358  25.496  0.00  0.00    +0.040 A 
ATOM     20  C   LIG    1      -39.044  74.012  24.784  0.00  0.00    +0.124 A 
ATOM     21  F   LIG    1      -39.503  73.475  23.647  0.00  0.00    -0.205 F 
ATOM     22  C   LIG    1      -39.574  75.220  25.231  0.00  0.00    +0.045 A 
ENDBRANCH  11  15
ENDBRANCH   4  10
BRANCH   1  24
ATOM     23  C   LIG    1      -33.246  78.846  26.894  0.00  0.00    +0.283 C 
ATOM     24  N   LIG    1      -33.703  80.028  27.049  0.00  0.00    -0.194 NA
BRANCH  23  27
ATOM     25  C   LIG    1      -33.758  75.366  28.160  0.00  0.00    +0.133 C 
ATOM     26  C   LIG    1      -34.190  76.494  27.208  0.00  0.00    +0.140 C 
ATOM     27  N   LIG    1      -33.375  77.655  27.581  0.00  0.00    -0.283 N 
ATOM     28  C   LIG    1      -32.436  77.278  28.631  0.00  0.00    +0.112 C 
ATOM     29  C   LIG    1      -32.342  75.766  28.528  0.00  0.00    +0.052 C 
BRANCH  25  30
ATOM     30  O   LIG    1      -33.764  74.100  27.515  0.00  0.00    -0.390 OA
ATOM     31  H   LIG    1      -34.550  74.059  26.943  0.00  0.00    +0.210 HD
ENDBRANCH  25  30
ENDBRANCH  23  27
BRANCH  23  32
ATOM     32  O   LIG    1      -32.428  78.733  25.825  0.00  0.00    -0.481 OA
ATOM     33  H   LIG    1      -31.523  78.551  26.080  0.00  0.00    +0.295 HD
ENDBRANCH  23  32
ENDBRANCH   1  24
TORSDOF 6
ENDMDL
MODEL 4
REMARK VINA RESULT:      -6.0     19.419     22.350
REMARK  Name = pdb/CHEMBL3908178.pdb
REMARK                            x       y       z     vdW  Elec       q    Type
REMARK                         _______ _______ _______ _____ _____    ______ ____
ROOT
ATOM      1  C   LIG    1      -19.278  86.028  12.829  0.00  0.00    +0.133 A 
ATOM      2  C   LIG    1      -20.063  85.100  12.174  0.00  0.00    +0.183 A 
ATOM      3  N   LIG    1      -21.067  84.244  12.562  0.00  0.00    -0.211 NA
ATOM      4  C   LIG    1      -21.618  83.456  11.661  0.00  0.00    +0.126 A 
ATOM      5  C   LIG    1      -21.199  83.509  10.211  0.00  0.00    +0.063 A 
ATOM      6  C   LIG    1      -20.227  84.362   9.879  0.00  0.00    +0.118 A 
ATOM      7  N   LIG    1      -19.634  85.159  10.843  0.00  0.00    -0.220 N 
ATOM      8  N   LIG    1      -18.623  86.045  10.649  0.00  0.00    -0.171 NA
ATOM      9  C   LIG    1      -18.449  86.596  11.850  0.00  0.00    +0.165 A 
ENDROOT
BRANCH   4  10
ATOM     10  N   LIG    1      -22.610  82.554  12.043  0.00  0.00    -0.308 N 
ATOM     11  C   LIG    1      -23.533  82.798  13.175  0.00  0.00    +0.107 C 
ATOM     12  C   LIG    1      -24.902  82.280  12.679  0.00  0.00    +0.029 C 
ATOM     13  C   LIG    1      -24.716  81.978  11.198  0.00  0.00    +0.021 C 
ATOM     14  C   LIG    1      -23.239  81.652  11.077  0.00  0.00    +0.107 C 
BRANCH  11  15
ATOM     15  C   LIG    1      -23.084  82.093  14.456  0.00  0.00    -0.006 A 
ATOM     16  C   LIG    1      -22.715  82.789  15.626  0.00  0.00    +0.046 A 
ATOM     17 CL   LIG    1      -22.636  84.514  15.681  0.00  0.00    -0.083 Cl
ATOM     18  C   LIG    1      -22.373  82.102  16.805  0.00  0.00    +0.023 A 
ATOM     19  C   LIG    1      -22.375  80.709  16.837  0.00  0.00    +0.040 A 
ATOM     20  C   LIG    1      -22.712  80.014  15.687  0.00  0.00    +0.124 A 
ATOM     21  F   LIG    1      -22.700  78.676  15.697  0.00  0.00    -0.205 F 
ATOM     22  C   LIG    1      -23.065  80.685  14.518  0.00  0.00    +0.045 A 
ENDBRANCH  11  15
ENDBRANCH   4  10
BRANCH   1  24
ATOM     23  C   LIG    1      -20.357  87.298  14.431  0.00  0.00    +0.283 C 
ATOM     24  N   LIG    1      -19.378  86.538  14.125  0.00  0.00    -0.194 NA
BRANCH  23  27
ATOM     25  C   LIG    1      -22.560  89.185  12.073  0.00  0.00    +0.133 C 
ATOM     26  C   LIG    1      -21.196  89.046  12.768  0.00  0.00    +0.140 C 
ATOM     27  N   LIG    1      -21.351  87.938  13.718  0.00  0.00    -0.283 N 
ATOM     28  C   LIG    1      -22.683  87.359  13.581  0.00  0.00    +0.112 C 
ATOM     29  C   LIG    1      -23.141  87.790  12.199  0.00  0.00    +0.052 C 
BRANCH  25  30
ATOM     30  O   LIG    1      -22.420  89.542  10.704  0.00  0.00    -0.390 OA
ATOM     31  H   LIG    1      -21.470  89.633  10.514  0.00  0.00    +0.210 HD
ENDBRANCH  25  30
ENDBRANCH  23  27
BRANCH  23  32
ATOM     32  O   LIG    1      -20.429  87.558  15.755  0.00  0.00    -0.481 OA
ATOM     33  H   LIG    1      -21.325  87.740  16.040  0.00  0.00    +0.295 HD
ENDBRANCH  23  32
ENDBRANCH   1  24
TORSDOF 6
ENDMDL
MODEL 5
REMARK VINA RESULT:      -5.9      4.042      7.664
REMARK  Name = pdb/CHEMBL3908178.pdb
REMARK                            x       y       z     vdW  Elec       q    Type
REMARK                         _______ _______ _______ _____ _____    ______ ____
ROOT
ATOM      1  C   LIG    1      -34.653  79.763  28.021  0.00  0.00    +0.133 A 
ATOM      2  C   LIG    1      -35.888  79.144  28.040  0.00  0.00    +0.183 A 
ATOM      3  N   LIG    1      -36.660  78.508  27.095  0.00  0.00    -0.211 NA
ATOM      4  C   LIG    1      -37.832  78.022  27.451  0.00  0.00    +0.126 A 
ATOM      5  C   LIG    1      -38.318  78.112  28.879  0.00  0.00    +0.063 A 
ATOM      6  C   LIG    1      -37.530  78.730  29.763  0.00  0.00    +0.118 A 
ATOM      7  N   LIG    1      -36.317  79.266  29.367  0.00  0.00    -0.220 N 
ATOM      8  N   LIG    1      -35.436  79.939  30.151  0.00  0.00    -0.171 NA
ATOM      9  C   LIG    1      -34.414  80.194  29.334  0.00  0.00    +0.165 A 
ENDROOT
BRANCH   4  10
ATOM     10  N   LIG    1      -38.645  77.409  26.500  0.00  0.00    -0.308 N 
ATOM     11  C   LIG    1      -38.927  78.003  25.172  0.00  0.00    +0.107 C 
ATOM     12  C   LIG    1      -38.893  76.806  24.196  0.00  0.00    +0.029 C 
ATOM     13  C   LIG    1      -38.366  75.629  25.006  0.00  0.00    +0.021 C 
ATOM     14  C   LIG    1      -38.779  75.953  26.429  0.00  0.00    +0.107 C 
BRANCH  11  15
ATOM     15  C   LIG    1      -40.270  78.735  25.136  0.00  0.00    -0.006 A 
ATOM     16  C   LIG    1      -40.560  79.758  24.210  0.00  0.00    +0.046 A 
ATOM     17 CL   LIG    1      -39.378  80.353  23.099  0.00  0.00    -0.083 Cl
ATOM     18  C   LIG    1      -41.832  80.360  24.163  0.00  0.00    +0.023 A 
ATOM     19  C   LIG    1      -42.833  79.965  25.049  0.00  0.00    +0.040 A 
ATOM     20  C   LIG    1      -42.552  78.977  25.978  0.00  0.00    +0.124 A 
ATOM     21  F   LIG    1      -43.497  78.601  26.847  0.00  0.00    -0.205 F 
ATOM     22  C   LIG    1      -41.301  78.367  26.023  0.00  0.00    +0.045 A 
ENDBRANCH  11  15
ENDBRANCH   4  10
BRANCH   1  24
ATOM     23  C   LIG    1      -32.989  78.741  26.784  0.00  0.00    +0.283 C 
ATOM     24  N   LIG    1      -33.674  79.790  27.025  0.00  0.00    -0.194 NA
BRANCH  23  27
ATOM     25  C   LIG    1      -32.440  75.793  29.018  0.00  0.00    +0.133 C 
ATOM     26  C   LIG    1      -32.058  77.229  28.620  0.00  0.00    +0.140 C 
ATOM     27  N   LIG    1      -32.831  77.518  27.407  0.00  0.00    -0.283 N 
ATOM     28  C   LIG    1      -33.702  76.390  27.100  0.00  0.00    +0.112 C 
ATOM     29  C   LIG    1      -33.823  75.638  28.414  0.00  0.00    +0.052 C 
BRANCH  25  30
ATOM     30  O   LIG    1      -32.495  75.634  30.429  0.00  0.00    -0.390 OA
ATOM     31  H   LIG    1      -31.681  76.013  30.805  0.00  0.00    +0.210 HD
ENDBRANCH  25  30
ENDBRANCH  23  27
BRANCH  23  32
ATOM     32  O   LIG    1      -32.221  78.855  25.679  0.00  0.00    -0.481 OA
ATOM     33  H   LIG    1      -32.258  79.734  25.302  0.00  0.00    +0.295 HD
ENDBRANCH  23  32
ENDBRANCH   1  24
TORSDOF 6
ENDMDL
MODEL 6
REMARK VINA RESULT:      -5.9      3.289      6.838
REMARK  Name = pdb/CHEMBL3908178.pdb
REMARK                            x       y       z     vdW  Elec       q    Type
REMARK                         _______ _______ _______ _____ _____    ______ ____
ROOT
ATOM      1  C   LIG    1      -35.631  78.656  28.231  0.00  0.00    +0.133 A 
ATOM      2  C   LIG    1      -36.691  77.915  27.747  0.00  0.00    +0.183 A 
ATOM      3  N   LIG    1      -37.126  77.565  26.489  0.00  0.00    -0.211 NA
ATOM      4  C   LIG    1      -38.216  76.833  26.372  0.00  0.00    +0.126 A 
ATOM      5  C   LIG    1      -38.963  76.338  27.587  0.00  0.00    +0.063 A 
ATOM      6  C   LIG    1      -38.499  76.694  28.787  0.00  0.00    +0.118 A 
ATOM      7  N   LIG    1      -37.373  77.492  28.894  0.00  0.00    -0.220 N 
ATOM      8  N   LIG    1      -36.811  77.947  30.044  0.00  0.00    -0.171 NA
ATOM      9  C   LIG    1      -35.733  78.613  29.629  0.00  0.00    +0.165 A 
ENDROOT
BRANCH   4  10
ATOM     10  N   LIG    1      -38.694  76.502  25.105  0.00  0.00    -0.308 N 
ATOM     11  C   LIG    1      -39.943  75.734  24.887  0.00  0.00    +0.107 C 
ATOM     12  C   LIG    1      -40.609  76.414  23.669  0.00  0.00    +0.029 C 
ATOM     13  C   LIG    1      -39.800  77.678  23.410  0.00  0.00    +0.021 C 
ATOM     14  C   LIG    1      -38.418  77.340  23.937  0.00  0.00    +0.107 C 
BRANCH  11  15
ATOM     15  C   LIG    1      -39.677  74.249  24.639  0.00  0.00    -0.006 A 
ATOM     16  C   LIG    1      -40.644  73.377  24.096  0.00  0.00    +0.046 A 
ATOM     17 CL   LIG    1      -42.258  73.892  23.761  0.00  0.00    -0.083 Cl
ATOM     18  C   LIG    1      -40.339  72.032  23.819  0.00  0.00    +0.023 A 
ATOM     19  C   LIG    1      -39.070  71.525  24.093  0.00  0.00    +0.040 A 
ATOM     20  C   LIG    1      -38.119  72.365  24.649  0.00  0.00    +0.124 A 
ATOM     21  F   LIG    1      -36.903  71.887  24.936  0.00  0.00    -0.205 F 
ATOM     22  C   LIG    1      -38.408  73.702  24.914  0.00  0.00    +0.045 A 
ENDBRANCH  11  15
ENDBRANCH   4  10
BRANCH   1  24
ATOM     23  C   LIG    1      -33.497  78.423  27.374  0.00  0.00    +0.283 C 
ATOM     24  N   LIG    1      -34.514  79.169  27.569  0.00  0.00    -0.194 NA
BRANCH  23  27
ATOM     25  C   LIG    1      -32.434  75.334  29.191  0.00  0.00    +0.133 C 
ATOM     26  C   LIG    1      -32.361  76.863  29.047  0.00  0.00    +0.140 C 
ATOM     27  N   LIG    1      -33.105  77.177  27.822  0.00  0.00    -0.283 N 
ATOM     28  C   LIG    1      -33.680  75.955  27.271  0.00  0.00    +0.112 C 
ATOM     29  C   LIG    1      -33.707  74.989  28.443  0.00  0.00    +0.052 C 
BRANCH  25  30
ATOM     30  O   LIG    1      -32.535  74.937  30.552  0.00  0.00    -0.390 OA
ATOM     31  H   LIG    1      -33.456  74.672  30.719  0.00  0.00    +0.210 HD
ENDBRANCH  25  30
ENDBRANCH  23  27
BRANCH  23  32
ATOM     32  O   LIG    1      -32.577  78.987  26.562  0.00  0.00    -0.481 OA
ATOM     33  H   LIG    1      -31.845  79.365  27.051  0.00  0.00    +0.295 HD
ENDBRANCH  23  32
ENDBRANCH   1  24
TORSDOF 6
ENDMDL
MODEL 7
REMARK VINA RESULT:      -5.8      3.273      6.306
REMARK  Name = pdb/CHEMBL3908178.pdb
REMARK                            x       y       z     vdW  Elec       q    Type
REMARK                         _______ _______ _______ _____ _____    ______ ____
ROOT
ATOM      1  C   LIG    1      -34.724  78.855  27.884  0.00  0.00    +0.133 A 
ATOM      2  C   LIG    1      -35.851  78.068  27.753  0.00  0.00    +0.183 A 
ATOM      3  N   LIG    1      -36.354  77.266  26.754  0.00  0.00    -0.211 NA
ATOM      4  C   LIG    1      -37.497  76.641  26.952  0.00  0.00    +0.126 A 
ATOM      5  C   LIG    1      -38.236  76.754  28.264  0.00  0.00    +0.063 A 
ATOM      6  C   LIG    1      -37.705  77.535  29.208  0.00  0.00    +0.118 A 
ATOM      7  N   LIG    1      -36.522  78.213  28.973  0.00  0.00    -0.220 N 
ATOM      8  N   LIG    1      -35.889  79.056  29.830  0.00  0.00    -0.171 NA
ATOM      9  C   LIG    1      -34.780  79.401  29.175  0.00  0.00    +0.165 A 
ENDROOT
BRANCH   4  10
ATOM     10  N   LIG    1      -38.042  75.856  25.938  0.00  0.00    -0.308 N 
ATOM     11  C   LIG    1      -38.810  74.616  26.198  0.00  0.00    +0.107 C 
ATOM     12  C   LIG    1      -39.971  74.656  25.178  0.00  0.00    +0.029 C 
ATOM     13  C   LIG    1      -39.916  76.041  24.547  0.00  0.00    +0.021 C 
ATOM     14  C   LIG    1      -38.455  76.434  24.658  0.00  0.00    +0.107 C 
BRANCH  11  15
ATOM     15  C   LIG    1      -37.955  73.358  26.043  0.00  0.00    -0.006 A 
ATOM     16  C   LIG    1      -37.164  72.835  27.088  0.00  0.00    +0.046 A 
ATOM     17 CL   LIG    1      -37.007  73.638  28.610  0.00  0.00    -0.083 Cl
ATOM     18  C   LIG    1      -36.444  71.637  26.928  0.00  0.00    +0.023 A 
ATOM     19  C   LIG    1      -36.486  70.944  25.719  0.00  0.00    +0.040 A 
ATOM     20  C   LIG    1      -37.240  71.460  24.678  0.00  0.00    +0.124 A 
ATOM     21  F   LIG    1      -37.274  70.816  23.506  0.00  0.00    -0.205 F 
ATOM     22  C   LIG    1      -37.967  72.639  24.831  0.00  0.00    +0.045 A 
ENDBRANCH  11  15
ENDBRANCH   4  10
BRANCH   1  24
ATOM     23  C   LIG    1      -32.771  77.985  27.006  0.00  0.00    +0.283 C 
ATOM     24  N   LIG    1      -33.596  78.956  27.067  0.00  0.00    -0.194 NA
BRANCH  23  27
ATOM     25  C   LIG    1      -32.231  75.215  29.458  0.00  0.00    +0.133 C 
ATOM     26  C   LIG    1      -31.900  76.645  28.998  0.00  0.00    +0.140 C 
ATOM     27  N   LIG    1      -32.593  76.814  27.715  0.00  0.00    -0.283 N 
ATOM     28  C   LIG    1      -33.374  75.618  27.419  0.00  0.00    +0.112 C 
ATOM     29  C   LIG    1      -33.552  74.941  28.766  0.00  0.00    +0.052 C 
BRANCH  25  30
ATOM     30  O   LIG    1      -32.384  75.137  30.869  0.00  0.00    -0.390 OA
ATOM     31  H   LIG    1      -31.748  75.752  31.274  0.00  0.00    +0.210 HD
ENDBRANCH  25  30
ENDBRANCH  23  27
BRANCH  23  32
ATOM     32  O   LIG    1      -31.839  78.145  26.040  0.00  0.00    -0.481 OA
ATOM     33  H   LIG    1      -31.620  79.066  25.898  0.00  0.00    +0.295 HD
ENDBRANCH  23  32
ENDBRANCH   1  24
TORSDOF 6
ENDMDL
MODEL 8
REMARK VINA RESULT:      -5.7      3.727      7.079
REMARK  Name = pdb/CHEMBL3908178.pdb
REMARK                            x       y       z     vdW  Elec       q    Type
REMARK                         _______ _______ _______ _____ _____    ______ ____
ROOT
ATOM      1  C   LIG    1      -33.552  78.719  27.584  0.00  0.00    +0.133 A 
ATOM      2  C   LIG    1      -34.218  77.511  27.532  0.00  0.00    +0.183 A 
ATOM      3  N   LIG    1      -35.464  77.117  27.100  0.00  0.00    -0.211 NA
ATOM      4  C   LIG    1      -35.803  75.848  27.203  0.00  0.00    +0.126 A 
ATOM      5  C   LIG    1      -34.837  74.819  27.741  0.00  0.00    +0.063 A 
ATOM      6  C   LIG    1      -33.636  75.246  28.139  0.00  0.00    +0.118 A 
ATOM      7  N   LIG    1      -33.307  76.587  28.057  0.00  0.00    -0.220 N 
ATOM      8  N   LIG    1      -32.138  77.159  28.448  0.00  0.00    -0.171 NA
ATOM      9  C   LIG    1      -32.284  78.441  28.115  0.00  0.00    +0.165 A 
ENDROOT
BRANCH   4  10
ATOM     10  N   LIG    1      -37.074  75.436  26.807  0.00  0.00    -0.308 N 
ATOM     11  C   LIG    1      -37.853  76.119  25.747  0.00  0.00    +0.107 C 
ATOM     12  C   LIG    1      -38.522  74.972  24.956  0.00  0.00    +0.029 C 
ATOM     13  C   LIG    1      -37.894  73.688  25.482  0.00  0.00    +0.021 C 
ATOM     14  C   LIG    1      -37.492  74.036  26.903  0.00  0.00    +0.107 C 
BRANCH  11  15
ATOM     15  C   LIG    1      -38.881  77.096  26.320  0.00  0.00    -0.006 A 
ATOM     16  C   LIG    1      -39.538  78.066  25.534  0.00  0.00    +0.046 A 
ATOM     17 CL   LIG    1      -39.155  78.308  23.866  0.00  0.00    -0.083 Cl
ATOM     18  C   LIG    1      -40.528  78.901  26.083  0.00  0.00    +0.023 A 
ATOM     19  C   LIG    1      -40.872  78.797  27.429  0.00  0.00    +0.040 A 
ATOM     20  C   LIG    1      -40.218  77.864  28.217  0.00  0.00    +0.124 A 
ATOM     21  F   LIG    1      -40.524  77.766  29.516  0.00  0.00    -0.205 F 
ATOM     22  C   LIG    1      -39.245  77.024  27.679  0.00  0.00    +0.045 A 
ENDBRANCH  11  15
ENDBRANCH   4  10
BRANCH   1  24
ATOM     23  C   LIG    1      -34.852  80.630  27.525  0.00  0.00    +0.283 C 
ATOM     24  N   LIG    1      -33.886  79.957  27.031  0.00  0.00    -0.194 NA
BRANCH  23  27
ATOM     25  C   LIG    1      -37.247  80.386  30.385  0.00  0.00    +0.133 C 
ATOM     26  C   LIG    1      -35.802  80.578  29.896  0.00  0.00    +0.140 C 
ATOM     27  N   LIG    1      -35.849  80.369  28.444  0.00  0.00    -0.283 N 
ATOM     28  C   LIG    1      -37.229  80.145  28.026  0.00  0.00    +0.112 C 
ATOM     29  C   LIG    1      -38.063  80.725  29.154  0.00  0.00    +0.052 C 
BRANCH  25  30
ATOM     30  O   LIG    1      -37.564  81.271  31.451  0.00  0.00    -0.390 OA
ATOM     31  H   LIG    1      -38.500  81.524  31.361  0.00  0.00    +0.210 HD
ENDBRANCH  25  30
ENDBRANCH  23  27
BRANCH  23  32
ATOM     32  O   LIG    1      -34.938  81.879  27.018  0.00  0.00    -0.481 OA
ATOM     33  H   LIG    1      -35.446  82.464  27.581  0.00  0.00    +0.295 HD
ENDBRANCH  23  32
ENDBRANCH   1  24
TORSDOF 6
ENDMDL
MODEL 9
REMARK VINA RESULT:      -5.6     19.518     22.415
REMARK  Name = pdb/CHEMBL3908178.pdb
REMARK                            x       y       z     vdW  Elec       q    Type
REMARK                         _______ _______ _______ _____ _____    ______ ____
ROOT
ATOM      1  C   LIG    1      -22.536  82.109  11.680  0.00  0.00    +0.133 A 
ATOM      2  C   LIG    1      -21.685  83.186  11.831  0.00  0.00    +0.183 A 
ATOM      3  N   LIG    1      -21.811  84.444  12.373  0.00  0.00    -0.211 NA
ATOM      4  C   LIG    1      -20.775  85.258  12.345  0.00  0.00    +0.126 A 
ATOM      5  C   LIG    1      -19.448  84.819  11.773  0.00  0.00    +0.063 A 
ATOM      6  C   LIG    1      -19.369  83.586  11.267  0.00  0.00    +0.118 A 
ATOM      7  N   LIG    1      -20.476  82.755  11.271  0.00  0.00    -0.220 N 
ATOM      8  N   LIG    1      -20.543  81.494  10.769  0.00  0.00    -0.171 NA
ATOM      9  C   LIG    1      -21.781  81.100  11.063  0.00  0.00    +0.165 A 
ENDROOT
BRANCH   4  10
ATOM     10  N   LIG    1      -20.895  86.550  12.853  0.00  0.00    -0.308 N 
ATOM     11  C   LIG    1      -22.187  87.132  13.286  0.00  0.00    +0.107 C 
ATOM     12  C   LIG    1      -21.846  87.925  14.568  0.00  0.00    +0.029 C 
ATOM     13  C   LIG    1      -20.410  87.554  14.911  0.00  0.00    +0.021 C 
ATOM     14  C   LIG    1      -19.796  87.197  13.571  0.00  0.00    +0.107 C 
BRANCH  11  15
ATOM     15  C   LIG    1      -22.813  88.023  12.211  0.00  0.00    -0.006 A 
ATOM     16  C   LIG    1      -23.968  87.656  11.489  0.00  0.00    +0.046 A 
ATOM     17 CL   LIG    1      -24.718  86.111  11.680  0.00  0.00    -0.083 Cl
ATOM     18  C   LIG    1      -24.553  88.532  10.556  0.00  0.00    +0.023 A 
ATOM     19  C   LIG    1      -23.990  89.784  10.314  0.00  0.00    +0.040 A 
ATOM     20  C   LIG    1      -22.843  90.146  11.000  0.00  0.00    +0.124 A 
ATOM     21  F   LIG    1      -22.280  91.337  10.764  0.00  0.00    -0.205 F 
ATOM     22  C   LIG    1      -22.264  89.290  11.935  0.00  0.00    +0.045 A 
ENDBRANCH  11  15
ENDBRANCH   4  10
BRANCH   1  24
ATOM     23  C   LIG    1      -23.982  81.924  13.474  0.00  0.00    +0.283 C 
ATOM     24  N   LIG    1      -23.808  81.886  12.210  0.00  0.00    -0.194 NA
BRANCH  23  27
ATOM     25  C   LIG    1      -22.095  82.573  16.635  0.00  0.00    +0.133 C 
ATOM     26  C   LIG    1      -22.868  83.132  15.430  0.00  0.00    +0.140 C 
ATOM     27  N   LIG    1      -23.143  81.975  14.570  0.00  0.00    -0.283 N 
ATOM     28  C   LIG    1      -22.659  80.759  15.214  0.00  0.00    +0.112 C 
ATOM     29  C   LIG    1      -22.554  81.128  16.684  0.00  0.00    +0.052 C 
BRANCH  25  30
ATOM     30  O   LIG    1      -22.440  83.243  17.840  0.00  0.00    -0.390 OA
ATOM     31  H   LIG    1      -21.614  83.492  18.291  0.00  0.00    +0.210 HD
ENDBRANCH  25  30
ENDBRANCH  23  27
BRANCH  23  32
ATOM     32  O   LIG    1      -25.285  81.881  13.829  0.00  0.00    -0.481 OA
ATOM     33  H   LIG    1      -25.824  82.468  13.299  0.00  0.00    +0.295 HD
ENDBRANCH  23  32
ENDBRANCH   1  24
TORSDOF 6
ENDMDL
