MODEL 1
REMARK VINA RESULT:      -7.1      0.000      0.000
REMARK  Name = pdb/CHEMBL3962152.pdb
REMARK                            x       y       z     vdW  Elec       q    Type
REMARK                         _______ _______ _______ _____ _____    ______ ____
ROOT
ATOM      1  C   LIG    1      -35.481  69.074  24.843  0.00  0.00    +0.131 C 
ATOM      2  N   LIG    1      -36.582  69.842  24.768  0.00  0.00    -0.141 NA
ATOM      3  N   LIG    1      -36.336  70.899  25.608  0.00  0.00    -0.201 N 
ATOM      4  C   LIG    1      -34.999  70.894  26.034  0.00  0.00    +0.185 C 
ATOM      5  C   LIG    1      -34.533  69.640  25.727  0.00  0.00    +0.056 C 
ENDROOT
BRANCH   3   6
ATOM      6  C   LIG    1      -37.392  71.806  25.924  0.00  0.00    +0.052 A 
ATOM      7  C   LIG    1      -37.853  72.689  24.931  0.00  0.00    +0.025 A 
ATOM      8  C   LIG    1      -38.913  73.564  25.188  0.00  0.00    +0.002 A 
ATOM      9  C   LIG    1      -39.535  73.557  26.433  0.00  0.00    +0.000 A 
ATOM     10  C   LIG    1      -39.106  72.666  27.417  0.00  0.00    +0.002 A 
ATOM     11  C   LIG    1      -38.039  71.788  27.169  0.00  0.00    +0.025 A 
ENDBRANCH   3   6
BRANCH   4  12
ATOM     12  N   LIG    1      -34.251  71.953  26.582  0.00  0.00    -0.282 N 
ATOM     13  H   LIG    1      -33.561  72.397  25.988  0.00  0.00    +0.152 HD
ATOM     14  C   LIG    1      -34.267  72.282  28.002  0.00  0.00    +0.247 C 
ATOM     15  O   LIG    1      -34.975  71.670  28.765  0.00  0.00    -0.270 OA
BRANCH  14  16
ATOM     16  C   LIG    1      -33.323  73.326  28.523  0.00  0.00    +0.056 A 
ATOM     17  C   LIG    1      -32.228  73.068  29.348  0.00  0.00    +0.056 A 
ATOM     18 CL   LIG    1      -31.552  71.500  29.602  0.00  0.00    -0.083 Cl
ATOM     19  C   LIG    1      -31.590  74.118  30.007  0.00  0.00    +0.059 A 
ATOM     20  C   LIG    1      -31.954  75.435  29.746  0.00  0.00    +0.134 A 
ATOM     21  F   LIG    1      -31.361  76.388  30.478  0.00  0.00    -0.205 F 
ATOM     22  C   LIG    1      -32.909  75.763  28.779  0.00  0.00    +0.039 A 
ATOM     23  C   LIG    1      -33.626  74.681  28.217  0.00  0.00    +0.027 A 
BRANCH  22  24
ATOM     24  C   LIG    1      -33.159  77.164  28.373  0.00  0.00    +0.109 A 
ATOM     25  C   LIG    1      -32.487  77.788  27.313  0.00  0.00    +0.149 A 
ATOM     26  F   LIG    1      -31.606  77.125  26.550  0.00  0.00    -0.203 F 
ATOM     27  C   LIG    1      -32.761  79.113  26.997  0.00  0.00    +0.042 A 
ATOM     28  C   LIG    1      -33.730  79.792  27.721  0.00  0.00    +0.023 A 
ATOM     29  C   LIG    1      -34.389  79.105  28.729  0.00  0.00    +0.111 A 
ATOM     30  N   LIG    1      -34.129  77.816  29.070  0.00  0.00    -0.252 NA
ENDBRANCH  22  24
ENDBRANCH  14  16
ENDBRANCH   4  12
BRANCH   1  31
ATOM     31  C   LIG    1      -35.345  67.834  24.075  0.00  0.00    +0.233 C 
ATOM     32  N   LIG    1      -34.855  67.848  22.886  0.00  0.00    -0.245 NA
BRANCH  31  33
ATOM     33  O   LIG    1      -35.736  66.701  24.703  0.00  0.00    -0.491 OA
ATOM     34  H   LIG    1      -35.321  66.637  25.580  0.00  0.00    +0.294 HD
ENDBRANCH  31  33
BRANCH  32  35
ATOM     35  C   LIG    1      -34.765  66.543  22.204  0.00  0.00    +0.180 C 
BRANCH  35  36
ATOM     36  C   LIG    1      -35.155  66.627  20.747  0.00  0.00    -0.002 C 
ATOM     37  C   LIG    1      -36.397  67.336  20.408  0.00  0.00    +0.013 C 
ATOM     38  C   LIG    1      -36.821  67.478  19.139  0.00  0.00    +0.096 C 
ATOM     39  C   LIG    1      -35.986  66.869  18.063  0.00  0.00    +0.294 C 
ATOM     40  N   LIG    1      -34.849  66.188  18.421  0.00  0.00    -0.225 N 
ATOM     41  H   LIG    1      -34.273  65.752  17.718  0.00  0.00    +0.292 HD
ATOM     42  C   LIG    1      -34.451  66.090  19.730  0.00  0.00    +0.240 C 
BRANCH  39  43
ATOM     43  N   LIG    1      -36.362  67.006  16.833  0.00  0.00    -0.071 NA
ATOM     44  H   LIG    1      -37.081  66.312  16.618  0.00  0.00    +0.348 HD
ENDBRANCH  39  43
ENDBRANCH  35  36
ENDBRANCH  32  35
ENDBRANCH   1  31
TORSDOF 9
ENDMDL
MODEL 2
REMARK VINA RESULT:      -6.8     17.462     20.691
REMARK  Name = pdb/CHEMBL3962152.pdb
REMARK                            x       y       z     vdW  Elec       q    Type
REMARK                         _______ _______ _______ _____ _____    ______ ____
ROOT
ATOM      1  C   LIG    1      -20.835  81.552  14.079  0.00  0.00    +0.131 C 
ATOM      2  N   LIG    1      -22.168  81.370  14.095  0.00  0.00    -0.141 NA
ATOM      3  N   LIG    1      -22.342  80.048  14.418  0.00  0.00    -0.201 N 
ATOM      4  C   LIG    1      -21.126  79.468  14.812  0.00  0.00    +0.185 C 
ATOM      5  C   LIG    1      -20.161  80.350  14.393  0.00  0.00    +0.056 C 
ENDROOT
BRANCH   3   6
ATOM      6  C   LIG    1      -23.642  79.466  14.319  0.00  0.00    +0.052 A 
ATOM      7  C   LIG    1      -23.899  78.541  13.291  0.00  0.00    +0.025 A 
ATOM      8  C   LIG    1      -25.147  77.918  13.186  0.00  0.00    +0.002 A 
ATOM      9  C   LIG    1      -26.147  78.200  14.112  0.00  0.00    +0.000 A 
ATOM     10  C   LIG    1      -25.895  79.095  15.152  0.00  0.00    +0.002 A 
ATOM     11  C   LIG    1      -24.646  79.729  15.262  0.00  0.00    +0.025 A 
ENDBRANCH   3   6
BRANCH   4  12
ATOM     12  N   LIG    1      -20.918  78.287  15.548  0.00  0.00    -0.282 N 
ATOM     13  H   LIG    1      -20.919  78.358  16.558  0.00  0.00    +0.152 HD
ATOM     14  C   LIG    1      -20.487  77.037  14.934  0.00  0.00    +0.247 C 
ATOM     15  O   LIG    1      -20.336  76.962  13.739  0.00  0.00    -0.270 OA
BRANCH  14  16
ATOM     16  C   LIG    1      -20.141  75.870  15.813  0.00  0.00    +0.056 A 
ATOM     17  C   LIG    1      -18.925  75.707  16.476  0.00  0.00    +0.056 A 
ATOM     18 CL   LIG    1      -17.770  76.968  16.709  0.00  0.00    -0.083 Cl
ATOM     19  C   LIG    1      -18.593  74.470  17.026  0.00  0.00    +0.059 A 
ATOM     20  C   LIG    1      -19.521  73.433  17.035  0.00  0.00    +0.134 A 
ATOM     21  F   LIG    1      -19.106  72.247  17.499  0.00  0.00    -0.205 F 
ATOM     22  C   LIG    1      -20.825  73.602  16.563  0.00  0.00    +0.039 A 
ATOM     23  C   LIG    1      -21.098  74.821  15.900  0.00  0.00    +0.027 A 
BRANCH  22  24
ATOM     24  C   LIG    1      -21.861  72.560  16.743  0.00  0.00    +0.109 A 
ATOM     25  C   LIG    1      -22.852  72.624  17.731  0.00  0.00    +0.149 A 
ATOM     26  F   LIG    1      -22.963  73.680  18.550  0.00  0.00    -0.203 F 
ATOM     27  C   LIG    1      -23.784  71.601  17.853  0.00  0.00    +0.042 A 
ATOM     28  C   LIG    1      -23.738  70.539  16.961  0.00  0.00    +0.023 A 
ATOM     29  C   LIG    1      -22.761  70.556  15.979  0.00  0.00    +0.111 A 
ATOM     30  N   LIG    1      -21.828  71.534  15.849  0.00  0.00    -0.252 NA
ENDBRANCH  22  24
ENDBRANCH  14  16
ENDBRANCH   4  12
BRANCH   1  31
ATOM     31  C   LIG    1      -20.232  82.853  13.778  0.00  0.00    +0.233 C 
ATOM     32  N   LIG    1      -20.764  83.639  12.911  0.00  0.00    -0.245 NA
BRANCH  31  33
ATOM     33  O   LIG    1      -19.120  83.168  14.480  0.00  0.00    -0.491 OA
ATOM     34  H   LIG    1      -18.877  84.097  14.336  0.00  0.00    +0.294 HD
ENDBRANCH  31  33
BRANCH  32  35
ATOM     35  C   LIG    1      -20.073  84.922  12.685  0.00  0.00    +0.180 C 
BRANCH  35  36
ATOM     36  C   LIG    1      -20.678  86.051  13.487  0.00  0.00    -0.002 C 
ATOM     37  C   LIG    1      -22.144  86.164  13.515  0.00  0.00    +0.013 C 
ATOM     38  C   LIG    1      -22.778  87.125  14.212  0.00  0.00    +0.096 C 
ATOM     39  C   LIG    1      -21.933  88.102  14.959  0.00  0.00    +0.294 C 
ATOM     40  N   LIG    1      -20.568  87.983  14.884  0.00  0.00    -0.225 N 
ATOM     41  H   LIG    1      -19.971  88.638  15.364  0.00  0.00    +0.292 HD
ATOM     42  C   LIG    1      -19.972  86.971  14.174  0.00  0.00    +0.240 C 
BRANCH  39  43
ATOM     43  N   LIG    1      -22.518  89.026  15.651  0.00  0.00    -0.071 NA
ATOM     44  H   LIG    1      -22.552  89.889  15.106  0.00  0.00    +0.348 HD
ENDBRANCH  39  43
ENDBRANCH  35  36
ENDBRANCH  32  35
ENDBRANCH   1  31
TORSDOF 9
ENDMDL
MODEL 3
REMARK VINA RESULT:      -6.8      3.086      4.307
REMARK  Name = pdb/CHEMBL3962152.pdb
REMARK                            x       y       z     vdW  Elec       q    Type
REMARK                         _______ _______ _______ _____ _____    ______ ____
ROOT
ATOM      1  C   LIG    1      -38.257  71.786  24.600  0.00  0.00    +0.131 C 
ATOM      2  N   LIG    1      -39.104  72.589  23.931  0.00  0.00    -0.141 NA
ATOM      3  N   LIG    1      -38.987  73.813  24.539  0.00  0.00    -0.201 N 
ATOM      4  C   LIG    1      -37.911  73.820  25.440  0.00  0.00    +0.185 C 
ATOM      5  C   LIG    1      -37.599  72.496  25.630  0.00  0.00    +0.056 C 
ENDROOT
BRANCH   3   6
ATOM      6  C   LIG    1      -39.907  74.853  24.206  0.00  0.00    +0.052 A 
ATOM      7  C   LIG    1      -39.465  76.188  24.231  0.00  0.00    +0.025 A 
ATOM      8  C   LIG    1      -40.323  77.232  23.872  0.00  0.00    +0.002 A 
ATOM      9  C   LIG    1      -41.626  76.955  23.469  0.00  0.00    +0.000 A 
ATOM     10  C   LIG    1      -42.067  75.633  23.412  0.00  0.00    +0.002 A 
ATOM     11  C   LIG    1      -41.214  74.579  23.777  0.00  0.00    +0.025 A 
ENDBRANCH   3   6
BRANCH   4  12
ATOM     12  N   LIG    1      -37.230  74.926  25.982  0.00  0.00    -0.282 N 
ATOM     13  H   LIG    1      -36.380  75.225  25.520  0.00  0.00    +0.152 HD
ATOM     14  C   LIG    1      -37.564  75.504  27.278  0.00  0.00    +0.247 C 
ATOM     15  O   LIG    1      -38.487  75.071  27.923  0.00  0.00    -0.270 OA
BRANCH  14  16
ATOM     16  C   LIG    1      -36.687  76.582  27.847  0.00  0.00    +0.056 A 
ATOM     17  C   LIG    1      -36.945  77.950  27.752  0.00  0.00    +0.056 A 
ATOM     18 CL   LIG    1      -38.472  78.621  27.309  0.00  0.00    -0.083 Cl
ATOM     19  C   LIG    1      -35.942  78.869  28.053  0.00  0.00    +0.059 A 
ATOM     20  C   LIG    1      -34.726  78.437  28.573  0.00  0.00    +0.134 A 
ATOM     21  F   LIG    1      -33.776  79.365  28.757  0.00  0.00    -0.205 F 
ATOM     22  C   LIG    1      -34.485  77.094  28.877  0.00  0.00    +0.039 A 
ATOM     23  C   LIG    1      -35.466  76.170  28.449  0.00  0.00    +0.027 A 
BRANCH  22  24
ATOM     24  C   LIG    1      -33.267  76.665  29.600  0.00  0.00    +0.109 A 
ATOM     25  C   LIG    1      -32.013  76.540  28.986  0.00  0.00    +0.149 A 
ATOM     26  F   LIG    1      -31.824  76.866  27.699  0.00  0.00    -0.203 F 
ATOM     27  C   LIG    1      -30.914  76.116  29.722  0.00  0.00    +0.042 A 
ATOM     28  C   LIG    1      -31.071  75.854  31.076  0.00  0.00    +0.023 A 
ATOM     29  C   LIG    1      -32.327  76.038  31.633  0.00  0.00    +0.111 A 
ATOM     30  N   LIG    1      -33.421  76.435  30.933  0.00  0.00    -0.252 NA
ENDBRANCH  22  24
ENDBRANCH  14  16
ENDBRANCH   4  12
BRANCH   1  31
ATOM     31  C   LIG    1      -38.081  70.375  24.246  0.00  0.00    +0.233 C 
ATOM     32  N   LIG    1      -37.138  70.009  23.452  0.00  0.00    -0.245 NA
BRANCH  31  33
ATOM     33  O   LIG    1      -38.943  69.507  24.823  0.00  0.00    -0.491 OA
ATOM     34  H   LIG    1      -39.858  69.822  24.729  0.00  0.00    +0.294 HD
ENDBRANCH  31  33
BRANCH  32  35
ATOM     35  C   LIG    1      -37.054  68.565  23.163  0.00  0.00    +0.180 C 
BRANCH  35  36
ATOM     36  C   LIG    1      -37.086  68.271  21.682  0.00  0.00    -0.002 C 
ATOM     37  C   LIG    1      -36.182  67.231  21.169  0.00  0.00    +0.013 C 
ATOM     38  C   LIG    1      -36.147  66.886  19.869  0.00  0.00    +0.096 C 
ATOM     39  C   LIG    1      -37.060  67.614  18.940  0.00  0.00    +0.294 C 
ATOM     40  N   LIG    1      -37.867  68.599  19.451  0.00  0.00    -0.225 N 
ATOM     41  H   LIG    1      -38.483  69.120  18.846  0.00  0.00    +0.292 HD
ATOM     42  C   LIG    1      -37.878  68.899  20.790  0.00  0.00    +0.240 C 
BRANCH  39  43
ATOM     43  N   LIG    1      -37.059  67.289  17.687  0.00  0.00    -0.071 NA
ATOM     44  H   LIG    1      -37.964  66.888  17.439  0.00  0.00    +0.348 HD
ENDBRANCH  39  43
ENDBRANCH  35  36
ENDBRANCH  32  35
ENDBRANCH   1  31
TORSDOF 9
ENDMDL
MODEL 4
REMARK VINA RESULT:      -6.7     14.380     16.772
REMARK  Name = pdb/CHEMBL3962152.pdb
REMARK                            x       y       z     vdW  Elec       q    Type
REMARK                         _______ _______ _______ _____ _____    ______ ____
ROOT
ATOM      1  C   LIG    1      -26.940  74.830  13.767  0.00  0.00    +0.131 C 
ATOM      2  N   LIG    1      -26.254  75.938  14.102  0.00  0.00    -0.141 NA
ATOM      3  N   LIG    1      -26.912  76.966  13.476  0.00  0.00    -0.201 N 
ATOM      4  C   LIG    1      -28.127  76.521  12.932  0.00  0.00    +0.185 C 
ATOM      5  C   LIG    1      -28.034  75.151  12.931  0.00  0.00    +0.056 C 
ENDROOT
BRANCH   3   6
ATOM      6  C   LIG    1      -26.323  78.266  13.454  0.00  0.00    +0.052 A 
ATOM      7  C   LIG    1      -26.341  79.003  12.256  0.00  0.00    +0.025 A 
ATOM      8  C   LIG    1      -25.812  80.297  12.205  0.00  0.00    +0.002 A 
ATOM      9  C   LIG    1      -25.273  80.875  13.350  0.00  0.00    +0.000 A 
ATOM     10  C   LIG    1      -25.276  80.165  14.551  0.00  0.00    +0.002 A 
ATOM     11  C   LIG    1      -25.801  78.864  14.611  0.00  0.00    +0.025 A 
ENDBRANCH   3   6
BRANCH   4  12
ATOM     12  N   LIG    1      -29.243  77.284  12.543  0.00  0.00    -0.282 N 
ATOM     13  H   LIG    1      -29.939  77.490  13.249  0.00  0.00    +0.152 HD
ATOM     14  C   LIG    1      -29.546  77.590  11.151  0.00  0.00    +0.247 C 
ATOM     15  O   LIG    1      -28.806  77.229  10.268  0.00  0.00    -0.270 OA
BRANCH  14  16
ATOM     16  C   LIG    1      -30.839  78.277  10.816  0.00  0.00    +0.056 A 
ATOM     17  C   LIG    1      -32.023  77.623  10.477  0.00  0.00    +0.056 A 
ATOM     18 CL   LIG    1      -32.315  75.943  10.744  0.00  0.00    -0.083 Cl
ATOM     19  C   LIG    1      -33.075  78.339   9.908  0.00  0.00    +0.059 A 
ATOM     20  C   LIG    1      -33.004  79.724   9.797  0.00  0.00    +0.134 A 
ATOM     21  F   LIG    1      -34.011  80.339   9.163  0.00  0.00    -0.205 F 
ATOM     22  C   LIG    1      -31.924  80.453  10.304  0.00  0.00    +0.039 A 
ATOM     23  C   LIG    1      -30.819  79.699  10.762  0.00  0.00    +0.027 A 
BRANCH  22  24
ATOM     24  C   LIG    1      -31.936  81.933  10.352  0.00  0.00    +0.109 A 
ATOM     25  C   LIG    1      -32.987  82.675  10.909  0.00  0.00    +0.149 A 
ATOM     26  F   LIG    1      -34.035  82.080  11.496  0.00  0.00    -0.203 F 
ATOM     27  C   LIG    1      -32.939  84.063  10.905  0.00  0.00    +0.042 A 
ATOM     28  C   LIG    1      -31.824  84.697  10.378  0.00  0.00    +0.023 A 
ATOM     29  C   LIG    1      -30.799  83.906   9.882  0.00  0.00    +0.111 A 
ATOM     30  N   LIG    1      -30.828  82.548   9.857  0.00  0.00    -0.252 NA
ENDBRANCH  22  24
ENDBRANCH  14  16
ENDBRANCH   4  12
BRANCH   1  31
ATOM     31  C   LIG    1      -26.554  73.501  14.249  0.00  0.00    +0.233 C 
ATOM     32  N   LIG    1      -27.428  72.708  14.759  0.00  0.00    -0.245 NA
BRANCH  31  33
ATOM     33  O   LIG    1      -25.251  73.170  14.096  0.00  0.00    -0.491 OA
ATOM     34  H   LIG    1      -25.152  72.483  13.417  0.00  0.00    +0.294 HD
ENDBRANCH  31  33
BRANCH  32  35
ATOM     35  C   LIG    1      -26.930  71.396  15.213  0.00  0.00    +0.180 C 
BRANCH  35  36
ATOM     36  C   LIG    1      -27.284  71.113  16.654  0.00  0.00    -0.002 C 
ATOM     37  C   LIG    1      -28.444  71.812  17.227  0.00  0.00    +0.013 C 
ATOM     38  C   LIG    1      -28.848  71.616  18.495  0.00  0.00    +0.096 C 
ATOM     39  C   LIG    1      -28.060  70.660  19.327  0.00  0.00    +0.294 C 
ATOM     40  N   LIG    1      -26.965  70.051  18.768  0.00  0.00    -0.225 N 
ATOM     41  H   LIG    1      -26.403  69.413  19.309  0.00  0.00    +0.292 HD
ATOM     42  C   LIG    1      -26.607  70.271  17.461  0.00  0.00    +0.240 C 
BRANCH  39  43
ATOM     43  N   LIG    1      -28.437  70.441  20.545  0.00  0.00    -0.071 NA
ATOM     44  H   LIG    1      -27.804  69.769  20.981  0.00  0.00    +0.348 HD
ENDBRANCH  39  43
ENDBRANCH  35  36
ENDBRANCH  32  35
ENDBRANCH   1  31
TORSDOF 9
ENDMDL
MODEL 5
REMARK VINA RESULT:      -6.7     16.045     18.736
REMARK  Name = pdb/CHEMBL3962152.pdb
REMARK                            x       y       z     vdW  Elec       q    Type
REMARK                         _______ _______ _______ _____ _____    ______ ____
ROOT
ATOM      1  C   LIG    1      -26.119  77.240  13.527  0.00  0.00    +0.131 C 
ATOM      2  N   LIG    1      -26.221  76.152  12.744  0.00  0.00    -0.141 NA
ATOM      3  N   LIG    1      -27.556  76.059  12.440  0.00  0.00    -0.201 N 
ATOM      4  C   LIG    1      -28.243  77.209  12.857  0.00  0.00    +0.185 C 
ATOM      5  C   LIG    1      -27.384  77.841  13.721  0.00  0.00    +0.056 C 
ENDROOT
BRANCH   3   6
ATOM      6  C   LIG    1      -28.047  74.888  11.786  0.00  0.00    +0.052 A 
ATOM      7  C   LIG    1      -28.361  73.756  12.560  0.00  0.00    +0.025 A 
ATOM      8  C   LIG    1      -28.883  72.604  11.961  0.00  0.00    +0.002 A 
ATOM      9  C   LIG    1      -29.111  72.574  10.589  0.00  0.00    +0.000 A 
ATOM     10  C   LIG    1      -28.829  73.700   9.816  0.00  0.00    +0.002 A 
ATOM     11  C   LIG    1      -28.300  74.859  10.407  0.00  0.00    +0.025 A 
ENDBRANCH   3   6
BRANCH   4  12
ATOM     12  N   LIG    1      -29.501  77.678  12.436  0.00  0.00    -0.282 N 
ATOM     13  H   LIG    1      -30.316  77.359  12.947  0.00  0.00    +0.152 HD
ATOM     14  C   LIG    1      -29.698  78.405  11.188  0.00  0.00    +0.247 C 
ATOM     15  O   LIG    1      -28.758  78.674  10.481  0.00  0.00    -0.270 OA
BRANCH  14  16
ATOM     16  C   LIG    1      -31.094  78.732  10.743  0.00  0.00    +0.056 A 
ATOM     17  C   LIG    1      -31.997  77.810  10.214  0.00  0.00    +0.056 A 
ATOM     18 CL   LIG    1      -31.814  76.098  10.328  0.00  0.00    -0.083 Cl
ATOM     19  C   LIG    1      -33.150  78.256   9.570  0.00  0.00    +0.059 A 
ATOM     20  C   LIG    1      -33.473  79.610   9.564  0.00  0.00    +0.134 A 
ATOM     21  F   LIG    1      -34.546  79.979   8.852  0.00  0.00    -0.205 F 
ATOM     22  C   LIG    1      -32.707  80.557  10.250  0.00  0.00    +0.039 A 
ATOM     23  C   LIG    1      -31.482  80.100  10.789  0.00  0.00    +0.027 A 
BRANCH  22  24
ATOM     24  C   LIG    1      -33.153  81.961  10.398  0.00  0.00    +0.109 A 
ATOM     25  C   LIG    1      -32.495  83.042   9.796  0.00  0.00    +0.149 A 
ATOM     26  F   LIG    1      -31.441  82.863   8.986  0.00  0.00    -0.203 F 
ATOM     27  C   LIG    1      -32.960  84.337   9.990  0.00  0.00    +0.042 A 
ATOM     28  C   LIG    1      -34.099  84.536  10.756  0.00  0.00    +0.023 A 
ATOM     29  C   LIG    1      -34.728  83.421  11.288  0.00  0.00    +0.111 A 
ATOM     30  N   LIG    1      -34.286  82.147  11.128  0.00  0.00    -0.252 NA
ENDBRANCH  22  24
ENDBRANCH  14  16
ENDBRANCH   4  12
BRANCH   1  31
ATOM     31  C   LIG    1      -24.833  77.693  14.065  0.00  0.00    +0.233 C 
ATOM     32  N   LIG    1      -24.779  78.375  15.154  0.00  0.00    -0.245 NA
BRANCH  31  33
ATOM     33  O   LIG    1      -23.735  77.325  13.366  0.00  0.00    -0.491 OA
ATOM     34  H   LIG    1      -22.953  77.810  13.679  0.00  0.00    +0.294 HD
ENDBRANCH  31  33
BRANCH  32  35
ATOM     35  C   LIG    1      -23.434  78.779  15.603  0.00  0.00    +0.180 C 
BRANCH  35  36
ATOM     36  C   LIG    1      -23.264  80.280  15.636  0.00  0.00    -0.002 C 
ATOM     37  C   LIG    1      -22.399  80.850  16.679  0.00  0.00    +0.013 C 
ATOM     38  C   LIG    1      -22.173  82.173  16.782  0.00  0.00    +0.096 C 
ATOM     39  C   LIG    1      -22.849  83.065  15.795  0.00  0.00    +0.294 C 
ATOM     40  N   LIG    1      -23.673  82.498  14.856  0.00  0.00    -0.225 N 
ATOM     41  H   LIG    1      -24.158  83.076  14.186  0.00  0.00    +0.292 HD
ATOM     42  C   LIG    1      -23.855  81.140  14.782  0.00  0.00    +0.240 C 
BRANCH  39  43
ATOM     43  N   LIG    1      -22.635  84.339  15.861  0.00  0.00    -0.071 NA
ATOM     44  H   LIG    1      -23.308  84.828  15.269  0.00  0.00    +0.348 HD
ENDBRANCH  39  43
ENDBRANCH  35  36
ENDBRANCH  32  35
ENDBRANCH   1  31
TORSDOF 9
ENDMDL
MODEL 6
REMARK VINA RESULT:      -6.7     17.372     20.682
REMARK  Name = pdb/CHEMBL3962152.pdb
REMARK                            x       y       z     vdW  Elec       q    Type
REMARK                         _______ _______ _______ _____ _____    ______ ____
ROOT
ATOM      1  C   LIG    1      -22.851  82.636  15.280  0.00  0.00    +0.131 C 
ATOM      2  N   LIG    1      -24.031  82.158  14.846  0.00  0.00    -0.141 NA
ATOM      3  N   LIG    1      -23.842  80.804  14.725  0.00  0.00    -0.201 N 
ATOM      4  C   LIG    1      -22.615  80.421  15.289  0.00  0.00    +0.185 C 
ATOM      5  C   LIG    1      -21.912  81.591  15.438  0.00  0.00    +0.056 C 
ENDROOT
BRANCH   3   6
ATOM      6  C   LIG    1      -24.842  80.010  14.086  0.00  0.00    +0.052 A 
ATOM      7  C   LIG    1      -25.563  79.077  14.852  0.00  0.00    +0.025 A 
ATOM      8  C   LIG    1      -26.579  78.309  14.272  0.00  0.00    +0.002 A 
ATOM      9  C   LIG    1      -26.895  78.475  12.927  0.00  0.00    +0.000 A 
ATOM     10  C   LIG    1      -26.206  79.418  12.164  0.00  0.00    +0.002 A 
ATOM     11  C   LIG    1      -25.182  80.189  12.737  0.00  0.00    +0.025 A 
ENDBRANCH   3   6
BRANCH   4  12
ATOM     12  N   LIG    1      -22.203  79.139  15.698  0.00  0.00    -0.282 N 
ATOM     13  H   LIG    1      -22.051  78.989  16.688  0.00  0.00    +0.152 HD
ATOM     14  C   LIG    1      -21.776  78.108  14.761  0.00  0.00    +0.247 C 
ATOM     15  O   LIG    1      -21.807  78.310  13.571  0.00  0.00    -0.270 OA
BRANCH  14  16
ATOM     16  C   LIG    1      -21.206  76.825  15.292  0.00  0.00    +0.056 A 
ATOM     17  C   LIG    1      -19.848  76.583  15.500  0.00  0.00    +0.056 A 
ATOM     18 CL   LIG    1      -18.639  77.813  15.543  0.00  0.00    -0.083 Cl
ATOM     19  C   LIG    1      -19.399  75.281  15.718  0.00  0.00    +0.059 A 
ATOM     20  C   LIG    1      -20.309  74.238  15.861  0.00  0.00    +0.134 A 
ATOM     21  F   LIG    1      -19.806  73.002  15.981  0.00  0.00    -0.205 F 
ATOM     22  C   LIG    1      -21.690  74.455  15.863  0.00  0.00    +0.039 A 
ATOM     23  C   LIG    1      -22.119  75.757  15.517  0.00  0.00    +0.027 A 
BRANCH  22  24
ATOM     24  C   LIG    1      -22.647  73.378  16.200  0.00  0.00    +0.109 A 
ATOM     25  C   LIG    1      -22.835  72.897  17.503  0.00  0.00    +0.149 A 
ATOM     26  F   LIG    1      -22.192  73.434  18.551  0.00  0.00    -0.203 F 
ATOM     27  C   LIG    1      -23.741  71.872  17.745  0.00  0.00    +0.042 A 
ATOM     28  C   LIG    1      -24.477  71.361  16.687  0.00  0.00    +0.023 A 
ATOM     29  C   LIG    1      -24.277  71.908  15.430  0.00  0.00    +0.111 A 
ATOM     30  N   LIG    1      -23.386  72.898  15.163  0.00  0.00    -0.252 NA
ENDBRANCH  22  24
ENDBRANCH  14  16
ENDBRANCH   4  12
BRANCH   1  31
ATOM     31  C   LIG    1      -22.640  84.062  15.544  0.00  0.00    +0.233 C 
ATOM     32  N   LIG    1      -22.413  84.882  14.580  0.00  0.00    -0.245 NA
BRANCH  31  33
ATOM     33  O   LIG    1      -22.728  84.445  16.839  0.00  0.00    -0.491 OA
ATOM     34  H   LIG    1      -22.526  83.700  17.429  0.00  0.00    +0.294 HD
ENDBRANCH  31  33
BRANCH  32  35
ATOM     35  C   LIG    1      -22.214  86.293  14.959  0.00  0.00    +0.180 C 
BRANCH  35  36
ATOM     36  C   LIG    1      -21.196  86.987  14.085  0.00  0.00    -0.002 C 
ATOM     37  C   LIG    1      -19.979  86.244  13.728  0.00  0.00    +0.013 C 
ATOM     38  C   LIG    1      -19.020  86.768  12.942  0.00  0.00    +0.096 C 
ATOM     39  C   LIG    1      -19.225  88.160  12.446  0.00  0.00    +0.294 C 
ATOM     40  N   LIG    1      -20.358  88.833  12.826  0.00  0.00    -0.225 N 
ATOM     41  H   LIG    1      -20.517  89.781  12.520  0.00  0.00    +0.292 HD
ATOM     42  C   LIG    1      -21.316  88.244  13.613  0.00  0.00    +0.240 C 
BRANCH  39  43
ATOM     43  N   LIG    1      -18.326  88.682  11.675  0.00  0.00    -0.071 NA
ATOM     44  H   LIG    1      -18.540  89.669  11.522  0.00  0.00    +0.348 HD
ENDBRANCH  39  43
ENDBRANCH  35  36
ENDBRANCH  32  35
ENDBRANCH   1  31
TORSDOF 9
ENDMDL
MODEL 7
REMARK VINA RESULT:      -6.7      8.992     12.541
REMARK  Name = pdb/CHEMBL3962152.pdb
REMARK                            x       y       z     vdW  Elec       q    Type
REMARK                         _______ _______ _______ _____ _____    ______ ____
ROOT
ATOM      1  C   LIG    1      -30.630  66.064  19.000  0.00  0.00    +0.131 C 
ATOM      2  N   LIG    1      -29.451  65.489  19.296  0.00  0.00    -0.141 NA
ATOM      3  N   LIG    1      -28.518  66.209  18.594  0.00  0.00    -0.201 N 
ATOM      4  C   LIG    1      -29.095  67.360  18.036  0.00  0.00    +0.185 C 
ATOM      5  C   LIG    1      -30.450  67.150  18.112  0.00  0.00    +0.056 C 
ENDROOT
BRANCH   3   6
ATOM      6  C   LIG    1      -27.173  65.734  18.521  0.00  0.00    +0.052 A 
ATOM      7  C   LIG    1      -26.472  65.856  17.308  0.00  0.00    +0.025 A 
ATOM      8  C   LIG    1      -25.140  65.440  17.208  0.00  0.00    +0.002 A 
ATOM      9  C   LIG    1      -24.490  64.912  18.319  0.00  0.00    +0.000 A 
ATOM     10  C   LIG    1      -25.166  64.813  19.535  0.00  0.00    +0.002 A 
ATOM     11  C   LIG    1      -26.505  65.223  19.643  0.00  0.00    +0.025 A 
ENDBRANCH   3   6
BRANCH   4  12
ATOM     12  N   LIG    1      -28.454  68.523  17.570  0.00  0.00    -0.282 N 
ATOM     13  H   LIG    1      -28.454  68.690  16.571  0.00  0.00    +0.152 HD
ATOM     14  C   LIG    1      -27.615  69.359  18.420  0.00  0.00    +0.247 C 
ATOM     15  O   LIG    1      -27.476  69.100  19.590  0.00  0.00    -0.270 OA
BRANCH  14  16
ATOM     16  C   LIG    1      -26.846  70.492  17.803  0.00  0.00    +0.056 A 
ATOM     17  C   LIG    1      -27.407  71.499  17.018  0.00  0.00    +0.056 A 
ATOM     18 CL   LIG    1      -29.098  71.834  16.930  0.00  0.00    -0.083 Cl
ATOM     19  C   LIG    1      -26.583  72.331  16.262  0.00  0.00    +0.059 A 
ATOM     20  C   LIG    1      -25.199  72.251  16.384  0.00  0.00    +0.134 A 
ATOM     21  F   LIG    1      -24.468  73.018  15.565  0.00  0.00    -0.205 F 
ATOM     22  C   LIG    1      -24.586  71.396  17.305  0.00  0.00    +0.039 A 
ATOM     23  C   LIG    1      -25.433  70.478  17.968  0.00  0.00    +0.027 A 
BRANCH  22  24
ATOM     24  C   LIG    1      -23.129  71.446  17.564  0.00  0.00    +0.109 A 
ATOM     25  C   LIG    1      -22.518  72.454  18.322  0.00  0.00    +0.149 A 
ATOM     26  F   LIG    1      -23.234  73.417  18.920  0.00  0.00    -0.203 F 
ATOM     27  C   LIG    1      -21.142  72.447  18.512  0.00  0.00    +0.042 A 
ATOM     28  C   LIG    1      -20.393  71.412  17.973  0.00  0.00    +0.023 A 
ATOM     29  C   LIG    1      -21.063  70.422  17.270  0.00  0.00    +0.111 A 
ATOM     30  N   LIG    1      -22.403  70.414  17.055  0.00  0.00    -0.252 NA
ENDBRANCH  22  24
ENDBRANCH  14  16
ENDBRANCH   4  12
BRANCH   1  31
ATOM     31  C   LIG    1      -31.893  65.584  19.566  0.00  0.00    +0.233 C 
ATOM     32  N   LIG    1      -32.559  66.307  20.395  0.00  0.00    -0.245 NA
BRANCH  31  33
ATOM     33  O   LIG    1      -32.310  64.369  19.141  0.00  0.00    -0.491 OA
ATOM     34  H   LIG    1      -33.189  64.433  18.733  0.00  0.00    +0.294 HD
ENDBRANCH  31  33
BRANCH  32  35
ATOM     35  C   LIG    1      -33.815  65.726  20.903  0.00  0.00    +0.180 C 
BRANCH  35  36
ATOM     36  C   LIG    1      -35.011  66.605  20.623  0.00  0.00    -0.002 C 
ATOM     37  C   LIG    1      -35.690  67.226  21.770  0.00  0.00    +0.013 C 
ATOM     38  C   LIG    1      -36.754  68.037  21.624  0.00  0.00    +0.096 C 
ATOM     39  C   LIG    1      -37.245  68.283  20.237  0.00  0.00    +0.294 C 
ATOM     40  N   LIG    1      -36.605  67.662  19.194  0.00  0.00    -0.225 N 
ATOM     41  H   LIG    1      -36.923  67.795  18.247  0.00  0.00    +0.292 HD
ATOM     42  C   LIG    1      -35.510  66.858  19.397  0.00  0.00    +0.240 C 
BRANCH  39  43
ATOM     43  N   LIG    1      -38.256  69.072  20.067  0.00  0.00    -0.071 NA
ATOM     44  H   LIG    1      -39.121  68.557  20.234  0.00  0.00    +0.348 HD
ENDBRANCH  39  43
ENDBRANCH  35  36
ENDBRANCH  32  35
ENDBRANCH   1  31
TORSDOF 9
ENDMDL
MODEL 8
REMARK VINA RESULT:      -6.7      2.220      3.035
REMARK  Name = pdb/CHEMBL3962152.pdb
REMARK                            x       y       z     vdW  Elec       q    Type
REMARK                         _______ _______ _______ _____ _____    ______ ____
ROOT
ATOM      1  C   LIG    1      -35.957  67.945  22.972  0.00  0.00    +0.131 C 
ATOM      2  N   LIG    1      -36.798  68.943  22.649  0.00  0.00    -0.141 NA
ATOM      3  N   LIG    1      -37.064  69.580  23.835  0.00  0.00    -0.201 N 
ATOM      4  C   LIG    1      -36.220  69.110  24.852  0.00  0.00    +0.185 C 
ATOM      5  C   LIG    1      -35.685  67.946  24.359  0.00  0.00    +0.056 C 
ENDROOT
BRANCH   3   6
ATOM      6  C   LIG    1      -38.092  70.570  23.884  0.00  0.00    +0.052 A 
ATOM      7  C   LIG    1      -39.369  70.251  23.387  0.00  0.00    +0.025 A 
ATOM      8  C   LIG    1      -40.414  71.179  23.456  0.00  0.00    +0.002 A 
ATOM      9  C   LIG    1      -40.201  72.427  24.034  0.00  0.00    +0.000 A 
ATOM     10  C   LIG    1      -38.947  72.743  24.556  0.00  0.00    +0.002 A 
ATOM     11  C   LIG    1      -37.891  71.820  24.487  0.00  0.00    +0.025 A 
ENDBRANCH   3   6
BRANCH   4  12
ATOM     12  N   LIG    1      -35.909  69.719  26.082  0.00  0.00    -0.282 N 
ATOM     13  H   LIG    1      -36.628  69.733  26.794  0.00  0.00    +0.152 HD
ATOM     14  C   LIG    1      -34.702  70.511  26.291  0.00  0.00    +0.247 C 
ATOM     15  O   LIG    1      -33.890  70.635  25.407  0.00  0.00    -0.270 OA
BRANCH  14  16
ATOM     16  C   LIG    1      -34.526  71.251  27.585  0.00  0.00    +0.056 A 
ATOM     17  C   LIG    1      -34.839  70.738  28.844  0.00  0.00    +0.056 A 
ATOM     18 CL   LIG    1      -35.119  69.066  29.168  0.00  0.00    -0.083 Cl
ATOM     19  C   LIG    1      -34.913  71.591  29.944  0.00  0.00    +0.059 A 
ATOM     20  C   LIG    1      -34.549  72.928  29.822  0.00  0.00    +0.134 A 
ATOM     21  F   LIG    1      -34.728  73.710  30.895  0.00  0.00    -0.205 F 
ATOM     22  C   LIG    1      -34.036  73.451  28.631  0.00  0.00    +0.039 A 
ATOM     23  C   LIG    1      -34.088  72.602  27.501  0.00  0.00    +0.027 A 
BRANCH  22  24
ATOM     24  C   LIG    1      -33.478  74.820  28.557  0.00  0.00    +0.109 A 
ATOM     25  C   LIG    1      -32.257  75.184  29.140  0.00  0.00    +0.149 A 
ATOM     26  F   LIG    1      -31.477  74.286  29.760  0.00  0.00    -0.203 F 
ATOM     27  C   LIG    1      -31.800  76.492  29.045  0.00  0.00    +0.042 A 
ATOM     28  C   LIG    1      -32.552  77.418  28.336  0.00  0.00    +0.023 A 
ATOM     29  C   LIG    1      -33.729  76.985  27.746  0.00  0.00    +0.111 A 
ATOM     30  N   LIG    1      -34.206  75.717  27.838  0.00  0.00    -0.252 NA
ENDBRANCH  22  24
ENDBRANCH  14  16
ENDBRANCH   4  12
BRANCH   1  31
ATOM     31  C   LIG    1      -35.423  67.022  21.966  0.00  0.00    +0.233 C 
ATOM     32  N   LIG    1      -34.154  66.893  21.801  0.00  0.00    -0.245 NA
BRANCH  31  33
ATOM     33  O   LIG    1      -36.338  66.316  21.264  0.00  0.00    -0.491 OA
ATOM     34  H   LIG    1      -35.901  65.653  20.704  0.00  0.00    +0.294 HD
ENDBRANCH  31  33
BRANCH  32  35
ATOM     35  C   LIG    1      -33.728  65.938  20.761  0.00  0.00    +0.180 C 
BRANCH  35  36
ATOM     36  C   LIG    1      -33.339  66.625  19.473  0.00  0.00    -0.002 C 
ATOM     37  C   LIG    1      -34.331  66.662  18.388  0.00  0.00    +0.013 C 
ATOM     38  C   LIG    1      -34.086  67.263  17.209  0.00  0.00    +0.096 C 
ATOM     39  C   LIG    1      -32.745  67.892  17.024  0.00  0.00    +0.294 C 
ATOM     40  N   LIG    1      -31.835  67.810  18.047  0.00  0.00    -0.225 N 
ATOM     41  H   LIG    1      -30.915  68.210  17.947  0.00  0.00    +0.292 HD
ATOM     42  C   LIG    1      -32.143  67.201  19.239  0.00  0.00    +0.240 C 
BRANCH  39  43
ATOM     43  N   LIG    1      -32.490  68.491  15.906  0.00  0.00    -0.071 NA
ATOM     44  H   LIG    1      -31.562  68.914  15.952  0.00  0.00    +0.348 HD
ENDBRANCH  39  43
ENDBRANCH  35  36
ENDBRANCH  32  35
ENDBRANCH   1  31
TORSDOF 9
ENDMDL
MODEL 9
REMARK VINA RESULT:      -6.6      4.903     10.552
REMARK  Name = pdb/CHEMBL3962152.pdb
REMARK                            x       y       z     vdW  Elec       q    Type
REMARK                         _______ _______ _______ _____ _____    ______ ____
ROOT
ATOM      1  C   LIG    1      -36.246  71.659  26.992  0.00  0.00    +0.131 C 
ATOM      2  N   LIG    1      -37.346  72.408  26.799  0.00  0.00    -0.141 NA
ATOM      3  N   LIG    1      -37.637  72.276  25.465  0.00  0.00    -0.201 N 
ATOM      4  C   LIG    1      -36.846  71.275  24.881  0.00  0.00    +0.185 C 
ATOM      5  C   LIG    1      -35.837  71.048  25.784  0.00  0.00    +0.056 C 
ENDROOT
BRANCH   3   6
ATOM      6  C   LIG    1      -38.634  73.112  24.877  0.00  0.00    +0.052 A 
ATOM      7  C   LIG    1      -39.744  72.513  24.253  0.00  0.00    +0.025 A 
ATOM      8  C   LIG    1      -40.762  73.298  23.702  0.00  0.00    +0.002 A 
ATOM      9  C   LIG    1      -40.693  74.686  23.781  0.00  0.00    +0.000 A 
ATOM     10  C   LIG    1      -39.612  75.289  24.422  0.00  0.00    +0.002 A 
ATOM     11  C   LIG    1      -38.582  74.510  24.974  0.00  0.00    +0.025 A 
ENDBRANCH   3   6
BRANCH   4  12
ATOM     12  N   LIG    1      -37.060  70.582  23.675  0.00  0.00    -0.282 N 
ATOM     13  H   LIG    1      -36.760  71.029  22.817  0.00  0.00    +0.152 HD
ATOM     14  C   LIG    1      -37.879  69.379  23.588  0.00  0.00    +0.247 C 
ATOM     15  O   LIG    1      -38.374  68.902  24.580  0.00  0.00    -0.270 OA
BRANCH  14  16
ATOM     16  C   LIG    1      -38.181  68.793  22.239  0.00  0.00    +0.056 A 
ATOM     17  C   LIG    1      -39.458  68.672  21.692  0.00  0.00    +0.056 A 
ATOM     18 CL   LIG    1      -40.851  69.498  22.287  0.00  0.00    -0.083 Cl
ATOM     19  C   LIG    1      -39.662  67.863  20.575  0.00  0.00    +0.059 A 
ATOM     20  C   LIG    1      -38.580  67.280  19.922  0.00  0.00    +0.134 A 
ATOM     21  F   LIG    1      -38.855  66.446  18.911  0.00  0.00    -0.205 F 
ATOM     22  C   LIG    1      -37.260  67.530  20.307  0.00  0.00    +0.039 A 
ATOM     23  C   LIG    1      -37.085  68.250  21.513  0.00  0.00    +0.027 A 
BRANCH  22  24
ATOM     24  C   LIG    1      -36.111  67.062  19.501  0.00  0.00    +0.109 A 
ATOM     25  C   LIG    1      -35.239  66.048  19.923  0.00  0.00    +0.149 A 
ATOM     26  F   LIG    1      -35.432  65.388  21.074  0.00  0.00    -0.203 F 
ATOM     27  C   LIG    1      -34.170  65.669  19.121  0.00  0.00    +0.042 A 
ATOM     28  C   LIG    1      -34.002  66.282  17.888  0.00  0.00    +0.023 A 
ATOM     29  C   LIG    1      -34.923  67.246  17.510  0.00  0.00    +0.111 A 
ATOM     30  N   LIG    1      -35.967  67.648  18.281  0.00  0.00    -0.252 NA
ENDBRANCH  22  24
ENDBRANCH  14  16
ENDBRANCH   4  12
BRANCH   1  31
ATOM     31  C   LIG    1      -35.614  71.529  28.308  0.00  0.00    +0.233 C 
ATOM     32  N   LIG    1      -34.448  72.024  28.528  0.00  0.00    -0.245 NA
BRANCH  31  33
ATOM     33  O   LIG    1      -36.341  70.893  29.255  0.00  0.00    -0.491 OA
ATOM     34  H   LIG    1      -36.710  70.066  28.903  0.00  0.00    +0.294 HD
ENDBRANCH  31  33
BRANCH  32  35
ATOM     35  C   LIG    1      -33.907  71.834  29.886  0.00  0.00    +0.180 C 
BRANCH  35  36
ATOM     36  C   LIG    1      -32.446  71.446  29.876  0.00  0.00    -0.002 C 
ATOM     37  C   LIG    1      -31.473  72.422  30.388  0.00  0.00    +0.013 C 
ATOM     38  C   LIG    1      -30.153  72.165  30.435  0.00  0.00    +0.096 C 
ATOM     39  C   LIG    1      -29.693  70.839  29.928  0.00  0.00    +0.294 C 
ATOM     40  N   LIG    1      -30.628  69.967  29.429  0.00  0.00    -0.225 N 
ATOM     41  H   LIG    1      -30.346  69.070  29.065  0.00  0.00    +0.292 HD
ATOM     42  C   LIG    1      -31.966  70.271  29.423  0.00  0.00    +0.240 C 
BRANCH  39  43
ATOM     43  N   LIG    1      -28.431  70.560  29.977  0.00  0.00    -0.071 NA
ATOM     44  H   LIG    1      -27.973  70.906  29.133  0.00  0.00    +0.348 HD
ENDBRANCH  39  43
ENDBRANCH  35  36
ENDBRANCH  32  35
ENDBRANCH   1  31
TORSDOF 9
ENDMDL
