MODEL 1
REMARK VINA RESULT:      -7.0      0.000      0.000
REMARK  Name = pdb/CHEMBL3954937.pdb
REMARK                            x       y       z     vdW  Elec       q    Type
REMARK                         _______ _______ _______ _____ _____    ______ ____
ROOT
ATOM      1  C   LIG    1      -31.622  74.258  29.798  0.00  0.00    +0.149 A 
ATOM      2  N   LIG    1      -31.591  75.553  29.463  0.00  0.00    -0.160 NA
ATOM      3  N   LIG    1      -32.682  75.771  28.690  0.00  0.00    -0.218 N 
ATOM      4  C   LIG    1      -33.375  74.580  28.428  0.00  0.00    +0.129 A 
ATOM      5  C   LIG    1      -32.688  73.605  29.133  0.00  0.00    +0.078 A 
ENDROOT
BRANCH   3   6
ATOM      6  C   LIG    1      -32.911  77.102  28.233  0.00  0.00    +0.067 A 
ATOM      7  C   LIG    1      -32.248  77.637  27.127  0.00  0.00    +0.028 A 
ATOM      8  C   LIG    1      -32.530  78.943  26.711  0.00  0.00    +0.002 A 
ATOM      9  C   LIG    1      -33.469  79.720  27.388  0.00  0.00    +0.000 A 
ATOM     10  C   LIG    1      -34.144  79.191  28.483  0.00  0.00    +0.002 A 
ATOM     11  C   LIG    1      -33.878  77.885  28.896  0.00  0.00    +0.028 A 
ENDBRANCH   3   6
BRANCH   4  12
ATOM     12  N   LIG    1      -34.495  74.365  27.596  0.00  0.00    -0.266 N 
ATOM     13  H   LIG    1      -34.337  74.011  26.666  0.00  0.00    +0.157 HD
ATOM     14  C   LIG    1      -35.865  74.520  28.030  0.00  0.00    +0.251 C 
ATOM     15  O   LIG    1      -36.127  74.826  29.198  0.00  0.00    -0.270 OA
BRANCH  14  16
ATOM     16  C   LIG    1      -36.965  74.315  27.052  0.00  0.00    +0.056 A 
ATOM     17  C   LIG    1      -37.392  73.068  26.596  0.00  0.00    +0.054 A 
ATOM     18 CL   LIG    1      -36.755  71.579  27.188  0.00  0.00    -0.083 Cl
ATOM     19  C   LIG    1      -38.397  72.992  25.629  0.00  0.00    +0.041 A 
ATOM     20  C   LIG    1      -39.014  74.150  25.119  0.00  0.00    +0.052 A 
ATOM     21 CL   LIG    1      -40.142  73.875  23.833  0.00  0.00    -0.083 Cl
ATOM     22  C   LIG    1      -38.667  75.432  25.598  0.00  0.00    +0.022 A 
ATOM     23  C   LIG    1      -37.630  75.467  26.565  0.00  0.00    +0.026 A 
BRANCH  22  24
ATOM     24  C   LIG    1      -39.316  76.701  25.146  0.00  0.00    +0.107 A 
ATOM     25  C   LIG    1      -38.785  77.514  24.137  0.00  0.00    +0.149 A 
ATOM     26  F   LIG    1      -37.646  77.195  23.507  0.00  0.00    -0.203 F 
ATOM     27  C   LIG    1      -39.430  78.688  23.762  0.00  0.00    +0.042 A 
ATOM     28  C   LIG    1      -40.608  79.048  24.399  0.00  0.00    +0.023 A 
ATOM     29  C   LIG    1      -41.075  78.218  25.403  0.00  0.00    +0.111 A 
ATOM     30  N   LIG    1      -40.453  77.074  25.792  0.00  0.00    -0.252 NA
ENDBRANCH  22  24
ENDBRANCH  14  16
ENDBRANCH   4  12
BRANCH   1  32
ATOM     31  N   LIG    1      -30.570  72.408  30.872  0.00  0.00    -0.247 NA
ATOM     32  C   LIG    1      -30.625  73.677  30.706  0.00  0.00    +0.236 C 
BRANCH  32  33
ATOM     33  O   LIG    1      -29.788  74.569  31.277  0.00  0.00    -0.491 OA
ATOM     34  H   LIG    1      -28.875  74.260  31.313  0.00  0.00    +0.294 HD
ENDBRANCH  32  33
BRANCH  31  35
ATOM     35  C   LIG    1      -29.618  71.797  31.798  0.00  0.00    +0.178 C 
BRANCH  35  38
ATOM     36  C   LIG    1      -26.574  72.871  31.762  0.00  0.00    +0.154 C 
ATOM     37  N   LIG    1      -27.136  71.781  30.988  0.00  0.00    -0.145 NA
ATOM     38  C   LIG    1      -28.397  71.181  31.162  0.00  0.00    +0.130 C 
ATOM     39  C   LIG    1      -28.404  69.923  30.664  0.00  0.00    +0.100 C 
ATOM     40  C   LIG    1      -27.020  69.741  30.165  0.00  0.00    +0.309 C 
ATOM     41  N   LIG    1      -26.258  70.851  30.456  0.00  0.00    -0.155 N 
ATOM     42  H   LIG    1      -25.666  71.168  29.693  0.00  0.00    +0.318 HD
BRANCH  40  43
ATOM     43  N   LIG    1      -26.645  68.690  29.527  0.00  0.00    -0.069 NA
ATOM     44  H   LIG    1      -27.099  68.678  28.609  0.00  0.00    +0.348 HD
ENDBRANCH  40  43
ENDBRANCH  35  38
ENDBRANCH  31  35
ENDBRANCH   1  32
TORSDOF 9
ENDMDL
MODEL 2
REMARK VINA RESULT:      -6.9      8.816     11.739
REMARK  Name = pdb/CHEMBL3954937.pdb
REMARK                            x       y       z     vdW  Elec       q    Type
REMARK                         _______ _______ _______ _____ _____    ______ ____
ROOT
ATOM      1  C   LIG    1      -31.182  87.093  30.752  0.00  0.00    +0.149 A 
ATOM      2  N   LIG    1      -32.111  87.931  30.278  0.00  0.00    -0.160 NA
ATOM      3  N   LIG    1      -33.087  87.154  29.748  0.00  0.00    -0.218 N 
ATOM      4  C   LIG    1      -32.740  85.795  29.781  0.00  0.00    +0.129 A 
ATOM      5  C   LIG    1      -31.511  85.757  30.418  0.00  0.00    +0.078 A 
ENDROOT
BRANCH   3   6
ATOM      6  C   LIG    1      -34.233  87.810  29.209  0.00  0.00    +0.067 A 
ATOM      7  C   LIG    1      -35.534  87.462  29.576  0.00  0.00    +0.028 A 
ATOM      8  C   LIG    1      -36.621  88.155  29.031  0.00  0.00    +0.002 A 
ATOM      9  C   LIG    1      -36.419  89.194  28.123  0.00  0.00    +0.000 A 
ATOM     10  C   LIG    1      -35.127  89.557  27.761  0.00  0.00    +0.002 A 
ATOM     11  C   LIG    1      -34.038  88.879  28.310  0.00  0.00    +0.028 A 
ENDBRANCH   3   6
BRANCH   4  12
ATOM     12  N   LIG    1      -33.432  84.687  29.249  0.00  0.00    -0.266 N 
ATOM     13  H   LIG    1      -33.182  84.366  28.326  0.00  0.00    +0.157 HD
ATOM     14  C   LIG    1      -34.405  83.912  29.986  0.00  0.00    +0.251 C 
ATOM     15  O   LIG    1      -34.659  84.175  31.166  0.00  0.00    -0.270 OA
BRANCH  14  16
ATOM     16  C   LIG    1      -35.108  82.792  29.307  0.00  0.00    +0.056 A 
ATOM     17  C   LIG    1      -36.476  82.770  29.037  0.00  0.00    +0.054 A 
ATOM     18 CL   LIG    1      -37.526  84.096  29.372  0.00  0.00    -0.083 Cl
ATOM     19  C   LIG    1      -37.047  81.639  28.446  0.00  0.00    +0.041 A 
ATOM     20  C   LIG    1      -36.264  80.525  28.090  0.00  0.00    +0.052 A 
ATOM     21 CL   LIG    1      -37.155  79.163  27.494  0.00  0.00    -0.083 Cl
ATOM     22  C   LIG    1      -34.865  80.525  28.278  0.00  0.00    +0.022 A 
ATOM     23  C   LIG    1      -34.329  81.683  28.898  0.00  0.00    +0.026 A 
BRANCH  22  24
ATOM     24  C   LIG    1      -33.963  79.403  27.875  0.00  0.00    +0.107 A 
ATOM     25  C   LIG    1      -33.818  78.230  28.627  0.00  0.00    +0.149 A 
ATOM     26  F   LIG    1      -34.492  78.043  29.770  0.00  0.00    -0.203 F 
ATOM     27  C   LIG    1      -32.958  77.221  28.205  0.00  0.00    +0.042 A 
ATOM     28  C   LIG    1      -32.243  77.387  27.028  0.00  0.00    +0.023 A 
ATOM     29  C   LIG    1      -32.409  78.575  26.338  0.00  0.00    +0.111 A 
ATOM     30  N   LIG    1      -33.235  79.577  26.740  0.00  0.00    -0.252 NA
ENDBRANCH  22  24
ENDBRANCH  14  16
ENDBRANCH   4  12
BRANCH   1  32
ATOM     31  N   LIG    1      -29.975  87.562  32.754  0.00  0.00    -0.247 NA
ATOM     32  C   LIG    1      -30.002  87.586  31.474  0.00  0.00    +0.236 C 
BRANCH  32  33
ATOM     33  O   LIG    1      -28.987  87.998  30.685  0.00  0.00    -0.491 OA
ATOM     34  H   LIG    1      -29.275  88.244  29.798  0.00  0.00    +0.294 HD
ENDBRANCH  32  33
BRANCH  31  35
ATOM     35  C   LIG    1      -28.834  88.080  33.506  0.00  0.00    +0.178 C 
BRANCH  35  38
ATOM     36  C   LIG    1      -26.750  88.668  35.900  0.00  0.00    +0.154 C 
ATOM     37  N   LIG    1      -27.146  87.377  35.370  0.00  0.00    -0.145 NA
ATOM     38  C   LIG    1      -28.206  87.116  34.482  0.00  0.00    +0.130 C 
ATOM     39  C   LIG    1      -28.622  85.834  34.593  0.00  0.00    +0.100 C 
ATOM     40  C   LIG    1      -27.751  85.279  35.657  0.00  0.00    +0.309 C 
ATOM     41  N   LIG    1      -26.932  86.264  36.165  0.00  0.00    -0.155 N 
ATOM     42  H   LIG    1      -25.965  85.979  36.299  0.00  0.00    +0.318 HD
BRANCH  40  43
ATOM     43  N   LIG    1      -27.774  84.040  35.996  0.00  0.00    -0.069 NA
ATOM     44  H   LIG    1      -27.023  83.546  35.506  0.00  0.00    +0.348 HD
ENDBRANCH  40  43
ENDBRANCH  35  38
ENDBRANCH  31  35
ENDBRANCH   1  32
TORSDOF 9
ENDMDL
MODEL 3
REMARK VINA RESULT:      -6.8      1.598      1.876
REMARK  Name = pdb/CHEMBL3954937.pdb
REMARK                            x       y       z     vdW  Elec       q    Type
REMARK                         _______ _______ _______ _____ _____    ______ ____
ROOT
ATOM      1  C   LIG    1      -31.568  74.248  29.856  0.00  0.00    +0.149 A 
ATOM      2  N   LIG    1      -31.525  75.528  29.472  0.00  0.00    -0.160 NA
ATOM      3  N   LIG    1      -32.611  75.726  28.686  0.00  0.00    -0.218 N 
ATOM      4  C   LIG    1      -33.314  74.532  28.468  0.00  0.00    +0.129 A 
ATOM      5  C   LIG    1      -32.638  73.579  29.213  0.00  0.00    +0.078 A 
ENDROOT
BRANCH   3   6
ATOM      6  C   LIG    1      -32.827  77.040  28.178  0.00  0.00    +0.067 A 
ATOM      7  C   LIG    1      -32.196  77.508  27.023  0.00  0.00    +0.028 A 
ATOM      8  C   LIG    1      -32.463  78.801  26.559  0.00  0.00    +0.002 A 
ATOM      9  C   LIG    1      -33.357  79.630  27.236  0.00  0.00    +0.000 A 
ATOM     10  C   LIG    1      -34.000  79.169  28.378  0.00  0.00    +0.002 A 
ATOM     11  C   LIG    1      -33.748  77.877  28.841  0.00  0.00    +0.028 A 
ENDBRANCH   3   6
BRANCH   4  12
ATOM     12  N   LIG    1      -34.432  74.295  27.641  0.00  0.00    -0.266 N 
ATOM     13  H   LIG    1      -34.287  73.815  26.766  0.00  0.00    +0.157 HD
ATOM     14  C   LIG    1      -35.794  74.601  28.017  0.00  0.00    +0.251 C 
ATOM     15  O   LIG    1      -36.052  75.070  29.130  0.00  0.00    -0.270 OA
BRANCH  14  16
ATOM     16  C   LIG    1      -36.891  74.354  27.044  0.00  0.00    +0.056 A 
ATOM     17  C   LIG    1      -37.287  73.090  26.608  0.00  0.00    +0.054 A 
ATOM     18 CL   LIG    1      -36.612  71.627  27.221  0.00  0.00    -0.083 Cl
ATOM     19  C   LIG    1      -38.291  72.974  25.644  0.00  0.00    +0.041 A 
ATOM     20  C   LIG    1      -38.937  74.109  25.118  0.00  0.00    +0.052 A 
ATOM     21 CL   LIG    1      -40.060  73.786  23.838  0.00  0.00    -0.083 Cl
ATOM     22  C   LIG    1      -38.622  75.406  25.576  0.00  0.00    +0.022 A 
ATOM     23  C   LIG    1      -37.584  75.482  26.540  0.00  0.00    +0.026 A 
BRANCH  22  24
ATOM     24  C   LIG    1      -39.302  76.652  25.106  0.00  0.00    +0.107 A 
ATOM     25  C   LIG    1      -38.780  77.475  24.101  0.00  0.00    +0.149 A 
ATOM     26  F   LIG    1      -37.621  77.188  23.491  0.00  0.00    -0.203 F 
ATOM     27  C   LIG    1      -39.455  78.626  23.708  0.00  0.00    +0.042 A 
ATOM     28  C   LIG    1      -40.654  78.953  24.323  0.00  0.00    +0.023 A 
ATOM     29  C   LIG    1      -41.111  78.115  25.325  0.00  0.00    +0.111 A 
ATOM     30  N   LIG    1      -40.460  76.993  25.731  0.00  0.00    -0.252 NA
ENDBRANCH  22  24
ENDBRANCH  14  16
ENDBRANCH   4  12
BRANCH   1  32
ATOM     31  N   LIG    1      -29.832  74.476  31.474  0.00  0.00    -0.247 NA
ATOM     32  C   LIG    1      -30.580  73.693  30.789  0.00  0.00    +0.236 C 
BRANCH  32  33
ATOM     33  O   LIG    1      -30.578  72.346  30.879  0.00  0.00    -0.491 OA
ATOM     34  H   LIG    1      -30.675  72.029  31.786  0.00  0.00    +0.294 HD
ENDBRANCH  32  33
BRANCH  31  35
ATOM     35  C   LIG    1      -28.810  73.959  32.383  0.00  0.00    +0.178 C 
BRANCH  35  38
ATOM     36  C   LIG    1      -27.130  76.706  32.164  0.00  0.00    +0.154 C 
ATOM     37  N   LIG    1      -26.754  75.398  31.662  0.00  0.00    -0.145 NA
ATOM     38  C   LIG    1      -27.383  74.171  31.945  0.00  0.00    +0.130 C 
ATOM     39  C   LIG    1      -26.526  73.140  31.765  0.00  0.00    +0.100 C 
ATOM     40  C   LIG    1      -25.265  73.804  31.359  0.00  0.00    +0.309 C 
ATOM     41  N   LIG    1      -25.415  75.173  31.393  0.00  0.00    -0.155 N 
ATOM     42  H   LIG    1      -25.024  75.659  30.590  0.00  0.00    +0.318 HD
BRANCH  40  43
ATOM     43  N   LIG    1      -24.219  73.148  31.003  0.00  0.00    -0.069 NA
ATOM     44  H   LIG    1      -24.366  72.770  30.063  0.00  0.00    +0.348 HD
ENDBRANCH  40  43
ENDBRANCH  35  38
ENDBRANCH  31  35
ENDBRANCH   1  32
TORSDOF 9
ENDMDL
MODEL 4
REMARK VINA RESULT:      -6.8      4.826      7.157
REMARK  Name = pdb/CHEMBL3954937.pdb
REMARK                            x       y       z     vdW  Elec       q    Type
REMARK                         _______ _______ _______ _____ _____    ______ ____
ROOT
ATOM      1  C   LIG    1      -29.568  75.783  31.256  0.00  0.00    +0.149 A 
ATOM      2  N   LIG    1      -30.408  76.276  30.339  0.00  0.00    -0.160 NA
ATOM      3  N   LIG    1      -31.267  75.274  30.033  0.00  0.00    -0.218 N 
ATOM      4  C   LIG    1      -30.917  74.079  30.679  0.00  0.00    +0.129 A 
ATOM      5  C   LIG    1      -29.819  74.404  31.458  0.00  0.00    +0.078 A 
ENDROOT
BRANCH   3   6
ATOM      6  C   LIG    1      -32.308  75.559  29.100  0.00  0.00    +0.067 A 
ATOM      7  C   LIG    1      -33.385  74.695  28.897  0.00  0.00    +0.028 A 
ATOM      8  C   LIG    1      -34.389  75.036  27.983  0.00  0.00    +0.002 A 
ATOM      9  C   LIG    1      -34.326  76.233  27.270  0.00  0.00    +0.000 A 
ATOM     10  C   LIG    1      -33.264  77.106  27.475  0.00  0.00    +0.002 A 
ATOM     11  C   LIG    1      -32.266  76.779  28.394  0.00  0.00    +0.028 A 
ENDBRANCH   3   6
BRANCH   4  12
ATOM     12  N   LIG    1      -31.493  72.797  30.553  0.00  0.00    -0.266 N 
ATOM     13  H   LIG    1      -32.394  72.635  30.976  0.00  0.00    +0.157 HD
ATOM     14  C   LIG    1      -30.923  71.730  29.763  0.00  0.00    +0.251 C 
ATOM     15  O   LIG    1      -29.887  71.907  29.115  0.00  0.00    -0.270 OA
BRANCH  14  16
ATOM     16  C   LIG    1      -31.592  70.402  29.743  0.00  0.00    +0.056 A 
ATOM     17  C   LIG    1      -31.174  69.297  30.483  0.00  0.00    +0.054 A 
ATOM     18 CL   LIG    1      -29.868  69.355  31.607  0.00  0.00    -0.083 Cl
ATOM     19  C   LIG    1      -31.842  68.078  30.344  0.00  0.00    +0.041 A 
ATOM     20  C   LIG    1      -32.951  67.943  29.487  0.00  0.00    +0.052 A 
ATOM     21 CL   LIG    1      -33.570  66.331  29.337  0.00  0.00    -0.083 Cl
ATOM     22  C   LIG    1      -33.456  69.048  28.768  0.00  0.00    +0.022 A 
ATOM     23  C   LIG    1      -32.739  70.262  28.923  0.00  0.00    +0.026 A 
BRANCH  22  24
ATOM     24  C   LIG    1      -34.661  68.994  27.885  0.00  0.00    +0.107 A 
ATOM     25  C   LIG    1      -34.594  69.113  26.491  0.00  0.00    +0.149 A 
ATOM     26  F   LIG    1      -33.423  69.282  25.858  0.00  0.00    -0.203 F 
ATOM     27  C   LIG    1      -35.750  69.062  25.719  0.00  0.00    +0.042 A 
ATOM     28  C   LIG    1      -36.976  68.893  26.345  0.00  0.00    +0.023 A 
ATOM     29  C   LIG    1      -36.985  68.803  27.726  0.00  0.00    +0.111 A 
ATOM     30  N   LIG    1      -35.868  68.863  28.497  0.00  0.00    -0.252 NA
ENDBRANCH  22  24
ENDBRANCH  14  16
ENDBRANCH   4  12
BRANCH   1  32
ATOM     31  N   LIG    1      -27.374  76.141  32.116  0.00  0.00    -0.247 NA
ATOM     32  C   LIG    1      -28.539  76.621  31.883  0.00  0.00    +0.236 C 
BRANCH  32  33
ATOM     33  O   LIG    1      -28.916  77.894  32.128  0.00  0.00    -0.491 OA
ATOM     34  H   LIG    1      -28.689  78.189  33.019  0.00  0.00    +0.294 HD
ENDBRANCH  32  33
BRANCH  31  35
ATOM     35  C   LIG    1      -26.337  76.934  32.775  0.00  0.00    +0.178 C 
BRANCH  35  38
ATOM     36  C   LIG    1      -23.260  76.328  33.535  0.00  0.00    +0.154 C 
ATOM     37  N   LIG    1      -23.757  77.096  32.410  0.00  0.00    -0.145 NA
ATOM     38  C   LIG    1      -25.089  77.176  31.963  0.00  0.00    +0.130 C 
ATOM     39  C   LIG    1      -25.138  77.522  30.657  0.00  0.00    +0.100 C 
ATOM     40  C   LIG    1      -23.711  77.640  30.276  0.00  0.00    +0.309 C 
ATOM     41  N   LIG    1      -22.904  77.289  31.336  0.00  0.00    -0.155 N 
ATOM     42  H   LIG    1      -22.114  77.911  31.488  0.00  0.00    +0.318 HD
BRANCH  40  43
ATOM     43  N   LIG    1      -23.333  78.047  29.117  0.00  0.00    -0.069 NA
ATOM     44  H   LIG    1      -22.909  77.265  28.611  0.00  0.00    +0.348 HD
ENDBRANCH  40  43
ENDBRANCH  35  38
ENDBRANCH  31  35
ENDBRANCH   1  32
TORSDOF 9
ENDMDL
MODEL 5
REMARK VINA RESULT:      -6.7      4.912      9.709
REMARK  Name = pdb/CHEMBL3954937.pdb
REMARK                            x       y       z     vdW  Elec       q    Type
REMARK                         _______ _______ _______ _____ _____    ______ ____
ROOT
ATOM      1  C   LIG    1      -38.835  71.964  24.241  0.00  0.00    +0.149 A 
ATOM      2  N   LIG    1      -39.835  72.793  23.920  0.00  0.00    -0.160 NA
ATOM      3  N   LIG    1      -39.430  74.034  24.279  0.00  0.00    -0.218 N 
ATOM      4  C   LIG    1      -38.193  74.003  24.941  0.00  0.00    +0.129 A 
ATOM      5  C   LIG    1      -37.815  72.670  24.925  0.00  0.00    +0.078 A 
ENDROOT
BRANCH   3   6
ATOM      6  C   LIG    1      -40.308  75.123  23.997  0.00  0.00    +0.067 A 
ATOM      7  C   LIG    1      -39.873  76.449  23.988  0.00  0.00    +0.028 A 
ATOM      8  C   LIG    1      -40.775  77.475  23.683  0.00  0.00    +0.002 A 
ATOM      9  C   LIG    1      -42.107  77.188  23.386  0.00  0.00    +0.000 A 
ATOM     10  C   LIG    1      -42.546  75.869  23.380  0.00  0.00    +0.002 A 
ATOM     11  C   LIG    1      -41.650  74.839  23.671  0.00  0.00    +0.028 A 
ENDBRANCH   3   6
BRANCH   4  12
ATOM     12  N   LIG    1      -37.482  75.058  25.550  0.00  0.00    -0.266 N 
ATOM     13  H   LIG    1      -36.767  75.524  25.014  0.00  0.00    +0.157 HD
ATOM     14  C   LIG    1      -37.786  75.586  26.861  0.00  0.00    +0.251 C 
ATOM     15  O   LIG    1      -38.736  75.144  27.516  0.00  0.00    -0.270 OA
BRANCH  14  16
ATOM     16  C   LIG    1      -36.937  76.669  27.423  0.00  0.00    +0.056 A 
ATOM     17  C   LIG    1      -37.256  78.025  27.378  0.00  0.00    +0.054 A 
ATOM     18 CL   LIG    1      -38.743  78.623  26.742  0.00  0.00    -0.083 Cl
ATOM     19  C   LIG    1      -36.356  78.966  27.886  0.00  0.00    +0.041 A 
ATOM     20  C   LIG    1      -35.138  78.573  28.470  0.00  0.00    +0.052 A 
ATOM     21 CL   LIG    1      -34.088  79.876  28.923  0.00  0.00    -0.083 Cl
ATOM     22  C   LIG    1      -34.798  77.210  28.603  0.00  0.00    +0.022 A 
ATOM     23  C   LIG    1      -35.729  76.288  28.058  0.00  0.00    +0.026 A 
BRANCH  22  24
ATOM     24  C   LIG    1      -33.550  76.715  29.261  0.00  0.00    +0.107 A 
ATOM     25  C   LIG    1      -32.309  76.671  28.613  0.00  0.00    +0.149 A 
ATOM     26  F   LIG    1      -32.168  77.078  27.343  0.00  0.00    -0.203 F 
ATOM     27  C   LIG    1      -31.182  76.195  29.274  0.00  0.00    +0.042 A 
ATOM     28  C   LIG    1      -31.297  75.762  30.586  0.00  0.00    +0.023 A 
ATOM     29  C   LIG    1      -32.551  75.808  31.170  0.00  0.00    +0.111 A 
ATOM     30  N   LIG    1      -33.666  76.259  30.536  0.00  0.00    -0.252 NA
ENDBRANCH  22  24
ENDBRANCH  14  16
ENDBRANCH   4  12
BRANCH   1  32
ATOM     31  N   LIG    1      -37.811  69.851  23.833  0.00  0.00    -0.247 NA
ATOM     32  C   LIG    1      -38.892  70.533  23.921  0.00  0.00    +0.236 C 
BRANCH  32  33
ATOM     33  O   LIG    1      -40.138  70.030  23.787  0.00  0.00    -0.491 OA
ATOM     34  H   LIG    1      -40.144  69.083  23.604  0.00  0.00    +0.294 HD
ENDBRANCH  32  33
BRANCH  31  35
ATOM     35  C   LIG    1      -37.827  68.433  23.477  0.00  0.00    +0.178 C 
BRANCH  35  38
ATOM     36  C   LIG    1      -35.395  66.541  22.517  0.00  0.00    +0.154 C 
ATOM     37  N   LIG    1      -36.179  67.452  21.705  0.00  0.00    -0.145 NA
ATOM     38  C   LIG    1      -37.367  68.107  22.078  0.00  0.00    +0.130 C 
ATOM     39  C   LIG    1      -38.093  68.444  20.987  0.00  0.00    +0.100 C 
ATOM     40  C   LIG    1      -37.283  67.927  19.859  0.00  0.00    +0.309 C 
ATOM     41  N   LIG    1      -36.177  67.256  20.335  0.00  0.00    -0.155 N 
ATOM     42  H   LIG    1      -35.312  67.470  19.845  0.00  0.00    +0.318 HD
BRANCH  40  43
ATOM     43  N   LIG    1      -37.595  68.131  18.629  0.00  0.00    -0.069 NA
ATOM     44  H   LIG    1      -37.084  67.467  18.041  0.00  0.00    +0.348 HD
ENDBRANCH  40  43
ENDBRANCH  35  38
ENDBRANCH  31  35
ENDBRANCH   1  32
TORSDOF 9
ENDMDL
MODEL 6
REMARK VINA RESULT:      -6.7      3.378      5.308
REMARK  Name = pdb/CHEMBL3954937.pdb
REMARK                            x       y       z     vdW  Elec       q    Type
REMARK                         _______ _______ _______ _____ _____    ______ ____
ROOT
ATOM      1  C   LIG    1      -30.005  75.449  31.348  0.00  0.00    +0.149 A 
ATOM      2  N   LIG    1      -30.358  74.213  30.980  0.00  0.00    -0.160 NA
ATOM      3  N   LIG    1      -31.523  74.337  30.301  0.00  0.00    -0.218 N 
ATOM      4  C   LIG    1      -31.993  75.659  30.319  0.00  0.00    +0.129 A 
ATOM      5  C   LIG    1      -31.020  76.372  31.000  0.00  0.00    +0.078 A 
ENDROOT
BRANCH   3   6
ATOM      6  C   LIG    1      -32.098  73.152  29.752  0.00  0.00    +0.067 A 
ATOM      7  C   LIG    1      -31.592  71.880  30.027  0.00  0.00    +0.028 A 
ATOM      8  C   LIG    1      -32.209  70.751  29.477  0.00  0.00    +0.002 A 
ATOM      9  C   LIG    1      -33.329  70.881  28.656  0.00  0.00    +0.000 A 
ATOM     10  C   LIG    1      -33.848  72.142  28.387  0.00  0.00    +0.002 A 
ATOM     11  C   LIG    1      -33.245  73.272  28.942  0.00  0.00    +0.028 A 
ENDBRANCH   3   6
BRANCH   4  12
ATOM     12  N   LIG    1      -33.203  76.181  29.815  0.00  0.00    -0.266 N 
ATOM     13  H   LIG    1      -34.008  76.190  30.421  0.00  0.00    +0.157 HD
ATOM     14  C   LIG    1      -33.335  76.806  28.518  0.00  0.00    +0.251 C 
ATOM     15  O   LIG    1      -32.354  76.944  27.780  0.00  0.00    -0.270 OA
BRANCH  14  16
ATOM     16  C   LIG    1      -34.672  77.277  28.071  0.00  0.00    +0.056 A 
ATOM     17  C   LIG    1      -35.117  78.595  28.170  0.00  0.00    +0.054 A 
ATOM     18 CL   LIG    1      -34.124  79.885  28.741  0.00  0.00    -0.083 Cl
ATOM     19  C   LIG    1      -36.417  78.919  27.774  0.00  0.00    +0.041 A 
ATOM     20  C   LIG    1      -37.286  77.945  27.248  0.00  0.00    +0.052 A 
ATOM     21 CL   LIG    1      -38.900  78.495  26.935  0.00  0.00    -0.083 Cl
ATOM     22  C   LIG    1      -36.863  76.612  27.063  0.00  0.00    +0.022 A 
ATOM     23  C   LIG    1      -35.543  76.320  27.495  0.00  0.00    +0.026 A 
BRANCH  22  24
ATOM     24  C   LIG    1      -37.710  75.537  26.460  0.00  0.00    +0.107 A 
ATOM     25  C   LIG    1      -38.030  75.489  25.097  0.00  0.00    +0.149 A 
ATOM     26  F   LIG    1      -37.584  76.419  24.240  0.00  0.00    -0.203 F 
ATOM     27  C   LIG    1      -38.828  74.468  24.593  0.00  0.00    +0.042 A 
ATOM     28  C   LIG    1      -39.308  73.494  25.455  0.00  0.00    +0.023 A 
ATOM     29  C   LIG    1      -38.979  73.603  26.795  0.00  0.00    +0.111 A 
ATOM     30  N   LIG    1      -38.210  74.600  27.308  0.00  0.00    -0.252 NA
ENDBRANCH  22  24
ENDBRANCH  14  16
ENDBRANCH   4  12
BRANCH   1  32
ATOM     31  N   LIG    1      -27.936  76.607  31.603  0.00  0.00    -0.247 NA
ATOM     32  C   LIG    1      -28.738  75.710  32.043  0.00  0.00    +0.236 C 
BRANCH  32  33
ATOM     33  O   LIG    1      -28.544  74.979  33.162  0.00  0.00    -0.491 OA
ATOM     34  H   LIG    1      -29.295  75.009  33.767  0.00  0.00    +0.294 HD
ENDBRANCH  32  33
BRANCH  31  35
ATOM     35  C   LIG    1      -26.650  76.867  32.247  0.00  0.00    +0.178 C 
BRANCH  35  38
ATOM     36  C   LIG    1      -24.919  74.258  31.461  0.00  0.00    +0.154 C 
ATOM     37  N   LIG    1      -24.591  75.647  31.202  0.00  0.00    -0.145 NA
ATOM     38  C   LIG    1      -25.441  76.759  31.352  0.00  0.00    +0.130 C 
ATOM     39  C   LIG    1      -25.032  77.784  30.570  0.00  0.00    +0.100 C 
ATOM     40  C   LIG    1      -23.845  77.236  29.872  0.00  0.00    +0.309 C 
ATOM     41  N   LIG    1      -23.661  75.913  30.212  0.00  0.00    -0.155 N 
ATOM     42  H   LIG    1      -22.696  75.661  30.413  0.00  0.00    +0.318 HD
BRANCH  40  43
ATOM     43  N   LIG    1      -23.108  77.946  29.095  0.00  0.00    -0.069 NA
ATOM     44  H   LIG    1      -23.534  78.870  28.984  0.00  0.00    +0.348 HD
ENDBRANCH  40  43
ENDBRANCH  35  38
ENDBRANCH  31  35
ENDBRANCH   1  32
TORSDOF 9
ENDMDL
MODEL 7
REMARK VINA RESULT:      -6.6      5.946      9.048
REMARK  Name = pdb/CHEMBL3954937.pdb
REMARK                            x       y       z     vdW  Elec       q    Type
REMARK                         _______ _______ _______ _____ _____    ______ ____
ROOT
ATOM      1  C   LIG    1      -36.020  72.016  26.823  0.00  0.00    +0.149 A 
ATOM      2  N   LIG    1      -37.035  72.814  26.473  0.00  0.00    -0.160 NA
ATOM      3  N   LIG    1      -37.557  72.289  25.339  0.00  0.00    -0.218 N 
ATOM      4  C   LIG    1      -36.807  71.194  24.884  0.00  0.00    +0.129 A 
ATOM      5  C   LIG    1      -35.812  71.025  25.834  0.00  0.00    +0.078 A 
ENDROOT
BRANCH   3   6
ATOM      6  C   LIG    1      -38.698  72.934  24.777  0.00  0.00    +0.067 A 
ATOM      7  C   LIG    1      -39.756  72.222  24.210  0.00  0.00    +0.028 A 
ATOM      8  C   LIG    1      -40.859  72.908  23.691  0.00  0.00    +0.002 A 
ATOM      9  C   LIG    1      -40.917  74.301  23.736  0.00  0.00    +0.000 A 
ATOM     10  C   LIG    1      -39.874  75.019  24.310  0.00  0.00    +0.002 A 
ATOM     11  C   LIG    1      -38.776  74.341  24.841  0.00  0.00    +0.028 A 
ENDBRANCH   3   6
BRANCH   4  12
ATOM     12  N   LIG    1      -36.961  70.439  23.702  0.00  0.00    -0.266 N 
ATOM     13  H   LIG    1      -36.425  70.706  22.891  0.00  0.00    +0.157 HD
ATOM     14  C   LIG    1      -37.758  69.236  23.611  0.00  0.00    +0.251 C 
ATOM     15  O   LIG    1      -38.334  68.783  24.604  0.00  0.00    -0.270 OA
BRANCH  14  16
ATOM     16  C   LIG    1      -37.887  68.548  22.299  0.00  0.00    +0.056 A 
ATOM     17  C   LIG    1      -39.040  68.555  21.516  0.00  0.00    +0.054 A 
ATOM     18 CL   LIG    1      -40.453  69.455  21.925  0.00  0.00    -0.083 Cl
ATOM     19  C   LIG    1      -39.074  67.824  20.325  0.00  0.00    +0.041 A 
ATOM     20  C   LIG    1      -37.953  67.097  19.881  0.00  0.00    +0.052 A 
ATOM     21 CL   LIG    1      -38.216  66.143  18.458  0.00  0.00    -0.083 Cl
ATOM     22  C   LIG    1      -36.740  67.113  20.601  0.00  0.00    +0.022 A 
ATOM     23  C   LIG    1      -36.754  67.851  21.813  0.00  0.00    +0.026 A 
BRANCH  22  24
ATOM     24  C   LIG    1      -35.494  66.411  20.163  0.00  0.00    +0.107 A 
ATOM     25  C   LIG    1      -34.786  66.761  19.006  0.00  0.00    +0.149 A 
ATOM     26  F   LIG    1      -35.191  67.763  18.213  0.00  0.00    -0.203 F 
ATOM     27  C   LIG    1      -33.636  66.068  18.645  0.00  0.00    +0.042 A 
ATOM     28  C   LIG    1      -33.194  65.023  19.443  0.00  0.00    +0.023 A 
ATOM     29  C   LIG    1      -33.944  64.708  20.562  0.00  0.00    +0.111 A 
ATOM     30  N   LIG    1      -35.078  65.365  20.925  0.00  0.00    -0.252 NA
ENDBRANCH  22  24
ENDBRANCH  14  16
ENDBRANCH   4  12
BRANCH   1  32
ATOM     31  N   LIG    1      -34.218  72.979  28.052  0.00  0.00    -0.247 NA
ATOM     32  C   LIG    1      -35.262  72.236  28.061  0.00  0.00    +0.236 C 
BRANCH  32  33
ATOM     33  O   LIG    1      -35.783  71.645  29.158  0.00  0.00    -0.491 OA
ATOM     34  H   LIG    1      -35.950  70.703  29.035  0.00  0.00    +0.294 HD
ENDBRANCH  32  33
BRANCH  31  35
ATOM     35  C   LIG    1      -33.417  73.189  29.256  0.00  0.00    +0.178 C 
BRANCH  35  38
ATOM     36  C   LIG    1      -30.911  74.107  31.071  0.00  0.00    +0.154 C 
ATOM     37  N   LIG    1      -31.832  74.957  30.342  0.00  0.00    -0.145 NA
ATOM     38  C   LIG    1      -32.783  74.551  29.387  0.00  0.00    +0.130 C 
ATOM     39  C   LIG    1      -33.095  75.571  28.555  0.00  0.00    +0.100 C 
ATOM     40  C   LIG    1      -32.242  76.683  29.037  0.00  0.00    +0.309 C 
ATOM     41  N   LIG    1      -31.428  76.251  30.061  0.00  0.00    -0.155 N 
ATOM     42  H   LIG    1      -31.368  76.891  30.849  0.00  0.00    +0.318 HD
BRANCH  40  43
ATOM     43  N   LIG    1      -32.315  77.872  28.554  0.00  0.00    -0.069 NA
ATOM     44  H   LIG    1      -31.477  78.394  28.827  0.00  0.00    +0.348 HD
ENDBRANCH  40  43
ENDBRANCH  35  38
ENDBRANCH  31  35
ENDBRANCH   1  32
TORSDOF 9
ENDMDL
MODEL 8
REMARK VINA RESULT:      -6.5      6.575     10.508
REMARK  Name = pdb/CHEMBL3954937.pdb
REMARK                            x       y       z     vdW  Elec       q    Type
REMARK                         _______ _______ _______ _____ _____    ______ ____
ROOT
ATOM      1  C   LIG    1      -38.335  77.329  25.878  0.00  0.00    +0.149 A 
ATOM      2  N   LIG    1      -39.448  77.054  25.189  0.00  0.00    -0.160 NA
ATOM      3  N   LIG    1      -39.358  75.752  24.825  0.00  0.00    -0.218 N 
ATOM      4  C   LIG    1      -38.121  75.199  25.189  0.00  0.00    +0.129 A 
ATOM      5  C   LIG    1      -37.460  76.216  25.858  0.00  0.00    +0.078 A 
ENDROOT
BRANCH   3   6
ATOM      6  C   LIG    1      -40.455  75.189  24.108  0.00  0.00    +0.067 A 
ATOM      7  C   LIG    1      -40.599  73.813  23.923  0.00  0.00    +0.028 A 
ATOM      8  C   LIG    1      -41.708  73.316  23.230  0.00  0.00    +0.002 A 
ATOM      9  C   LIG    1      -42.676  74.181  22.720  0.00  0.00    +0.000 A 
ATOM     10  C   LIG    1      -42.548  75.552  22.910  0.00  0.00    +0.002 A 
ATOM     11  C   LIG    1      -41.451  76.055  23.612  0.00  0.00    +0.028 A 
ENDBRANCH   3   6
BRANCH   4  12
ATOM     12  N   LIG    1      -37.603  73.917  24.911  0.00  0.00    -0.266 N 
ATOM     13  H   LIG    1      -37.015  73.805  24.100  0.00  0.00    +0.157 HD
ATOM     14  C   LIG    1      -37.773  72.772  25.777  0.00  0.00    +0.251 C 
ATOM     15  O   LIG    1      -38.373  72.875  26.851  0.00  0.00    -0.270 OA
BRANCH  14  16
ATOM     16  C   LIG    1      -37.223  71.455  25.358  0.00  0.00    +0.056 A 
ATOM     17  C   LIG    1      -36.076  70.873  25.895  0.00  0.00    +0.054 A 
ATOM     18 CL   LIG    1      -35.189  71.568  27.200  0.00  0.00    -0.083 Cl
ATOM     19  C   LIG    1      -35.613  69.657  25.386  0.00  0.00    +0.041 A 
ATOM     20  C   LIG    1      -36.296  68.987  24.354  0.00  0.00    +0.052 A 
ATOM     21 CL   LIG    1      -35.508  67.564  23.755  0.00  0.00    -0.083 Cl
ATOM     22  C   LIG    1      -37.500  69.499  23.823  0.00  0.00    +0.022 A 
ATOM     23  C   LIG    1      -37.925  70.744  24.354  0.00  0.00    +0.026 A 
BRANCH  22  24
ATOM     24  C   LIG    1      -38.309  68.817  22.767  0.00  0.00    +0.107 A 
ATOM     25  C   LIG    1      -37.968  68.838  21.409  0.00  0.00    +0.149 A 
ATOM     26  F   LIG    1      -36.875  69.481  20.971  0.00  0.00    -0.203 F 
ATOM     27  C   LIG    1      -38.763  68.190  20.469  0.00  0.00    +0.042 A 
ATOM     28  C   LIG    1      -39.902  67.520  20.890  0.00  0.00    +0.023 A 
ATOM     29  C   LIG    1      -40.202  67.551  22.241  0.00  0.00    +0.111 A 
ATOM     30  N   LIG    1      -39.444  68.189  23.172  0.00  0.00    -0.252 NA
ENDBRANCH  22  24
ENDBRANCH  14  16
ENDBRANCH   4  12
BRANCH   1  32
ATOM     31  N   LIG    1      -39.006  79.561  26.378  0.00  0.00    -0.247 NA
ATOM     32  C   LIG    1      -38.123  78.641  26.502  0.00  0.00    +0.236 C 
BRANCH  32  33
ATOM     33  O   LIG    1      -36.985  78.750  27.220  0.00  0.00    -0.491 OA
ATOM     34  H   LIG    1      -36.619  77.895  27.478  0.00  0.00    +0.294 HD
ENDBRANCH  32  33
BRANCH  31  35
ATOM     35  C   LIG    1      -38.810  80.891  26.952  0.00  0.00    +0.178 C 
BRANCH  35  38
ATOM     36  C   LIG    1      -36.066  82.581  27.123  0.00  0.00    +0.154 C 
ATOM     37  N   LIG    1      -37.182  82.797  26.223  0.00  0.00    -0.145 NA
ATOM     38  C   LIG    1      -38.273  81.935  26.006  0.00  0.00    +0.130 C 
ATOM     39  C   LIG    1      -38.829  82.160  24.793  0.00  0.00    +0.100 C 
ATOM     40  C   LIG    1      -37.986  83.236  24.220  0.00  0.00    +0.309 C 
ATOM     41  N   LIG    1      -36.947  83.535  25.074  0.00  0.00    -0.155 N 
ATOM     42  H   LIG    1      -36.777  84.529  25.198  0.00  0.00    +0.318 HD
BRANCH  40  43
ATOM     43  N   LIG    1      -38.250  83.799  23.095  0.00  0.00    -0.069 NA
ATOM     44  H   LIG    1      -38.913  83.216  22.578  0.00  0.00    +0.348 HD
ENDBRANCH  40  43
ENDBRANCH  35  38
ENDBRANCH  31  35
ENDBRANCH   1  32
TORSDOF 9
ENDMDL
MODEL 9
REMARK VINA RESULT:      -6.5      5.580     10.047
REMARK  Name = pdb/CHEMBL3954937.pdb
REMARK                            x       y       z     vdW  Elec       q    Type
REMARK                         _______ _______ _______ _____ _____    ______ ____
ROOT
ATOM      1  C   LIG    1      -37.222  79.946  27.691  0.00  0.00    +0.149 A 
ATOM      2  N   LIG    1      -36.210  79.136  28.020  0.00  0.00    -0.160 NA
ATOM      3  N   LIG    1      -36.510  77.923  27.497  0.00  0.00    -0.218 N 
ATOM      4  C   LIG    1      -37.784  77.913  26.911  0.00  0.00    +0.129 A 
ATOM      5  C   LIG    1      -38.246  79.213  27.044  0.00  0.00    +0.078 A 
ENDROOT
BRANCH   3   6
ATOM      6  C   LIG    1      -35.556  76.876  27.668  0.00  0.00    +0.067 A 
ATOM      7  C   LIG    1      -34.196  77.055  27.409  0.00  0.00    +0.028 A 
ATOM      8  C   LIG    1      -33.303  75.998  27.615  0.00  0.00    +0.002 A 
ATOM      9  C   LIG    1      -33.755  74.763  28.079  0.00  0.00    +0.000 A 
ATOM     10  C   LIG    1      -35.106  74.579  28.352  0.00  0.00    +0.002 A 
ATOM     11  C   LIG    1      -36.001  75.632  28.161  0.00  0.00    +0.028 A 
ENDBRANCH   3   6
BRANCH   4  12
ATOM     12  N   LIG    1      -38.498  76.835  26.348  0.00  0.00    -0.266 N 
ATOM     13  H   LIG    1      -39.367  76.560  26.780  0.00  0.00    +0.157 HD
ATOM     14  C   LIG    1      -38.118  76.165  25.125  0.00  0.00    +0.251 C 
ATOM     15  O   LIG    1      -37.135  76.541  24.478  0.00  0.00    -0.270 OA
BRANCH  14  16
ATOM     16  C   LIG    1      -38.919  75.006  24.651  0.00  0.00    +0.056 A 
ATOM     17  C   LIG    1      -40.144  75.111  23.994  0.00  0.00    +0.054 A 
ATOM     18 CL   LIG    1      -40.852  76.620  23.553  0.00  0.00    -0.083 Cl
ATOM     19  C   LIG    1      -40.844  73.953  23.643  0.00  0.00    +0.041 A 
ATOM     20  C   LIG    1      -40.325  72.673  23.916  0.00  0.00    +0.052 A 
ATOM     21 CL   LIG    1      -41.385  71.356  23.535  0.00  0.00    -0.083 Cl
ATOM     22  C   LIG    1      -39.058  72.512  24.516  0.00  0.00    +0.022 A 
ATOM     23  C   LIG    1      -38.390  73.711  24.873  0.00  0.00    +0.026 A 
BRANCH  22  24
ATOM     24  C   LIG    1      -38.419  71.187  24.786  0.00  0.00    +0.107 A 
ATOM     25  C   LIG    1      -38.356  70.613  26.062  0.00  0.00    +0.149 A 
ATOM     26  F   LIG    1      -38.877  71.229  27.133  0.00  0.00    -0.203 F 
ATOM     27  C   LIG    1      -37.743  69.380  26.253  0.00  0.00    +0.042 A 
ATOM     28  C   LIG    1      -37.191  68.720  25.165  0.00  0.00    +0.023 A 
ATOM     29  C   LIG    1      -37.263  69.344  23.932  0.00  0.00    +0.111 A 
ATOM     30  N   LIG    1      -37.847  70.554  23.727  0.00  0.00    -0.252 NA
ENDBRANCH  22  24
ENDBRANCH  14  16
ENDBRANCH   4  12
BRANCH   1  32
ATOM     31  N   LIG    1      -36.594  82.206  27.264  0.00  0.00    -0.247 NA
ATOM     32  C   LIG    1      -37.201  81.375  28.027  0.00  0.00    +0.236 C 
BRANCH  32  33
ATOM     33  O   LIG    1      -37.893  81.706  29.138  0.00  0.00    -0.491 OA
ATOM     34  H   LIG    1      -38.036  82.657  29.223  0.00  0.00    +0.294 HD
ENDBRANCH  32  33
BRANCH  31  35
ATOM     35  C   LIG    1      -36.519  83.630  27.589  0.00  0.00    +0.178 C 
BRANCH  35  38
ATOM     36  C   LIG    1      -39.269  83.996  25.939  0.00  0.00    +0.154 C 
ATOM     37  N   LIG    1      -37.969  84.557  25.625  0.00  0.00    -0.145 NA
ATOM     38  C   LIG    1      -36.832  84.573  26.454  0.00  0.00    +0.130 C 
ATOM     39  C   LIG    1      -35.995  85.575  26.102  0.00  0.00    +0.100 C 
ATOM     40  C   LIG    1      -36.698  86.235  24.976  0.00  0.00    +0.309 C 
ATOM     41  N   LIG    1      -37.928  85.647  24.773  0.00  0.00    -0.155 N 
ATOM     42  H   LIG    1      -38.155  85.472  23.797  0.00  0.00    +0.318 HD
BRANCH  40  43
ATOM     43  N   LIG    1      -36.176  87.193  24.298  0.00  0.00    -0.069 NA
ATOM     44  H   LIG    1      -36.290  88.068  24.815  0.00  0.00    +0.348 HD
ENDBRANCH  40  43
ENDBRANCH  35  38
ENDBRANCH  31  35
ENDBRANCH   1  32
TORSDOF 9
ENDMDL
