MODEL 1
REMARK VINA RESULT:      -5.6      0.000      0.000
REMARK  Name = pdb/CHEMBL3671426.pdb
REMARK                            x       y       z     vdW  Elec       q    Type
REMARK                         _______ _______ _______ _____ _____    ______ ____
ROOT
ATOM      1  C   LIG    1      -21.581  76.425  29.974  0.00  0.00    +0.197 C 
ATOM      2  O   LIG    1      -21.583  76.498  28.747  0.00  0.00    -0.287 OA
ENDROOT
BRANCH   1  10
ATOM      3  N   LIG    1      -23.964  74.439  31.979  0.00  0.00    -0.323 N 
ATOM      4  C   LIG    1      -24.766  75.501  31.617  0.00  0.00    +0.147 A 
ATOM      5  N   LIG    1      -26.052  75.681  31.953  0.00  0.00    -0.197 NA
ATOM      6  C   LIG    1      -26.577  76.815  31.487  0.00  0.00    +0.214 A 
ATOM      7  N   LIG    1      -25.937  77.755  30.778  0.00  0.00    -0.222 NA
ATOM      8  C   LIG    1      -24.643  77.545  30.450  0.00  0.00    +0.126 A 
ATOM      9  C   LIG    1      -24.001  76.377  30.858  0.00  0.00    +0.048 A 
ATOM     10  C   LIG    1      -22.697  75.810  30.696  0.00  0.00    +0.051 A 
ATOM     11  C   LIG    1      -22.763  74.567  31.303  0.00  0.00    +0.100 A 
BRANCH   3  12
ATOM     12  C   LIG    1      -24.247  73.416  33.017  0.00  0.00    +0.065 C 
ATOM     13  C   LIG    1      -25.585  72.680  32.796  0.00  0.00    +0.036 C 
ATOM     14  C   LIG    1      -23.150  72.316  33.033  0.00  0.00    +0.036 C 
BRANCH  12  15
ATOM     15  C   LIG    1      -24.229  74.102  34.414  0.00  0.00    +0.187 C 
BRANCH  15  17
ATOM     16  C   LIG    1      -25.741  75.475  35.606  0.00  0.00    +0.194 C 
ATOM     17  O   LIG    1      -25.540  74.224  34.965  0.00  0.00    -0.381 OA
ENDBRANCH  15  17
ENDBRANCH  12  15
ENDBRANCH   3  12
BRANCH   6  18
ATOM     18  N   LIG    1      -27.897  77.072  31.809  0.00  0.00    -0.327 N 
ATOM     19  H   LIG    1      -27.914  77.708  32.594  0.00  0.00    +0.145 HD
ATOM     20  H   LIG    1      -28.381  77.362  30.971  0.00  0.00    +0.145 HD
ENDBRANCH   6  18
ENDBRANCH   1  10
BRANCH   1  21
ATOM     21  C   LIG    1      -20.378  76.946  30.675  0.00  0.00    +0.042 A 
ATOM     22  C   LIG    1      -20.556  77.873  31.713  0.00  0.00    +0.038 A 
ATOM     23  C   LIG    1      -19.466  78.420  32.395  0.00  0.00    +0.052 A 
ATOM     24  C   LIG    1      -18.202  78.026  31.958  0.00  0.00    +0.134 A 
ATOM     25  N   LIG    1      -17.992  77.088  30.988  0.00  0.00    -0.261 NA
ATOM     26  C   LIG    1      -19.084  76.542  30.403  0.00  0.00    +0.122 A 
BRANCH  23  27
ATOM     27  N   LIG    1      -19.767  79.302  33.470  0.00  0.00    -0.283 N 
ATOM     28  H   LIG    1      -19.888  80.276  33.209  0.00  0.00    +0.155 HD
ATOM     29  C   LIG    1      -19.983  78.972  34.794  0.00  0.00    +0.239 C 
ATOM     30  O   LIG    1      -19.874  77.819  35.221  0.00  0.00    -0.273 OA
BRANCH  29  31
ATOM     31  C   LIG    1      -20.314  80.152  35.697  0.00  0.00    +0.241 C 
BRANCH  31  32
ATOM     32  N   LIG    1      -21.737  80.427  35.707  0.00  0.00    -0.243 N 
ATOM     33  N   LIG    1      -22.541  80.000  34.717  0.00  0.00    -0.065 NA
ATOM     34  N   LIG    1      -23.782  80.355  35.038  0.00  0.00    -0.134 NA
ATOM     35  C   LIG    1      -23.729  81.048  36.216  0.00  0.00    +0.086 A 
ATOM     36  C   LIG    1      -22.428  81.124  36.648  0.00  0.00    +0.134 A 
BRANCH  35  37
ATOM     37  C   LIG    1      -24.936  81.631  36.916  0.00  0.00    +0.041 C 
ATOM     38  C   LIG    1      -25.212  83.116  36.759  0.00  0.00    +0.010 C 
ATOM     39  C   LIG    1      -24.728  82.594  38.067  0.00  0.00    +0.010 C 
ENDBRANCH  35  37
ENDBRANCH  31  32
ENDBRANCH  29  31
ENDBRANCH  23  27
ENDBRANCH   1  21
TORSDOF 10
ENDMDL
MODEL 2
REMARK VINA RESULT:      -5.5      0.853      1.511
REMARK  Name = pdb/CHEMBL3671426.pdb
REMARK                            x       y       z     vdW  Elec       q    Type
REMARK                         _______ _______ _______ _____ _____    ______ ____
ROOT
ATOM      1  C   LIG    1      -21.725  76.405  29.952  0.00  0.00    +0.197 C 
ATOM      2  O   LIG    1      -21.749  76.498  28.727  0.00  0.00    -0.287 OA
ENDROOT
BRANCH   1  10
ATOM      3  N   LIG    1      -24.099  74.436  31.985  0.00  0.00    -0.323 N 
ATOM      4  C   LIG    1      -24.898  75.502  31.629  0.00  0.00    +0.147 A 
ATOM      5  N   LIG    1      -26.180  75.689  31.976  0.00  0.00    -0.197 NA
ATOM      6  C   LIG    1      -26.704  76.825  31.512  0.00  0.00    +0.214 A 
ATOM      7  N   LIG    1      -26.066  77.760  30.795  0.00  0.00    -0.222 NA
ATOM      8  C   LIG    1      -24.776  77.543  30.455  0.00  0.00    +0.126 A 
ATOM      9  C   LIG    1      -24.137  76.372  30.860  0.00  0.00    +0.048 A 
ATOM     10  C   LIG    1      -22.837  75.798  30.686  0.00  0.00    +0.051 A 
ATOM     11  C   LIG    1      -22.903  74.557  31.298  0.00  0.00    +0.100 A 
BRANCH   3  12
ATOM     12  C   LIG    1      -24.376  73.418  33.029  0.00  0.00    +0.065 C 
ATOM     13  C   LIG    1      -23.161  72.518  33.337  0.00  0.00    +0.036 C 
ATOM     14  C   LIG    1      -24.766  74.088  34.375  0.00  0.00    +0.036 C 
BRANCH  12  15
ATOM     15  C   LIG    1      -25.591  72.556  32.577  0.00  0.00    +0.187 C 
BRANCH  15  17
ATOM     16  C   LIG    1      -26.335  71.111  30.859  0.00  0.00    +0.194 C 
ATOM     17  O   LIG    1      -25.219  71.583  31.601  0.00  0.00    -0.381 OA
ENDBRANCH  15  17
ENDBRANCH  12  15
ENDBRANCH   3  12
BRANCH   6  18
ATOM     18  N   LIG    1      -28.019  77.089  31.846  0.00  0.00    -0.327 N 
ATOM     19  H   LIG    1      -28.524  77.311  31.000  0.00  0.00    +0.145 HD
ATOM     20  H   LIG    1      -28.369  76.322  32.403  0.00  0.00    +0.145 HD
ENDBRANCH   6  18
ENDBRANCH   1  10
BRANCH   1  21
ATOM     21  C   LIG    1      -20.499  76.894  30.637  0.00  0.00    +0.042 A 
ATOM     22  C   LIG    1      -20.639  77.827  31.676  0.00  0.00    +0.038 A 
ATOM     23  C   LIG    1      -19.526  78.345  32.343  0.00  0.00    +0.052 A 
ATOM     24  C   LIG    1      -18.279  77.916  31.891  0.00  0.00    +0.134 A 
ATOM     25  N   LIG    1      -18.106  76.972  30.920  0.00  0.00    -0.261 NA
ATOM     26  C   LIG    1      -19.220  76.455  30.349  0.00  0.00    +0.122 A 
BRANCH  23  27
ATOM     27  N   LIG    1      -19.789  79.236  33.420  0.00  0.00    -0.283 N 
ATOM     28  H   LIG    1      -19.920  80.208  33.155  0.00  0.00    +0.155 HD
ATOM     29  C   LIG    1      -19.958  78.918  34.754  0.00  0.00    +0.239 C 
ATOM     30  O   LIG    1      -19.832  77.768  35.187  0.00  0.00    -0.273 OA
BRANCH  29  31
ATOM     31  C   LIG    1      -20.257  80.106  35.658  0.00  0.00    +0.241 C 
BRANCH  31  32
ATOM     32  N   LIG    1      -21.678  80.388  35.706  0.00  0.00    -0.243 N 
ATOM     33  N   LIG    1      -22.498  80.035  34.701  0.00  0.00    -0.065 NA
ATOM     34  N   LIG    1      -23.732  80.374  35.062  0.00  0.00    -0.134 NA
ATOM     35  C   LIG    1      -23.659  80.983  36.285  0.00  0.00    +0.086 A 
ATOM     36  C   LIG    1      -22.352  81.022  36.703  0.00  0.00    +0.134 A 
BRANCH  35  37
ATOM     37  C   LIG    1      -24.853  81.523  37.040  0.00  0.00    +0.041 C 
ATOM     38  C   LIG    1      -25.303  82.945  36.753  0.00  0.00    +0.010 C 
ATOM     39  C   LIG    1      -24.646  82.631  38.053  0.00  0.00    +0.010 C 
ENDBRANCH  35  37
ENDBRANCH  31  32
ENDBRANCH  29  31
ENDBRANCH  23  27
ENDBRANCH   1  21
TORSDOF 10
ENDMDL
MODEL 3
REMARK VINA RESULT:      -5.4     15.324     17.909
REMARK  Name = pdb/CHEMBL3671426.pdb
REMARK                            x       y       z     vdW  Elec       q    Type
REMARK                         _______ _______ _______ _____ _____    ______ ____
ROOT
ATOM      1  C   LIG    1      -19.418  75.581  15.473  0.00  0.00    +0.197 C 
ATOM      2  O   LIG    1      -18.848  75.161  14.468  0.00  0.00    -0.287 OA
ENDROOT
BRANCH   1  10
ATOM      3  N   LIG    1      -21.301  73.243  17.625  0.00  0.00    -0.323 N 
ATOM      4  C   LIG    1      -20.086  73.260  18.277  0.00  0.00    +0.147 A 
ATOM      5  N   LIG    1      -19.765  72.577  19.387  0.00  0.00    -0.197 NA
ATOM      6  C   LIG    1      -18.507  72.761  19.787  0.00  0.00    +0.214 A 
ATOM      7  N   LIG    1      -17.578  73.507  19.175  0.00  0.00    -0.222 NA
ATOM      8  C   LIG    1      -17.930  74.189  18.062  0.00  0.00    +0.126 A 
ATOM      9  C   LIG    1      -19.231  74.095  17.571  0.00  0.00    +0.048 A 
ATOM     10  C   LIG    1      -19.958  74.659  16.475  0.00  0.00    +0.051 A 
ATOM     11  C   LIG    1      -21.255  74.195  16.622  0.00  0.00    +0.100 A 
BRANCH   3  12
ATOM     12  C   LIG    1      -22.415  72.284  17.833  0.00  0.00    +0.065 C 
ATOM     13  C   LIG    1      -22.979  72.311  19.269  0.00  0.00    +0.036 C 
ATOM     14  C   LIG    1      -23.612  72.605  16.897  0.00  0.00    +0.036 C 
BRANCH  12  15
ATOM     15  C   LIG    1      -21.920  70.854  17.471  0.00  0.00    +0.187 C 
BRANCH  15  17
ATOM     16  C   LIG    1      -22.109  69.557  15.502  0.00  0.00    +0.194 C 
ATOM     17  O   LIG    1      -22.804  70.199  16.562  0.00  0.00    -0.381 OA
ENDBRANCH  15  17
ENDBRANCH  12  15
ENDBRANCH   3  12
BRANCH   6  18
ATOM     18  N   LIG    1      -18.104  72.073  20.918  0.00  0.00    -0.327 N 
ATOM     19  H   LIG    1      -18.652  71.228  20.988  0.00  0.00    +0.145 HD
ATOM     20  H   LIG    1      -17.099  71.969  20.889  0.00  0.00    +0.145 HD
ENDBRANCH   6  18
ENDBRANCH   1  10
BRANCH   1  21
ATOM     21  C   LIG    1      -19.488  77.057  15.637  0.00  0.00    +0.042 A 
ATOM     22  C   LIG    1      -20.666  77.717  15.257  0.00  0.00    +0.038 A 
ATOM     23  C   LIG    1      -20.788  79.105  15.362  0.00  0.00    +0.052 A 
ATOM     24  C   LIG    1      -19.665  79.792  15.822  0.00  0.00    +0.134 A 
ATOM     25  N   LIG    1      -18.522  79.179  16.249  0.00  0.00    -0.261 NA
ATOM     26  C   LIG    1      -18.480  77.827  16.186  0.00  0.00    +0.122 A 
BRANCH  23  27
ATOM     27  N   LIG    1      -22.048  79.662  15.007  0.00  0.00    -0.283 N 
ATOM     28  H   LIG    1      -22.407  79.375  14.100  0.00  0.00    +0.155 HD
ATOM     29  C   LIG    1      -22.858  80.473  15.778  0.00  0.00    +0.239 C 
ATOM     30  O   LIG    1      -22.528  80.873  16.899  0.00  0.00    -0.273 OA
BRANCH  29  31
ATOM     31  C   LIG    1      -24.166  80.880  15.115  0.00  0.00    +0.241 C 
BRANCH  31  32
ATOM     32  N   LIG    1      -24.976  79.723  14.790  0.00  0.00    -0.243 N 
ATOM     33  N   LIG    1      -25.286  78.800  15.718  0.00  0.00    -0.065 NA
ATOM     34  N   LIG    1      -26.076  77.904  15.134  0.00  0.00    -0.134 NA
ATOM     35  C   LIG    1      -26.214  78.259  13.820  0.00  0.00    +0.086 A 
ATOM     36  C   LIG    1      -25.500  79.407  13.575  0.00  0.00    +0.134 A 
BRANCH  35  37
ATOM     37  C   LIG    1      -27.035  77.489  12.811  0.00  0.00    +0.041 C 
ATOM     38  C   LIG    1      -28.473  77.918  12.575  0.00  0.00    +0.010 C 
ATOM     39  C   LIG    1      -28.197  76.644  13.295  0.00  0.00    +0.010 C 
ENDBRANCH  35  37
ENDBRANCH  31  32
ENDBRANCH  29  31
ENDBRANCH  23  27
ENDBRANCH   1  21
TORSDOF 10
ENDMDL
MODEL 4
REMARK VINA RESULT:      -5.3     11.366     16.635
REMARK  Name = pdb/CHEMBL3671426.pdb
REMARK                            x       y       z     vdW  Elec       q    Type
REMARK                         _______ _______ _______ _____ _____    ______ ____
ROOT
ATOM      1  C   LIG    1      -33.710  73.560  29.789  0.00  0.00    +0.197 C 
ATOM      2  O   LIG    1      -33.567  73.837  30.977  0.00  0.00    -0.287 OA
ENDROOT
BRANCH   1  10
ATOM      3  N   LIG    1      -35.640  75.733  27.509  0.00  0.00    -0.323 N 
ATOM      4  C   LIG    1      -34.411  76.356  27.469  0.00  0.00    +0.147 A 
ATOM      5  N   LIG    1      -34.096  77.454  26.765  0.00  0.00    -0.197 NA
ATOM      6  C   LIG    1      -32.836  77.858  26.933  0.00  0.00    +0.214 A 
ATOM      7  N   LIG    1      -31.923  77.301  27.740  0.00  0.00    -0.222 NA
ATOM      8  C   LIG    1      -32.266  76.193  28.433  0.00  0.00    +0.126 A 
ATOM      9  C   LIG    1      -33.550  75.664  28.309  0.00  0.00    +0.048 A 
ATOM     10  C   LIG    1      -34.254  74.538  28.844  0.00  0.00    +0.051 A 
ATOM     11  C   LIG    1      -35.495  74.561  28.231  0.00  0.00    +0.100 A 
BRANCH   3  12
ATOM     12  C   LIG    1      -36.934  76.269  27.016  0.00  0.00    +0.065 C 
ATOM     13  C   LIG    1      -37.096  76.151  25.486  0.00  0.00    +0.036 C 
ATOM     14  C   LIG    1      -38.132  75.498  27.635  0.00  0.00    +0.036 C 
BRANCH  12  15
ATOM     15  C   LIG    1      -37.063  77.754  27.464  0.00  0.00    +0.187 C 
BRANCH  15  17
ATOM     16  C   LIG    1      -38.800  79.095  28.346  0.00  0.00    +0.194 C 
ATOM     17  O   LIG    1      -38.026  77.914  28.505  0.00  0.00    -0.381 OA
ENDBRANCH  15  17
ENDBRANCH  12  15
ENDBRANCH   3  12
BRANCH   6  18
ATOM     18  N   LIG    1      -32.448  78.995  26.248  0.00  0.00    -0.327 N 
ATOM     19  H   LIG    1      -31.535  78.829  25.848  0.00  0.00    +0.145 HD
ATOM     20  H   LIG    1      -33.189  79.256  25.612  0.00  0.00    +0.145 HD
ENDBRANCH   6  18
ENDBRANCH   1  10
BRANCH   1  21
ATOM     21  C   LIG    1      -33.264  72.208  29.358  0.00  0.00    +0.042 A 
ATOM     22  C   LIG    1      -34.150  71.417  28.611  0.00  0.00    +0.038 A 
ATOM     23  C   LIG    1      -33.802  70.129  28.197  0.00  0.00    +0.052 A 
ATOM     24  C   LIG    1      -32.551  69.665  28.602  0.00  0.00    +0.134 A 
ATOM     25  N   LIG    1      -31.643  70.425  29.282  0.00  0.00    -0.261 NA
ATOM     26  C   LIG    1      -32.006  71.690  29.604  0.00  0.00    +0.122 A 
BRANCH  23  27
ATOM     27  N   LIG    1      -34.754  69.441  27.394  0.00  0.00    -0.283 N 
ATOM     28  H   LIG    1      -35.487  68.961  27.908  0.00  0.00    +0.155 HD
ATOM     29  C   LIG    1      -34.832  69.418  26.015  0.00  0.00    +0.239 C 
ATOM     30  O   LIG    1      -34.001  69.975  25.290  0.00  0.00    -0.273 OA
BRANCH  29  31
ATOM     31  C   LIG    1      -35.992  68.606  25.457  0.00  0.00    +0.241 C 
BRANCH  31  32
ATOM     32  N   LIG    1      -35.692  68.095  24.135  0.00  0.00    -0.243 N 
ATOM     33  N   LIG    1      -36.189  68.676  23.028  0.00  0.00    -0.065 NA
ATOM     34  N   LIG    1      -35.693  68.020  21.983  0.00  0.00    -0.134 NA
ATOM     35  C   LIG    1      -34.919  66.997  22.458  0.00  0.00    +0.086 A 
ATOM     36  C   LIG    1      -34.923  67.014  23.831  0.00  0.00    +0.134 A 
BRANCH  35  37
ATOM     37  C   LIG    1      -34.179  66.010  21.582  0.00  0.00    +0.041 C 
ATOM     38  C   LIG    1      -33.236  66.555  20.523  0.00  0.00    +0.010 C 
ATOM     39  C   LIG    1      -34.523  65.930  20.108  0.00  0.00    +0.010 C 
ENDBRANCH  35  37
ENDBRANCH  31  32
ENDBRANCH  29  31
ENDBRANCH  23  27
ENDBRANCH   1  21
TORSDOF 10
ENDMDL
MODEL 5
REMARK VINA RESULT:      -5.3     11.481     16.795
REMARK  Name = pdb/CHEMBL3671426.pdb
REMARK                            x       y       z     vdW  Elec       q    Type
REMARK                         _______ _______ _______ _____ _____    ______ ____
ROOT
ATOM      1  C   LIG    1      -34.015  72.295  29.520  0.00  0.00    +0.197 C 
ATOM      2  O   LIG    1      -34.549  72.062  30.602  0.00  0.00    -0.287 OA
ENDROOT
BRANCH   1  10
ATOM      3  N   LIG    1      -33.228  75.710  28.354  0.00  0.00    -0.323 N 
ATOM      4  C   LIG    1      -32.222  75.523  29.279  0.00  0.00    +0.147 A 
ATOM      5  N   LIG    1      -31.262  76.403  29.602  0.00  0.00    -0.197 NA
ATOM      6  C   LIG    1      -30.432  75.968  30.551  0.00  0.00    +0.214 A 
ATOM      7  N   LIG    1      -30.505  74.797  31.197  0.00  0.00    -0.222 NA
ATOM      8  C   LIG    1      -31.479  73.928  30.847  0.00  0.00    +0.126 A 
ATOM      9  C   LIG    1      -32.385  74.265  29.843  0.00  0.00    +0.048 A 
ATOM     10  C   LIG    1      -33.497  73.628  29.205  0.00  0.00    +0.051 A 
ATOM     11  C   LIG    1      -33.906  74.511  28.219  0.00  0.00    +0.100 A 
BRANCH   3  12
ATOM     12  C   LIG    1      -33.636  76.990  27.721  0.00  0.00    +0.065 C 
ATOM     13  C   LIG    1      -32.622  77.500  26.675  0.00  0.00    +0.036 C 
ATOM     14  C   LIG    1      -34.986  76.837  26.968  0.00  0.00    +0.036 C 
BRANCH  12  15
ATOM     15  C   LIG    1      -33.850  78.055  28.835  0.00  0.00    +0.187 C 
BRANCH  15  17
ATOM     16  C   LIG    1      -34.327  80.264  28.141  0.00  0.00    +0.194 C 
ATOM     17  O   LIG    1      -34.865  78.995  28.485  0.00  0.00    -0.381 OA
ENDBRANCH  15  17
ENDBRANCH  12  15
ENDBRANCH   3  12
BRANCH   6  18
ATOM     18  N   LIG    1      -29.426  76.832  30.946  0.00  0.00    -0.327 N 
ATOM     19  H   LIG    1      -28.571  76.555  30.485  0.00  0.00    +0.145 HD
ATOM     20  H   LIG    1      -29.742  77.781  30.799  0.00  0.00    +0.145 HD
ENDBRANCH   6  18
ENDBRANCH   1  10
BRANCH   1  21
ATOM     21  C   LIG    1      -33.884  71.153  28.577  0.00  0.00    +0.042 A 
ATOM     22  C   LIG    1      -34.696  71.133  27.433  0.00  0.00    +0.038 A 
ATOM     23  C   LIG    1      -34.640  70.077  26.520  0.00  0.00    +0.052 A 
ATOM     24  C   LIG    1      -33.769  69.034  26.833  0.00  0.00    +0.134 A 
ATOM     25  N   LIG    1      -32.927  69.044  27.908  0.00  0.00    -0.261 NA
ATOM     26  C   LIG    1      -32.976  70.122  28.727  0.00  0.00    +0.122 A 
BRANCH  23  27
ATOM     27  N   LIG    1      -35.462  70.191  25.365  0.00  0.00    -0.283 N 
ATOM     28  H   LIG    1      -35.011  70.601  24.552  0.00  0.00    +0.155 HD
ATOM     29  C   LIG    1      -36.759  69.743  25.207  0.00  0.00    +0.239 C 
ATOM     30  O   LIG    1      -37.401  69.220  26.124  0.00  0.00    -0.273 OA
BRANCH  29  31
ATOM     31  C   LIG    1      -37.356  69.995  23.830  0.00  0.00    +0.241 C 
BRANCH  31  32
ATOM     32  N   LIG    1      -36.883  69.025  22.863  0.00  0.00    -0.243 N 
ATOM     33  N   LIG    1      -35.768  68.305  23.080  0.00  0.00    -0.065 NA
ATOM     34  N   LIG    1      -35.631  67.472  22.052  0.00  0.00    -0.134 NA
ATOM     35  C   LIG    1      -36.650  67.719  21.174  0.00  0.00    +0.086 A 
ATOM     36  C   LIG    1      -37.449  68.723  21.664  0.00  0.00    +0.134 A 
BRANCH  35  37
ATOM     37  C   LIG    1      -36.846  66.982  19.868  0.00  0.00    +0.041 C 
ATOM     38  C   LIG    1      -36.056  67.443  18.656  0.00  0.00    +0.010 C 
ATOM     39  C   LIG    1      -37.524  67.692  18.714  0.00  0.00    +0.010 C 
ENDBRANCH  35  37
ENDBRANCH  31  32
ENDBRANCH  29  31
ENDBRANCH  23  27
ENDBRANCH   1  21
TORSDOF 10
ENDMDL
MODEL 6
REMARK VINA RESULT:      -5.3     15.484     20.058
REMARK  Name = pdb/CHEMBL3671426.pdb
REMARK                            x       y       z     vdW  Elec       q    Type
REMARK                         _______ _______ _______ _____ _____    ______ ____
ROOT
ATOM      1  C   LIG    1      -40.716  70.948  23.906  0.00  0.00    +0.197 C 
ATOM      2  O   LIG    1      -41.400  70.344  24.730  0.00  0.00    -0.287 OA
ENDROOT
BRANCH   1  10
ATOM      3  N   LIG    1      -41.138  74.614  23.755  0.00  0.00    -0.323 N 
ATOM      4  C   LIG    1      -39.854  74.530  24.252  0.00  0.00    +0.147 A 
ATOM      5  N   LIG    1      -39.052  75.558  24.568  0.00  0.00    -0.197 NA
ATOM      6  C   LIG    1      -37.867  75.186  25.055  0.00  0.00    +0.214 A 
ATOM      7  N   LIG    1      -37.456  73.930  25.274  0.00  0.00    -0.222 NA
ATOM      8  C   LIG    1      -38.283  72.914  24.941  0.00  0.00    +0.126 A 
ATOM      9  C   LIG    1      -39.536  73.187  24.394  0.00  0.00    +0.048 A 
ATOM     10  C   LIG    1      -40.639  72.411  23.916  0.00  0.00    +0.051 A 
ATOM     11  C   LIG    1      -41.548  73.334  23.427  0.00  0.00    +0.100 A 
BRANCH   3  12
ATOM     12  C   LIG    1      -42.006  75.818  23.714  0.00  0.00    +0.065 C 
ATOM     13  C   LIG    1      -42.549  76.222  25.101  0.00  0.00    +0.036 C 
ATOM     14  C   LIG    1      -41.226  77.053  23.184  0.00  0.00    +0.036 C 
BRANCH  12  15
ATOM     15  C   LIG    1      -43.179  75.557  22.725  0.00  0.00    +0.187 C 
BRANCH  15  17
ATOM     16  C   LIG    1      -45.131  76.857  22.421  0.00  0.00    +0.194 C 
ATOM     17  O   LIG    1      -43.728  76.773  22.217  0.00  0.00    -0.381 OA
ENDBRANCH  15  17
ENDBRANCH  12  15
ENDBRANCH   3  12
BRANCH   6  18
ATOM     18  N   LIG    1      -36.995  76.197  25.417  0.00  0.00    -0.327 N 
ATOM     19  H   LIG    1      -37.325  77.061  25.012  0.00  0.00    +0.145 HD
ATOM     20  H   LIG    1      -36.876  76.174  26.420  0.00  0.00    +0.145 HD
ENDBRANCH   6  18
ENDBRANCH   1  10
BRANCH   1  21
ATOM     21  C   LIG    1      -39.944  70.122  22.941  0.00  0.00    +0.042 A 
ATOM     22  C   LIG    1      -38.644  69.726  23.288  0.00  0.00    +0.038 A 
ATOM     23  C   LIG    1      -37.856  68.971  22.416  0.00  0.00    +0.052 A 
ATOM     24  C   LIG    1      -38.419  68.672  21.175  0.00  0.00    +0.134 A 
ATOM     25  N   LIG    1      -39.699  68.994  20.824  0.00  0.00    -0.261 NA
ATOM     26  C   LIG    1      -40.441  69.672  21.732  0.00  0.00    +0.122 A 
BRANCH  23  27
ATOM     27  N   LIG    1      -36.577  68.574  22.896  0.00  0.00    -0.283 N 
ATOM     28  H   LIG    1      -35.830  69.247  22.743  0.00  0.00    +0.155 HD
ATOM     29  C   LIG    1      -36.260  67.430  23.602  0.00  0.00    +0.239 C 
ATOM     30  O   LIG    1      -37.090  66.551  23.855  0.00  0.00    -0.273 OA
BRANCH  29  31
ATOM     31  C   LIG    1      -34.795  67.313  23.998  0.00  0.00    +0.241 C 
BRANCH  31  32
ATOM     32  N   LIG    1      -34.472  68.200  25.097  0.00  0.00    -0.243 N 
ATOM     33  N   LIG    1      -34.427  69.535  24.931  0.00  0.00    -0.065 NA
ATOM     34  N   LIG    1      -34.163  70.070  26.120  0.00  0.00    -0.134 NA
ATOM     35  C   LIG    1      -34.000  69.047  27.014  0.00  0.00    +0.086 A 
ATOM     36  C   LIG    1      -34.171  67.844  26.375  0.00  0.00    +0.134 A 
BRANCH  35  37
ATOM     37  C   LIG    1      -33.681  69.240  28.479  0.00  0.00    +0.041 C 
ATOM     38  C   LIG    1      -32.263  69.628  28.862  0.00  0.00    +0.010 C 
ATOM     39  C   LIG    1      -32.757  68.257  29.169  0.00  0.00    +0.010 C 
ENDBRANCH  35  37
ENDBRANCH  31  32
ENDBRANCH  29  31
ENDBRANCH  23  27
ENDBRANCH   1  21
TORSDOF 10
ENDMDL
MODEL 7
REMARK VINA RESULT:      -5.2     17.265     20.310
REMARK  Name = pdb/CHEMBL3671426.pdb
REMARK                            x       y       z     vdW  Elec       q    Type
REMARK                         _______ _______ _______ _____ _____    ______ ____
ROOT
ATOM      1  C   LIG    1      -26.317  71.241  14.562  0.00  0.00    +0.197 C 
ATOM      2  O   LIG    1      -25.936  70.294  13.877  0.00  0.00    -0.287 OA
ENDROOT
BRANCH   1  10
ATOM      3  N   LIG    1      -29.572  70.934  16.279  0.00  0.00    -0.323 N 
ATOM      4  C   LIG    1      -28.711  70.781  17.346  0.00  0.00    +0.147 A 
ATOM      5  N   LIG    1      -29.055  70.577  18.626  0.00  0.00    -0.197 NA
ATOM      6  C   LIG    1      -28.014  70.437  19.448  0.00  0.00    +0.214 A 
ATOM      7  N   LIG    1      -26.720  70.446  19.101  0.00  0.00    -0.222 NA
ATOM      8  C   LIG    1      -26.402  70.659  17.804  0.00  0.00    +0.126 A 
ATOM      9  C   LIG    1      -27.412  70.850  16.862  0.00  0.00    +0.048 A 
ATOM     10  C   LIG    1      -27.469  71.112  15.456  0.00  0.00    +0.051 A 
ATOM     11  C   LIG    1      -28.815  71.270  15.171  0.00  0.00    +0.100 A 
BRANCH   3  12
ATOM     12  C   LIG    1      -31.028  70.644  16.255  0.00  0.00    +0.065 C 
ATOM     13  C   LIG    1      -31.826  71.456  17.296  0.00  0.00    +0.036 C 
ATOM     14  C   LIG    1      -31.646  70.995  14.873  0.00  0.00    +0.036 C 
BRANCH  12  15
ATOM     15  C   LIG    1      -31.239  69.118  16.478  0.00  0.00    +0.187 C 
BRANCH  15  17
ATOM     16  C   LIG    1      -31.505  67.977  18.532  0.00  0.00    +0.194 C 
ATOM     17  O   LIG    1      -32.099  68.856  17.587  0.00  0.00    -0.381 OA
ENDBRANCH  15  17
ENDBRANCH  12  15
ENDBRANCH   3  12
BRANCH   6  18
ATOM     18  N   LIG    1      -28.297  70.207  20.782  0.00  0.00    -0.327 N 
ATOM     19  H   LIG    1      -29.046  69.532  20.837  0.00  0.00    +0.145 HD
ATOM     20  H   LIG    1      -27.435  69.979  21.258  0.00  0.00    +0.145 HD
ENDBRANCH   6  18
ENDBRANCH   1  10
BRANCH   1  21
ATOM     21  C   LIG    1      -25.525  72.496  14.469  0.00  0.00    +0.042 A 
ATOM     22  C   LIG    1      -26.087  73.594  13.801  0.00  0.00    +0.038 A 
ATOM     23  C   LIG    1      -25.385  74.794  13.656  0.00  0.00    +0.052 A 
ATOM     24  C   LIG    1      -24.091  74.820  14.174  0.00  0.00    +0.134 A 
ATOM     25  N   LIG    1      -23.532  73.790  14.875  0.00  0.00    -0.261 NA
ATOM     26  C   LIG    1      -24.279  72.673  15.042  0.00  0.00    +0.122 A 
BRANCH  23  27
ATOM     27  N   LIG    1      -26.075  75.860  13.015  0.00  0.00    -0.283 N 
ATOM     28  H   LIG    1      -25.869  75.977  12.027  0.00  0.00    +0.155 HD
ATOM     29  C   LIG    1      -27.036  76.690  13.561  0.00  0.00    +0.239 C 
ATOM     30  O   LIG    1      -27.373  76.631  14.748  0.00  0.00    -0.273 OA
BRANCH  29  31
ATOM     31  C   LIG    1      -27.606  77.722  12.598  0.00  0.00    +0.241 C 
BRANCH  31  32
ATOM     32  N   LIG    1      -28.744  77.194  11.872  0.00  0.00    -0.243 N 
ATOM     33  N   LIG    1      -28.938  75.870  11.737  0.00  0.00    -0.065 NA
ATOM     34  N   LIG    1      -30.081  75.705  11.079  0.00  0.00    -0.134 NA
ATOM     35  C   LIG    1      -30.569  76.944  10.767  0.00  0.00    +0.086 A 
ATOM     36  C   LIG    1      -29.718  77.909  11.247  0.00  0.00    +0.134 A 
BRANCH  35  37
ATOM     37  C   LIG    1      -31.856  77.187  10.011  0.00  0.00    +0.041 C 
ATOM     38  C   LIG    1      -33.136  77.365  10.808  0.00  0.00    +0.010 C 
ATOM     39  C   LIG    1      -32.930  76.119  10.018  0.00  0.00    +0.010 C 
ENDBRANCH  35  37
ENDBRANCH  31  32
ENDBRANCH  29  31
ENDBRANCH  23  27
ENDBRANCH   1  21
TORSDOF 10
ENDMDL
MODEL 8
REMARK VINA RESULT:      -5.2     16.221     18.425
REMARK  Name = pdb/CHEMBL3671426.pdb
REMARK                            x       y       z     vdW  Elec       q    Type
REMARK                         _______ _______ _______ _____ _____    ______ ____
ROOT
ATOM      1  C   LIG    1      -20.061  77.236  14.689  0.00  0.00    +0.197 C 
ATOM      2  O   LIG    1      -19.996  76.738  13.567  0.00  0.00    -0.287 OA
ENDROOT
BRANCH   1  10
ATOM      3  N   LIG    1      -21.860  80.393  15.353  0.00  0.00    -0.323 N 
ATOM      4  C   LIG    1      -22.915  79.505  15.322  0.00  0.00    +0.147 A 
ATOM      5  N   LIG    1      -24.212  79.801  15.495  0.00  0.00    -0.197 NA
ATOM      6  C   LIG    1      -25.023  78.748  15.387  0.00  0.00    +0.214 A 
ATOM      7  N   LIG    1      -24.661  77.491  15.096  0.00  0.00    -0.222 NA
ATOM      8  C   LIG    1      -23.347  77.221  14.933  0.00  0.00    +0.126 A 
ATOM      9  C   LIG    1      -22.406  78.242  15.055  0.00  0.00    +0.048 A 
ATOM     10  C   LIG    1      -20.980  78.340  14.974  0.00  0.00    +0.051 A 
ATOM     11  C   LIG    1      -20.689  79.659  15.280  0.00  0.00    +0.100 A 
BRANCH   3  12
ATOM     12  C   LIG    1      -21.935  81.875  15.312  0.00  0.00    +0.065 C 
ATOM     13  C   LIG    1      -22.991  82.402  14.318  0.00  0.00    +0.036 C 
ATOM     14  C   LIG    1      -22.327  82.455  16.700  0.00  0.00    +0.036 C 
BRANCH  12  15
ATOM     15  C   LIG    1      -20.528  82.438  14.960  0.00  0.00    +0.187 C 
BRANCH  15  17
ATOM     16  C   LIG    1      -19.329  83.960  13.604  0.00  0.00    +0.194 C 
ATOM     17  O   LIG    1      -20.607  83.551  14.070  0.00  0.00    -0.381 OA
ENDBRANCH  15  17
ENDBRANCH  12  15
ENDBRANCH   3  12
BRANCH   6  18
ATOM     18  N   LIG    1      -26.378  78.984  15.538  0.00  0.00    -0.327 N 
ATOM     19  H   LIG    1      -26.817  78.904  14.632  0.00  0.00    +0.145 HD
ATOM     20  H   LIG    1      -26.727  78.385  16.274  0.00  0.00    +0.145 HD
ENDBRANCH   6  18
ENDBRANCH   1  10
BRANCH   1  21
ATOM     21  C   LIG    1      -19.199  76.633  15.740  0.00  0.00    +0.042 A 
ATOM     22  C   LIG    1      -19.614  75.434  16.339  0.00  0.00    +0.038 A 
ATOM     23  C   LIG    1      -18.863  74.829  17.350  0.00  0.00    +0.052 A 
ATOM     24  C   LIG    1      -17.711  75.503  17.753  0.00  0.00    +0.134 A 
ATOM     25  N   LIG    1      -17.250  76.642  17.157  0.00  0.00    -0.261 NA
ATOM     26  C   LIG    1      -17.982  77.153  16.139  0.00  0.00    +0.122 A 
BRANCH  23  27
ATOM     27  N   LIG    1      -19.346  73.584  17.842  0.00  0.00    -0.283 N 
ATOM     28  H   LIG    1      -20.177  73.643  18.424  0.00  0.00    +0.155 HD
ATOM     29  C   LIG    1      -18.862  72.322  17.558  0.00  0.00    +0.239 C 
ATOM     30  O   LIG    1      -17.866  72.132  16.854  0.00  0.00    -0.273 OA
BRANCH  29  31
ATOM     31  C   LIG    1      -19.623  71.185  18.226  0.00  0.00    +0.241 C 
BRANCH  31  32
ATOM     32  N   LIG    1      -21.046  71.453  18.265  0.00  0.00    -0.243 N 
ATOM     33  N   LIG    1      -21.602  72.151  19.271  0.00  0.00    -0.065 NA
ATOM     34  N   LIG    1      -22.897  72.276  18.996  0.00  0.00    -0.134 NA
ATOM     35  C   LIG    1      -23.144  71.606  17.829  0.00  0.00    +0.086 A 
ATOM     36  C   LIG    1      -21.978  71.054  17.358  0.00  0.00    +0.134 A 
BRANCH  35  37
ATOM     37  C   LIG    1      -24.505  71.505  17.177  0.00  0.00    +0.041 C 
ATOM     38  C   LIG    1      -25.571  70.669  17.863  0.00  0.00    +0.010 C 
ATOM     39  C   LIG    1      -24.951  70.176  16.602  0.00  0.00    +0.010 C 
ENDBRANCH  35  37
ENDBRANCH  31  32
ENDBRANCH  29  31
ENDBRANCH  23  27
ENDBRANCH   1  21
TORSDOF 10
ENDMDL
MODEL 9
REMARK VINA RESULT:      -5.1      7.060     10.372
REMARK  Name = pdb/CHEMBL3671426.pdb
REMARK                            x       y       z     vdW  Elec       q    Type
REMARK                         _______ _______ _______ _____ _____    ______ ____
ROOT
ATOM      1  C   LIG    1      -31.622  75.676  29.572  0.00  0.00    +0.197 C 
ATOM      2  O   LIG    1      -30.929  76.462  28.930  0.00  0.00    -0.287 OA
ENDROOT
BRANCH   1  10
ATOM      3  N   LIG    1      -34.468  73.633  28.398  0.00  0.00    -0.323 N 
ATOM      4  C   LIG    1      -34.829  74.871  27.909  0.00  0.00    +0.147 A 
ATOM      5  N   LIG    1      -35.936  75.160  27.209  0.00  0.00    -0.197 NA
ATOM      6  C   LIG    1      -36.047  76.449  26.885  0.00  0.00    +0.214 A 
ATOM      7  N   LIG    1      -35.199  77.430  27.221  0.00  0.00    -0.222 NA
ATOM      8  C   LIG    1      -34.089  77.109  27.922  0.00  0.00    +0.126 A 
ATOM      9  C   LIG    1      -33.855  75.784  28.289  0.00  0.00    +0.048 A 
ATOM     10  C   LIG    1      -32.825  75.078  28.988  0.00  0.00    +0.051 A 
ATOM     11  C   LIG    1      -33.193  73.744  28.926  0.00  0.00    +0.100 A 
BRANCH   3  12
ATOM     12  C   LIG    1      -35.324  72.425  28.499  0.00  0.00    +0.065 C 
ATOM     13  C   LIG    1      -34.942  71.507  29.679  0.00  0.00    +0.036 C 
ATOM     14  C   LIG    1      -36.813  72.810  28.721  0.00  0.00    +0.036 C 
BRANCH  12  15
ATOM     15  C   LIG    1      -35.248  71.643  27.155  0.00  0.00    +0.187 C 
BRANCH  15  17
ATOM     16  C   LIG    1      -34.493  69.665  26.101  0.00  0.00    +0.194 C 
ATOM     17  O   LIG    1      -34.737  70.322  27.336  0.00  0.00    -0.381 OA
ENDBRANCH  15  17
ENDBRANCH  12  15
ENDBRANCH   3  12
BRANCH   6  18
ATOM     18  N   LIG    1      -37.174  76.820  26.175  0.00  0.00    -0.327 N 
ATOM     19  H   LIG    1      -37.515  76.013  25.673  0.00  0.00    +0.145 HD
ATOM     20  H   LIG    1      -37.818  77.273  26.809  0.00  0.00    +0.145 HD
ENDBRANCH   6  18
ENDBRANCH   1  10
BRANCH   1  21
ATOM     21  C   LIG    1      -31.154  75.333  30.941  0.00  0.00    +0.042 A 
ATOM     22  C   LIG    1      -29.802  75.537  31.256  0.00  0.00    +0.038 A 
ATOM     23  C   LIG    1      -29.292  75.212  32.516  0.00  0.00    +0.052 A 
ATOM     24  C   LIG    1      -30.189  74.639  33.418  0.00  0.00    +0.134 A 
ATOM     25  N   LIG    1      -31.521  74.475  33.164  0.00  0.00    -0.261 NA
ATOM     26  C   LIG    1      -31.976  74.866  31.950  0.00  0.00    +0.122 A 
BRANCH  23  27
ATOM     27  N   LIG    1      -27.922  75.518  32.746  0.00  0.00    -0.283 N 
ATOM     28  H   LIG    1      -27.261  74.830  32.397  0.00  0.00    +0.155 HD
ATOM     29  C   LIG    1      -27.399  76.665  33.311  0.00  0.00    +0.239 C 
ATOM     30  O   LIG    1      -28.108  77.572  33.759  0.00  0.00    -0.273 OA
BRANCH  29  31
ATOM     31  C   LIG    1      -25.879  76.698  33.391  0.00  0.00    +0.241 C 
BRANCH  31  32
ATOM     32  N   LIG    1      -25.286  76.897  32.084  0.00  0.00    -0.243 N 
ATOM     33  N   LIG    1      -26.041  76.951  30.971  0.00  0.00    -0.065 NA
ATOM     34  N   LIG    1      -25.223  77.196  29.952  0.00  0.00    -0.134 NA
ATOM     35  C   LIG    1      -23.947  77.248  30.442  0.00  0.00    +0.086 A 
ATOM     36  C   LIG    1      -23.964  77.037  31.799  0.00  0.00    +0.134 A 
BRANCH  35  37
ATOM     37  C   LIG    1      -22.719  77.503  29.595  0.00  0.00    +0.041 C 
ATOM     38  C   LIG    1      -21.709  76.380  29.438  0.00  0.00    +0.010 C 
ATOM     39  C   LIG    1      -21.362  77.570  30.265  0.00  0.00    +0.010 C 
ENDBRANCH  35  37
ENDBRANCH  31  32
ENDBRANCH  29  31
ENDBRANCH  23  27
ENDBRANCH   1  21
TORSDOF 10
ENDMDL
