MODEL 1
REMARK VINA RESULT:      -6.5      0.000      0.000
REMARK  Name = pdb/CHEMBL3974598.pdb
REMARK                            x       y       z     vdW  Elec       q    Type
REMARK                         _______ _______ _______ _____ _____    ______ ____
ROOT
ATOM      1  C   UNK A  0      -36.031  79.269  27.695  0.00  0.00    +0.149 A 
ATOM      2  N   UNK A  0      -35.064  78.339  27.773  0.00  0.00    -0.160 NA
ATOM      3  N   UNK A  0      -35.690  77.145  27.624  0.00  0.00    -0.218 N 
ATOM      4  C   UNK A  0      -37.018  77.306  27.223  0.00  0.00    +0.129 A 
ATOM      5  C   UNK A  0      -37.266  78.662  27.357  0.00  0.00    +0.078 A 
ENDROOT
BRANCH   3   6
ATOM      6  C   UNK A  0      -34.971  75.952  27.919  0.00  0.00    +0.067 A 
ATOM      7  C   UNK A  0      -35.603  74.701  27.922  0.00  0.00    +0.028 A 
ATOM      8  C   UNK A  0      -34.890  73.567  28.338  0.00  0.00    +0.002 A 
ATOM      9  C   UNK A  0      -33.549  73.669  28.715  0.00  0.00    +0.000 A 
ATOM     10  C   UNK A  0      -32.914  74.907  28.694  0.00  0.00    +0.002 A 
ATOM     11  C   UNK A  0      -33.627  76.049  28.321  0.00  0.00    +0.028 A 
ENDBRANCH   3   6
BRANCH   4  12
ATOM     12  N   UNK A  0      -37.904  76.349  26.695  0.00  0.00    -0.266 N 
ATOM     13  H   UNK A  0      -38.549  75.902  27.350  0.00  0.00    +0.157 HD
ATOM     14  C   UNK A  0      -37.883  75.928  25.323  0.00  0.00    +0.251 C 
ATOM     15  O   UNK A  0      -37.161  76.517  24.519  0.00  0.00    -0.270 OA
BRANCH  14  16
ATOM     16  C   UNK A  0      -38.693  74.772  24.836  0.00  0.00    +0.056 A 
ATOM     17  C   UNK A  0      -39.891  74.913  24.162  0.00  0.00    +0.054 A 
ATOM     18 CL   UNK A  0      -40.525  76.433  23.656  0.00  0.00    -0.083 Cl
ATOM     19  C   UNK A  0      -40.604  73.765  23.808  0.00  0.00    +0.041 A 
ATOM     20  C   UNK A  0      -40.094  72.479  24.063  0.00  0.00    +0.052 A 
ATOM     21 CL   UNK A  0      -41.146  71.176  23.614  0.00  0.00    -0.083 Cl
ATOM     22  C   UNK A  0      -38.807  72.304  24.615  0.00  0.00    +0.022 A 
ATOM     23  C   UNK A  0      -38.148  73.487  25.031  0.00  0.00    +0.026 A 
BRANCH  22  24
ATOM     24  C   UNK A  0      -38.118  70.984  24.718  0.00  0.00    +0.107 A 
ATOM     25  C   UNK A  0      -37.640  70.462  25.928  0.00  0.00    +0.149 A 
ATOM     26  F   UNK A  0      -37.842  71.094  27.093  0.00  0.00    -0.203 F 
ATOM     27  C   UNK A  0      -36.914  69.273  25.942  0.00  0.00    +0.042 A 
ATOM     28  C   UNK A  0      -36.670  68.615  24.744  0.00  0.00    +0.023 A 
ATOM     29  C   UNK A  0      -37.188  69.169  23.588  0.00  0.00    +0.111 A 
ATOM     30  N   UNK A  0      -37.917  70.313  23.558  0.00  0.00    -0.252 NA
ENDBRANCH  22  24
ENDBRANCH  14  16
ENDBRANCH   4  12
BRANCH   1  32
ATOM     31  N   ALA A  1      -36.754  81.529  28.005  0.00  0.00    -0.244 NA
ATOM     32  C   UNK A  0      -35.773  80.708  27.864  0.00  0.00    +0.236 C 
BRANCH  31  34
ATOM     33  CB  ALA A  1      -37.553  83.509  29.177  0.00  0.00    +0.035 C 
ATOM     34  CA  ALA A  1      -36.508  82.969  28.203  0.00  0.00    +0.131 C 
BRANCH  34  35
ATOM     35  C   ALA A  1      -36.616  83.722  26.869  0.00  0.00    +0.182 C 
BRANCH  35  36
ATOM     36  O   ALA A  1      -35.495  83.415  26.044  0.00  0.00    -0.393 OA
ATOM     37  H   ALA A  1      -34.845  82.976  26.625  0.00  0.00    +0.209 HD
ENDBRANCH  35  36
ENDBRANCH  34  35
ENDBRANCH  31  34
BRANCH  32  38
ATOM     38  O   UNK A  0      -34.470  81.059  27.844  0.00  0.00    -0.491 OA
ATOM     39  H   UNK A  0      -33.918  80.360  28.225  0.00  0.00    +0.294 HD
ENDBRANCH  32  38
ENDBRANCH   1  32
TORSDOF 9
ENDMDL
MODEL 2
REMARK VINA RESULT:      -6.4     19.595     22.122
REMARK  Name = pdb/CHEMBL3974598.pdb
REMARK                            x       y       z     vdW  Elec       q    Type
REMARK                         _______ _______ _______ _____ _____    ______ ____
ROOT
ATOM      1  C   UNK A  0      -24.611  79.034  14.430  0.00  0.00    +0.149 A 
ATOM      2  N   UNK A  0      -23.536  78.743  15.182  0.00  0.00    -0.160 NA
ATOM      3  N   UNK A  0      -22.543  79.549  14.731  0.00  0.00    -0.218 N 
ATOM      4  C   UNK A  0      -23.027  80.517  13.849  0.00  0.00    +0.129 A 
ATOM      5  C   UNK A  0      -24.331  80.135  13.583  0.00  0.00    +0.078 A 
ENDROOT
BRANCH   3   6
ATOM      6  C   UNK A  0      -21.208  79.293  15.153  0.00  0.00    +0.067 A 
ATOM      7  C   UNK A  0      -20.646  79.969  16.244  0.00  0.00    +0.028 A 
ATOM      8  C   UNK A  0      -19.290  79.780  16.551  0.00  0.00    +0.002 A 
ATOM      9  C   UNK A  0      -18.507  78.900  15.802  0.00  0.00    +0.000 A 
ATOM     10  C   UNK A  0      -19.068  78.213  14.729  0.00  0.00    +0.002 A 
ATOM     11  C   UNK A  0      -20.407  78.425  14.390  0.00  0.00    +0.028 A 
ENDBRANCH   3   6
BRANCH   4  12
ATOM     12  N   UNK A  0      -22.397  81.691  13.395  0.00  0.00    -0.266 N 
ATOM     13  H   UNK A  0      -22.014  81.676  12.447  0.00  0.00    +0.157 HD
ATOM     14  C   UNK A  0      -22.205  82.852  14.216  0.00  0.00    +0.251 C 
ATOM     15  O   UNK A  0      -22.730  82.901  15.329  0.00  0.00    -0.270 OA
BRANCH  14  16
ATOM     16  C   UNK A  0      -21.360  84.003  13.779  0.00  0.00    +0.056 A 
ATOM     17  C   UNK A  0      -19.979  83.984  13.801  0.00  0.00    +0.054 A 
ATOM     18 CL   UNK A  0      -19.052  82.582  14.181  0.00  0.00    -0.083 Cl
ATOM     19  C   UNK A  0      -19.284  85.139  13.434  0.00  0.00    +0.041 A 
ATOM     20  C   UNK A  0      -19.959  86.287  12.980  0.00  0.00    +0.052 A 
ATOM     21 CL   UNK A  0      -18.936  87.642  12.632  0.00  0.00    -0.083 Cl
ATOM     22  C   UNK A  0      -21.360  86.285  12.806  0.00  0.00    +0.022 A 
ATOM     23  C   UNK A  0      -22.035  85.126  13.261  0.00  0.00    +0.026 A 
BRANCH  22  24
ATOM     24  C   UNK A  0      -22.117  87.382  12.136  0.00  0.00    +0.107 A 
ATOM     25  C   UNK A  0      -22.803  88.380  12.840  0.00  0.00    +0.149 A 
ATOM     26  F   UNK A  0      -22.760  88.450  14.179  0.00  0.00    -0.203 F 
ATOM     27  C   UNK A  0      -23.577  89.317  12.158  0.00  0.00    +0.042 A 
ATOM     28  C   UNK A  0      -23.658  89.247  10.774  0.00  0.00    +0.023 A 
ATOM     29  C   UNK A  0      -22.938  88.254  10.136  0.00  0.00    +0.111 A 
ATOM     30  N   UNK A  0      -22.162  87.349  10.782  0.00  0.00    -0.252 NA
ENDBRANCH  22  24
ENDBRANCH  14  16
ENDBRANCH   4  12
BRANCH   1  32
ATOM     31  N   ALA A  1      -26.312  77.553  13.629  0.00  0.00    -0.244 NA
ATOM     32  C   UNK A  0      -25.897  78.333  14.566  0.00  0.00    +0.236 C 
BRANCH  31  34
ATOM     33  CB  ALA A  1      -27.277  75.333  13.900  0.00  0.00    +0.035 C 
ATOM     34  CA  ALA A  1      -27.585  76.823  13.767  0.00  0.00    +0.131 C 
BRANCH  34  35
ATOM     35  C   ALA A  1      -28.472  77.051  12.533  0.00  0.00    +0.182 C 
BRANCH  35  36
ATOM     36  O   ALA A  1      -29.358  78.143  12.767  0.00  0.00    -0.393 OA
ATOM     37  H   ALA A  1      -29.522  78.549  11.894  0.00  0.00    +0.209 HD
ENDBRANCH  35  36
ENDBRANCH  34  35
ENDBRANCH  31  34
BRANCH  32  38
ATOM     38  O   UNK A  0      -26.567  78.589  15.710  0.00  0.00    -0.491 OA
ATOM     39  H   UNK A  0      -27.248  79.263  15.567  0.00  0.00    +0.294 HD
ENDBRANCH  32  38
ENDBRANCH   1  32
TORSDOF 9
ENDMDL
MODEL 3
REMARK VINA RESULT:      -6.4     17.941     18.999
REMARK  Name = pdb/CHEMBL3974598.pdb
REMARK                            x       y       z     vdW  Elec       q    Type
REMARK                         _______ _______ _______ _____ _____    ______ ____
ROOT
ATOM      1  C   UNK A  0      -22.866  82.718  15.211  0.00  0.00    +0.149 A 
ATOM      2  N   UNK A  0      -24.067  82.250  14.831  0.00  0.00    -0.160 NA
ATOM      3  N   UNK A  0      -23.931  80.902  14.765  0.00  0.00    -0.218 N 
ATOM      4  C   UNK A  0      -22.721  80.479  15.319  0.00  0.00    +0.129 A 
ATOM      5  C   UNK A  0      -21.998  81.643  15.521  0.00  0.00    +0.078 A 
ENDROOT
BRANCH   3   6
ATOM      6  C   UNK A  0      -24.957  80.139  14.139  0.00  0.00    +0.067 A 
ATOM      7  C   UNK A  0      -25.619  79.109  14.819  0.00  0.00    +0.028 A 
ATOM      8  C   UNK A  0      -26.535  78.301  14.130  0.00  0.00    +0.002 A 
ATOM      9  C   UNK A  0      -26.818  78.537  12.782  0.00  0.00    +0.000 A 
ATOM     10  C   UNK A  0      -26.176  79.572  12.110  0.00  0.00    +0.002 A 
ATOM     11  C   UNK A  0      -25.232  80.357  12.777  0.00  0.00    +0.028 A 
ENDBRANCH   3   6
BRANCH   4  12
ATOM     12  N   UNK A  0      -22.330  79.182  15.700  0.00  0.00    -0.266 N 
ATOM     13  H   UNK A  0      -22.336  78.971  16.701  0.00  0.00    +0.157 HD
ATOM     14  C   UNK A  0      -21.859  78.195  14.771  0.00  0.00    +0.251 C 
ATOM     15  O   UNK A  0      -21.922  78.420  13.563  0.00  0.00    -0.270 OA
BRANCH  14  16
ATOM     16  C   UNK A  0      -21.262  76.902  15.222  0.00  0.00    +0.056 A 
ATOM     17  C   UNK A  0      -19.926  76.752  15.542  0.00  0.00    +0.054 A 
ATOM     18 CL   UNK A  0      -18.812  78.065  15.617  0.00  0.00    -0.083 Cl
ATOM     19  C   UNK A  0      -19.456  75.483  15.887  0.00  0.00    +0.041 A 
ATOM     20  C   UNK A  0      -20.324  74.381  15.982  0.00  0.00    +0.052 A 
ATOM     21 CL   UNK A  0      -19.551  72.875  16.359  0.00  0.00    -0.083 Cl
ATOM     22  C   UNK A  0      -21.716  74.535  15.806  0.00  0.00    +0.022 A 
ATOM     23  C   UNK A  0      -22.145  75.816  15.382  0.00  0.00    +0.026 A 
BRANCH  22  24
ATOM     24  C   UNK A  0      -22.715  73.465  16.095  0.00  0.00    +0.107 A 
ATOM     25  C   UNK A  0      -23.006  73.019  17.392  0.00  0.00    +0.149 A 
ATOM     26  F   UNK A  0      -22.448  73.588  18.470  0.00  0.00    -0.203 F 
ATOM     27  C   UNK A  0      -23.872  71.946  17.588  0.00  0.00    +0.042 A 
ATOM     28  C   UNK A  0      -24.440  71.325  16.485  0.00  0.00    +0.023 A 
ATOM     29  C   UNK A  0      -24.132  71.827  15.233  0.00  0.00    +0.111 A 
ATOM     30  N   UNK A  0      -23.310  72.884  15.024  0.00  0.00    -0.252 NA
ENDBRANCH  22  24
ENDBRANCH  14  16
ENDBRANCH   4  12
BRANCH   1  32
ATOM     31  N   ALA A  1      -22.231  84.847  14.319  0.00  0.00    -0.244 NA
ATOM     32  C   UNK A  0      -22.574  84.154  15.349  0.00  0.00    +0.236 C 
BRANCH  31  34
ATOM     33  CB  ALA A  1      -22.788  87.025  13.386  0.00  0.00    +0.035 C 
ATOM     34  CA  ALA A  1      -21.963  86.291  14.440  0.00  0.00    +0.131 C 
BRANCH  34  35
ATOM     35  C   ALA A  1      -20.472  86.583  14.214  0.00  0.00    +0.182 C 
BRANCH  35  36
ATOM     36  O   ALA A  1      -19.984  87.443  15.241  0.00  0.00    -0.393 OA
ATOM     37  H   ALA A  1      -19.403  88.091  14.797  0.00  0.00    +0.209 HD
ENDBRANCH  35  36
ENDBRANCH  34  35
ENDBRANCH  31  34
BRANCH  32  38
ATOM     38  O   UNK A  0      -22.686  84.640  16.604  0.00  0.00    -0.491 OA
ATOM     39  H   UNK A  0      -21.820  84.681  17.036  0.00  0.00    +0.294 HD
ENDBRANCH  32  38
ENDBRANCH   1  32
TORSDOF 9
ENDMDL
MODEL 4
REMARK VINA RESULT:      -6.3      2.837      4.773
REMARK  Name = pdb/CHEMBL3974598.pdb
REMARK                            x       y       z     vdW  Elec       q    Type
REMARK                         _______ _______ _______ _____ _____    ______ ____
ROOT
ATOM      1  C   UNK A  0      -36.833  77.100  26.935  0.00  0.00    +0.149 A 
ATOM      2  N   UNK A  0      -38.139  77.413  26.881  0.00  0.00    -0.160 NA
ATOM      3  N   UNK A  0      -38.670  76.609  25.928  0.00  0.00    -0.218 N 
ATOM      4  C   UNK A  0      -37.769  75.621  25.526  0.00  0.00    +0.129 A 
ATOM      5  C   UNK A  0      -36.564  75.987  26.100  0.00  0.00    +0.078 A 
ENDROOT
BRANCH   3   6
ATOM      6  C   UNK A  0      -39.985  76.883  25.453  0.00  0.00    +0.067 A 
ATOM      7  C   UNK A  0      -41.101  76.774  26.293  0.00  0.00    +0.028 A 
ATOM      8  C   UNK A  0      -42.388  76.932  25.757  0.00  0.00    +0.002 A 
ATOM      9  C   UNK A  0      -42.563  77.232  24.404  0.00  0.00    +0.000 A 
ATOM     10  C   UNK A  0      -41.455  77.359  23.572  0.00  0.00    +0.002 A 
ATOM     11  C   UNK A  0      -40.171  77.164  24.088  0.00  0.00    +0.028 A 
ENDBRANCH   3   6
BRANCH   4  12
ATOM     12  N   UNK A  0      -38.017  74.445  24.793  0.00  0.00    -0.266 N 
ATOM     13  H   UNK A  0      -37.728  74.440  23.812  0.00  0.00    +0.157 HD
ATOM     14  C   UNK A  0      -38.712  73.311  25.332  0.00  0.00    +0.251 C 
ATOM     15  O   UNK A  0      -38.993  73.285  26.530  0.00  0.00    -0.270 OA
BRANCH  14  16
ATOM     16  C   UNK A  0      -39.137  72.162  24.479  0.00  0.00    +0.056 A 
ATOM     17  C   UNK A  0      -40.318  72.144  23.760  0.00  0.00    +0.054 A 
ATOM     18 CL   UNK A  0      -41.371  73.501  23.627  0.00  0.00    -0.083 Cl
ATOM     19  C   UNK A  0      -40.654  70.992  23.046  0.00  0.00    +0.041 A 
ATOM     20  C   UNK A  0      -39.787  69.886  22.990  0.00  0.00    +0.052 A 
ATOM     21 CL   UNK A  0      -40.400  68.523  22.111  0.00  0.00    -0.083 Cl
ATOM     22  C   UNK A  0      -38.510  69.932  23.591  0.00  0.00    +0.022 A 
ATOM     23  C   UNK A  0      -38.237  71.084  24.369  0.00  0.00    +0.026 A 
BRANCH  22  24
ATOM     24  C   UNK A  0      -37.461  68.889  23.398  0.00  0.00    +0.107 A 
ATOM     25  C   UNK A  0      -36.877  68.611  22.155  0.00  0.00    +0.149 A 
ATOM     26  F   UNK A  0      -37.181  69.327  21.062  0.00  0.00    -0.203 F 
ATOM     27  C   UNK A  0      -35.978  67.555  22.020  0.00  0.00    +0.042 A 
ATOM     28  C   UNK A  0      -35.670  66.784  23.132  0.00  0.00    +0.023 A 
ATOM     29  C   UNK A  0      -36.260  67.124  24.335  0.00  0.00    +0.111 A 
ATOM     30  N   UNK A  0      -37.119  68.162  24.490  0.00  0.00    -0.252 NA
ENDBRANCH  22  24
ENDBRANCH  14  16
ENDBRANCH   4  12
BRANCH   1  32
ATOM     31  N   ALA A  1      -34.771  78.244  27.342  0.00  0.00    -0.244 NA
ATOM     32  C   UNK A  0      -35.879  77.792  27.815  0.00  0.00    +0.236 C 
BRANCH  31  34
ATOM     33  CB  ALA A  1      -34.229  80.434  28.257  0.00  0.00    +0.035 C 
ATOM     34  CA  ALA A  1      -33.820  78.964  28.208  0.00  0.00    +0.131 C 
BRANCH  34  35
ATOM     35  C   ALA A  1      -32.393  78.850  27.652  0.00  0.00    +0.182 C 
BRANCH  35  36
ATOM     36  O   ALA A  1      -32.395  79.108  26.249  0.00  0.00    -0.393 OA
ATOM     37  H   ALA A  1      -31.490  78.915  25.939  0.00  0.00    +0.209 HD
ENDBRANCH  35  36
ENDBRANCH  34  35
ENDBRANCH  31  34
BRANCH  32  38
ATOM     38  O   UNK A  0      -36.262  77.886  29.107  0.00  0.00    -0.491 OA
ATOM     39  H   UNK A  0      -37.205  77.690  29.202  0.00  0.00    +0.294 HD
ENDBRANCH  32  38
ENDBRANCH   1  32
TORSDOF 9
ENDMDL
MODEL 5
REMARK VINA RESULT:      -6.3      4.851     10.819
REMARK  Name = pdb/CHEMBL3974598.pdb
REMARK                            x       y       z     vdW  Elec       q    Type
REMARK                         _______ _______ _______ _____ _____    ______ ____
ROOT
ATOM      1  C   UNK A  0      -35.225  68.834  24.955  0.00  0.00    +0.149 A 
ATOM      2  N   UNK A  0      -36.310  69.601  24.751  0.00  0.00    -0.160 NA
ATOM      3  N   UNK A  0      -36.113  70.719  25.494  0.00  0.00    -0.218 N 
ATOM      4  C   UNK A  0      -34.811  70.783  25.994  0.00  0.00    +0.129 A 
ATOM      5  C   UNK A  0      -34.269  69.537  25.729  0.00  0.00    +0.078 A 
ENDROOT
BRANCH   3   6
ATOM      6  C   UNK A  0      -37.206  71.610  25.693  0.00  0.00    +0.067 A 
ATOM      7  C   UNK A  0      -37.811  71.753  26.948  0.00  0.00    +0.028 A 
ATOM      8  C   UNK A  0      -38.961  72.546  27.076  0.00  0.00    +0.002 A 
ATOM      9  C   UNK A  0      -39.485  73.222  25.972  0.00  0.00    +0.000 A 
ATOM     10  C   UNK A  0      -38.873  73.098  24.728  0.00  0.00    +0.002 A 
ATOM     11  C   UNK A  0      -37.752  72.277  24.582  0.00  0.00    +0.028 A 
ENDBRANCH   3   6
BRANCH   4  12
ATOM     12  N   UNK A  0      -34.132  71.882  26.552  0.00  0.00    -0.266 N 
ATOM     13  H   UNK A  0      -33.554  72.440  25.919  0.00  0.00    +0.157 HD
ATOM     14  C   UNK A  0      -34.154  72.195  27.952  0.00  0.00    +0.251 C 
ATOM     15  O   UNK A  0      -34.907  71.573  28.701  0.00  0.00    -0.270 OA
BRANCH  14  16
ATOM     16  C   UNK A  0      -33.268  73.241  28.545  0.00  0.00    +0.056 A 
ATOM     17  C   UNK A  0      -32.141  72.949  29.291  0.00  0.00    +0.054 A 
ATOM     18 CL   UNK A  0      -31.525  71.353  29.498  0.00  0.00    -0.083 Cl
ATOM     19  C   UNK A  0      -31.419  74.001  29.858  0.00  0.00    +0.041 A 
ATOM     20  C   UNK A  0      -31.775  75.342  29.628  0.00  0.00    +0.052 A 
ATOM     21 CL   UNK A  0      -30.803  76.508  30.465  0.00  0.00    -0.083 Cl
ATOM     22  C   UNK A  0      -32.830  75.673  28.751  0.00  0.00    +0.022 A 
ATOM     23  C   UNK A  0      -33.586  74.582  28.257  0.00  0.00    +0.026 A 
BRANCH  22  24
ATOM     24  C   UNK A  0      -33.129  77.062  28.295  0.00  0.00    +0.107 A 
ATOM     25  C   UNK A  0      -32.457  77.682  27.233  0.00  0.00    +0.149 A 
ATOM     26  F   UNK A  0      -31.541  77.025  26.505  0.00  0.00    -0.203 F 
ATOM     27  C   UNK A  0      -32.710  79.016  26.923  0.00  0.00    +0.042 A 
ATOM     28  C   UNK A  0      -33.633  79.723  27.681  0.00  0.00    +0.023 A 
ATOM     29  C   UNK A  0      -34.281  79.049  28.700  0.00  0.00    +0.111 A 
ATOM     30  N   UNK A  0      -34.065  77.744  29.001  0.00  0.00    -0.252 NA
ENDBRANCH  22  24
ENDBRANCH  14  16
ENDBRANCH   4  12
BRANCH   1  32
ATOM     31  N   ALA A  1      -35.556  67.240  23.201  0.00  0.00    -0.244 NA
ATOM     32  C   UNK A  0      -35.069  67.495  24.365  0.00  0.00    +0.236 C 
BRANCH  31  34
ATOM     33  CB  ALA A  1      -34.275  66.004  21.540  0.00  0.00    +0.035 C 
ATOM     34  CA  ALA A  1      -35.381  65.911  22.587  0.00  0.00    +0.131 C 
BRANCH  34  35
ATOM     35  C   ALA A  1      -36.684  65.454  21.914  0.00  0.00    +0.182 C 
BRANCH  35  36
ATOM     36  O   ALA A  1      -37.553  66.569  21.729  0.00  0.00    -0.393 OA
ATOM     37  H   ALA A  1      -38.399  66.201  21.408  0.00  0.00    +0.209 HD
ENDBRANCH  35  36
ENDBRANCH  34  35
ENDBRANCH  31  34
BRANCH  32  38
ATOM     38  O   UNK A  0      -34.408  66.607  25.137  0.00  0.00    -0.491 OA
ATOM     39  H   UNK A  0      -34.772  66.591  26.034  0.00  0.00    +0.294 HD
ENDBRANCH  32  38
ENDBRANCH   1  32
TORSDOF 9
ENDMDL
MODEL 6
REMARK VINA RESULT:      -6.3      4.683      8.938
REMARK  Name = pdb/CHEMBL3974598.pdb
REMARK                            x       y       z     vdW  Elec       q    Type
REMARK                         _______ _______ _______ _____ _____    ______ ____
ROOT
ATOM      1  C   UNK A  0      -37.123  76.239  25.993  0.00  0.00    +0.149 A 
ATOM      2  N   UNK A  0      -37.632  75.174  25.351  0.00  0.00    -0.160 NA
ATOM      3  N   UNK A  0      -38.789  75.604  24.788  0.00  0.00    -0.218 N 
ATOM      4  C   UNK A  0      -38.916  76.993  24.870  0.00  0.00    +0.129 A 
ATOM      5  C   UNK A  0      -37.898  77.392  25.719  0.00  0.00    +0.078 A 
ENDROOT
BRANCH   3   6
ATOM      6  C   UNK A  0      -39.693  74.641  24.257  0.00  0.00    +0.067 A 
ATOM      7  C   UNK A  0      -40.960  75.011  23.787  0.00  0.00    +0.028 A 
ATOM      8  C   UNK A  0      -41.867  74.018  23.387  0.00  0.00    +0.002 A 
ATOM      9  C   UNK A  0      -41.505  72.670  23.421  0.00  0.00    +0.000 A 
ATOM     10  C   UNK A  0      -40.240  72.301  23.870  0.00  0.00    +0.002 A 
ATOM     11  C   UNK A  0      -39.345  73.280  24.309  0.00  0.00    +0.028 A 
ENDBRANCH   3   6
BRANCH   4  12
ATOM     12  N   UNK A  0      -39.799  77.841  24.175  0.00  0.00    -0.266 N 
ATOM     13  H   UNK A  0      -39.640  77.954  23.171  0.00  0.00    +0.157 HD
ATOM     14  C   UNK A  0      -40.835  78.597  24.817  0.00  0.00    +0.251 C 
ATOM     15  O   UNK A  0      -41.076  78.405  26.009  0.00  0.00    -0.270 OA
BRANCH  14  16
ATOM     16  C   UNK A  0      -41.624  79.638  24.093  0.00  0.00    +0.056 A 
ATOM     17  C   UNK A  0      -42.949  79.477  23.735  0.00  0.00    +0.054 A 
ATOM     18 CL   UNK A  0      -43.907  78.128  24.216  0.00  0.00    -0.083 Cl
ATOM     19  C   UNK A  0      -43.575  80.486  22.999  0.00  0.00    +0.041 A 
ATOM     20  C   UNK A  0      -42.906  81.681  22.679  0.00  0.00    +0.052 A 
ATOM     21 CL   UNK A  0      -43.820  82.788  21.706  0.00  0.00    -0.083 Cl
ATOM     22  C   UNK A  0      -41.603  81.935  23.158  0.00  0.00    +0.022 A 
ATOM     23  C   UNK A  0      -40.974  80.861  23.833  0.00  0.00    +0.026 A 
BRANCH  22  24
ATOM     24  C   UNK A  0      -40.916  83.254  23.039  0.00  0.00    +0.107 A 
ATOM     25  C   UNK A  0      -40.189  83.641  21.905  0.00  0.00    +0.149 A 
ATOM     26  F   UNK A  0      -40.129  82.864  20.813  0.00  0.00    -0.203 F 
ATOM     27  C   UNK A  0      -39.484  84.842  21.897  0.00  0.00    +0.042 A 
ATOM     28  C   UNK A  0      -39.510  85.649  23.026  0.00  0.00    +0.023 A 
ATOM     29  C   UNK A  0      -40.265  85.224  24.104  0.00  0.00    +0.111 A 
ATOM     30  N   UNK A  0      -40.976  84.069  24.121  0.00  0.00    -0.252 NA
ENDBRANCH  22  24
ENDBRANCH  14  16
ENDBRANCH   4  12
BRANCH   1  32
ATOM     31  N   ALA A  1      -35.156  77.229  26.931  0.00  0.00    -0.244 NA
ATOM     32  C   UNK A  0      -35.885  76.178  26.787  0.00  0.00    +0.236 C 
BRANCH  31  34
ATOM     33  CB  ALA A  1      -33.898  78.427  28.637  0.00  0.00    +0.035 C 
ATOM     34  CA  ALA A  1      -33.929  77.187  27.747  0.00  0.00    +0.131 C 
BRANCH  34  35
ATOM     35  C   ALA A  1      -32.684  77.175  26.847  0.00  0.00    +0.182 C 
BRANCH  35  36
ATOM     36  O   ALA A  1      -32.707  78.299  25.969  0.00  0.00    -0.393 OA
ATOM     37  H   ALA A  1      -32.094  78.954  26.354  0.00  0.00    +0.209 HD
ENDBRANCH  35  36
ENDBRANCH  34  35
ENDBRANCH  31  34
BRANCH  32  38
ATOM     38  O   UNK A  0      -35.603  74.966  27.310  0.00  0.00    -0.491 OA
ATOM     39  H   UNK A  0      -36.256  74.308  27.028  0.00  0.00    +0.294 HD
ENDBRANCH  32  38
ENDBRANCH   1  32
TORSDOF 9
ENDMDL
MODEL 7
REMARK VINA RESULT:      -6.2      6.873     11.702
REMARK  Name = pdb/CHEMBL3974598.pdb
REMARK                            x       y       z     vdW  Elec       q    Type
REMARK                         _______ _______ _______ _____ _____    ______ ____
ROOT
ATOM      1  C   UNK A  0      -33.834  73.424  28.607  0.00  0.00    +0.149 A 
ATOM      2  N   UNK A  0      -33.816  74.558  27.885  0.00  0.00    -0.160 NA
ATOM      3  N   UNK A  0      -32.991  75.403  28.551  0.00  0.00    -0.218 N 
ATOM      4  C   UNK A  0      -32.298  74.749  29.572  0.00  0.00    +0.129 A 
ATOM      5  C   UNK A  0      -32.902  73.507  29.670  0.00  0.00    +0.078 A 
ENDROOT
BRANCH   3   6
ATOM      6  C   UNK A  0      -32.969  76.777  28.177  0.00  0.00    +0.067 A 
ATOM      7  C   UNK A  0      -33.702  77.738  28.885  0.00  0.00    +0.028 A 
ATOM      8  C   UNK A  0      -33.753  79.057  28.412  0.00  0.00    +0.002 A 
ATOM      9  C   UNK A  0      -33.051  79.428  27.262  0.00  0.00    +0.000 A 
ATOM     10  C   UNK A  0      -32.306  78.479  26.568  0.00  0.00    +0.002 A 
ATOM     11  C   UNK A  0      -32.283  77.153  27.009  0.00  0.00    +0.028 A 
ENDBRANCH   3   6
BRANCH   4  12
ATOM     12  N   UNK A  0      -31.167  75.181  30.290  0.00  0.00    -0.266 N 
ATOM     13  H   UNK A  0      -30.255  74.859  29.957  0.00  0.00    +0.157 HD
ATOM     14  C   UNK A  0      -31.245  75.969  31.486  0.00  0.00    +0.251 C 
ATOM     15  O   UNK A  0      -32.333  76.420  31.845  0.00  0.00    -0.270 OA
BRANCH  14  16
ATOM     16  C   UNK A  0      -30.048  76.243  32.336  0.00  0.00    +0.056 A 
ATOM     17  C   UNK A  0      -30.085  76.264  33.717  0.00  0.00    +0.054 A 
ATOM     18 CL   UNK A  0      -31.472  75.823  34.639  0.00  0.00    -0.083 Cl
ATOM     19  C   UNK A  0      -28.923  76.597  34.416  0.00  0.00    +0.041 A 
ATOM     20  C   UNK A  0      -27.710  76.841  33.747  0.00  0.00    +0.052 A 
ATOM     21 CL   UNK A  0      -26.392  77.303  34.774  0.00  0.00    -0.083 Cl
ATOM     22  C   UNK A  0      -27.607  76.680  32.348  0.00  0.00    +0.022 A 
ATOM     23  C   UNK A  0      -28.820  76.419  31.667  0.00  0.00    +0.026 A 
BRANCH  22  24
ATOM     24  C   UNK A  0      -26.316  76.714  31.600  0.00  0.00    +0.107 A 
ATOM     25  C   UNK A  0      -25.420  75.638  31.569  0.00  0.00    +0.149 A 
ATOM     26  F   UNK A  0      -25.707  74.469  32.162  0.00  0.00    -0.203 F 
ATOM     27  C   UNK A  0      -24.185  75.769  30.938  0.00  0.00    +0.042 A 
ATOM     28  C   UNK A  0      -23.855  76.978  30.342  0.00  0.00    +0.023 A 
ATOM     29  C   UNK A  0      -24.793  77.994  30.385  0.00  0.00    +0.111 A 
ATOM     30  N   UNK A  0      -26.008  77.877  30.974  0.00  0.00    -0.252 NA
ENDBRANCH  22  24
ENDBRANCH  14  16
ENDBRANCH   4  12
BRANCH   1  32
ATOM     31  N   ALA A  1      -34.142  71.262  27.628  0.00  0.00    -0.244 NA
ATOM     32  C   UNK A  0      -34.662  72.261  28.250  0.00  0.00    +0.236 C 
BRANCH  31  34
ATOM     33  CB  ALA A  1      -34.186  68.829  27.709  0.00  0.00    +0.035 C 
ATOM     34  CA  ALA A  1      -34.955  70.080  27.290  0.00  0.00    +0.131 C 
BRANCH  34  35
ATOM     35  C   ALA A  1      -35.228  70.028  25.779  0.00  0.00    +0.182 C 
BRANCH  35  36
ATOM     36  O   ALA A  1      -34.008  69.825  25.070  0.00  0.00    -0.393 OA
ATOM     37  H   ALA A  1      -33.292  69.987  25.714  0.00  0.00    +0.209 HD
ENDBRANCH  35  36
ENDBRANCH  34  35
ENDBRANCH  31  34
BRANCH  32  38
ATOM     38  O   UNK A  0      -35.960  72.353  28.613  0.00  0.00    -0.491 OA
ATOM     39  H   UNK A  0      -36.379  71.481  28.620  0.00  0.00    +0.294 HD
ENDBRANCH  32  38
ENDBRANCH   1  32
TORSDOF 9
ENDMDL
MODEL 8
REMARK VINA RESULT:      -6.1      4.989     10.662
REMARK  Name = pdb/CHEMBL3974598.pdb
REMARK                            x       y       z     vdW  Elec       q    Type
REMARK                         _______ _______ _______ _____ _____    ______ ____
ROOT
ATOM      1  C   UNK A  0      -37.214  68.462  23.041  0.00  0.00    +0.149 A 
ATOM      2  N   UNK A  0      -37.721  69.698  22.894  0.00  0.00    -0.160 NA
ATOM      3  N   UNK A  0      -37.590  70.296  24.104  0.00  0.00    -0.218 N 
ATOM      4  C   UNK A  0      -36.796  69.540  24.968  0.00  0.00    +0.129 A 
ATOM      5  C   UNK A  0      -36.629  68.325  24.325  0.00  0.00    +0.078 A 
ENDROOT
BRANCH   3   6
ATOM      6  C   UNK A  0      -38.272  71.523  24.340  0.00  0.00    +0.067 A 
ATOM      7  C   UNK A  0      -39.619  71.687  23.993  0.00  0.00    +0.028 A 
ATOM      8  C   UNK A  0      -40.220  72.948  24.129  0.00  0.00    +0.002 A 
ATOM      9  C   UNK A  0      -39.498  74.029  24.638  0.00  0.00    +0.000 A 
ATOM     10  C   UNK A  0      -38.164  73.863  25.002  0.00  0.00    +0.002 A 
ATOM     11  C   UNK A  0      -37.546  72.621  24.832  0.00  0.00    +0.028 A 
ENDBRANCH   3   6
BRANCH   4  12
ATOM     12  N   UNK A  0      -36.192  69.927  26.179  0.00  0.00    -0.266 N 
ATOM     13  H   UNK A  0      -36.774  69.897  27.019  0.00  0.00    +0.157 HD
ATOM     14  C   UNK A  0      -34.849  70.426  26.266  0.00  0.00    +0.251 C 
ATOM     15  O   UNK A  0      -34.123  70.392  25.273  0.00  0.00    -0.270 OA
BRANCH  14  16
ATOM     16  C   UNK A  0      -34.303  71.017  27.524  0.00  0.00    +0.056 A 
ATOM     17  C   UNK A  0      -33.661  70.274  28.497  0.00  0.00    +0.054 A 
ATOM     18 CL   UNK A  0      -33.267  68.607  28.316  0.00  0.00    -0.083 Cl
ATOM     19  C   UNK A  0      -33.247  70.914  29.668  0.00  0.00    +0.041 A 
ATOM     20  C   UNK A  0      -33.408  72.300  29.842  0.00  0.00    +0.052 A 
ATOM     21 CL   UNK A  0      -32.894  72.905  31.383  0.00  0.00    -0.083 Cl
ATOM     22  C   UNK A  0      -33.925  73.107  28.805  0.00  0.00    +0.022 A 
ATOM     23  C   UNK A  0      -34.404  72.415  27.666  0.00  0.00    +0.026 A 
BRANCH  22  24
ATOM     24  C   UNK A  0      -33.929  74.599  28.835  0.00  0.00    +0.107 A 
ATOM     25  C   UNK A  0      -32.767  75.366  28.995  0.00  0.00    +0.149 A 
ATOM     26  F   UNK A  0      -31.555  74.796  29.058  0.00  0.00    -0.203 F 
ATOM     27  C   UNK A  0      -32.850  76.751  29.119  0.00  0.00    +0.042 A 
ATOM     28  C   UNK A  0      -34.097  77.359  29.084  0.00  0.00    +0.023 A 
ATOM     29  C   UNK A  0      -35.203  76.550  28.900  0.00  0.00    +0.111 A 
ATOM     30  N   UNK A  0      -35.140  75.204  28.754  0.00  0.00    -0.252 NA
ENDBRANCH  22  24
ENDBRANCH  14  16
ENDBRANCH   4  12
BRANCH   1  32
ATOM     31  N   ALA A  1      -36.444  67.607  20.943  0.00  0.00    -0.244 NA
ATOM     32  C   UNK A  0      -37.216  67.462  21.963  0.00  0.00    +0.236 C 
BRANCH  31  34
ATOM     33  CB  ALA A  1      -35.088  65.848  19.945  0.00  0.00    +0.035 C 
ATOM     34  CA  ALA A  1      -36.416  66.597  19.870  0.00  0.00    +0.131 C 
BRANCH  34  35
ATOM     35  C   ALA A  1      -36.546  67.268  18.495  0.00  0.00    +0.182 C 
BRANCH  35  36
ATOM     36  O   ALA A  1      -37.606  68.222  18.517  0.00  0.00    -0.393 OA
ATOM     37  H   ALA A  1      -38.107  68.049  19.337  0.00  0.00    +0.209 HD
ENDBRANCH  35  36
ENDBRANCH  34  35
ENDBRANCH  31  34
BRANCH  32  38
ATOM     38  O   UNK A  0      -38.076  66.436  22.140  0.00  0.00    -0.491 OA
ATOM     39  H   UNK A  0      -37.602  65.624  22.369  0.00  0.00    +0.294 HD
ENDBRANCH  32  38
ENDBRANCH   1  32
TORSDOF 9
ENDMDL
MODEL 9
REMARK VINA RESULT:      -6.1      3.883      7.347
REMARK  Name = pdb/CHEMBL3974598.pdb
REMARK                            x       y       z     vdW  Elec       q    Type
REMARK                         _______ _______ _______ _____ _____    ______ ____
ROOT
ATOM      1  C   UNK A  0      -32.594  76.131  29.077  0.00  0.00    +0.149 A 
ATOM      2  N   UNK A  0      -33.153  77.267  29.528  0.00  0.00    -0.160 NA
ATOM      3  N   UNK A  0      -34.074  77.617  28.597  0.00  0.00    -0.218 N 
ATOM      4  C   UNK A  0      -34.277  76.599  27.663  0.00  0.00    +0.129 A 
ATOM      5  C   UNK A  0      -33.267  75.685  27.913  0.00  0.00    +0.078 A 
ENDROOT
BRANCH   3   6
ATOM      6  C   UNK A  0      -34.652  78.917  28.660  0.00  0.00    +0.067 A 
ATOM      7  C   UNK A  0      -35.625  79.238  29.615  0.00  0.00    +0.028 A 
ATOM      8  C   UNK A  0      -36.258  80.489  29.566  0.00  0.00    +0.002 A 
ATOM      9  C   UNK A  0      -35.902  81.428  28.595  0.00  0.00    +0.000 A 
ATOM     10  C   UNK A  0      -34.922  81.119  27.657  0.00  0.00    +0.002 A 
ATOM     11  C   UNK A  0      -34.315  79.860  27.673  0.00  0.00    +0.028 A 
ENDBRANCH   3   6
BRANCH   4  12
ATOM     12  N   UNK A  0      -35.323  76.448  26.734  0.00  0.00    -0.266 N 
ATOM     13  H   UNK A  0      -35.118  76.690  25.762  0.00  0.00    +0.157 HD
ATOM     14  C   UNK A  0      -36.653  76.054  27.101  0.00  0.00    +0.251 C 
ATOM     15  O   UNK A  0      -36.882  75.691  28.254  0.00  0.00    -0.270 OA
BRANCH  14  16
ATOM     16  C   UNK A  0      -37.789  76.097  26.132  0.00  0.00    +0.056 A 
ATOM     17  C   UNK A  0      -38.270  74.980  25.475  0.00  0.00    +0.054 A 
ATOM     18 CL   UNK A  0      -37.732  73.377  25.805  0.00  0.00    -0.083 Cl
ATOM     19  C   UNK A  0      -39.292  75.140  24.537  0.00  0.00    +0.041 A 
ATOM     20  C   UNK A  0      -39.882  76.395  24.303  0.00  0.00    +0.052 A 
ATOM     21 CL   UNK A  0      -41.089  76.411  23.059  0.00  0.00    -0.083 Cl
ATOM     22  C   UNK A  0      -39.514  77.524  25.065  0.00  0.00    +0.022 A 
ATOM     23  C   UNK A  0      -38.423  77.341  25.950  0.00  0.00    +0.026 A 
BRANCH  22  24
ATOM     24  C   UNK A  0      -40.236  78.829  25.022  0.00  0.00    +0.107 A 
ATOM     25  C   UNK A  0      -39.961  79.826  24.076  0.00  0.00    +0.149 A 
ATOM     26  F   UNK A  0      -39.068  79.633  23.094  0.00  0.00    -0.203 F 
ATOM     27  C   UNK A  0      -40.598  81.062  24.153  0.00  0.00    +0.042 A 
ATOM     28  C   UNK A  0      -41.506  81.293  25.177  0.00  0.00    +0.023 A 
ATOM     29  C   UNK A  0      -41.752  80.261  26.064  0.00  0.00    +0.111 A 
ATOM     30  N   UNK A  0      -41.159  79.044  25.991  0.00  0.00    -0.252 NA
ENDBRANCH  22  24
ENDBRANCH  14  16
ENDBRANCH   4  12
BRANCH   1  32
ATOM     31  N   ALA A  1      -30.767  76.086  30.622  0.00  0.00    -0.244 NA
ATOM     32  C   UNK A  0      -31.497  75.445  29.777  0.00  0.00    +0.236 C 
BRANCH  31  34
ATOM     33  CB  ALA A  1      -30.270  74.775  32.613  0.00  0.00    +0.035 C 
ATOM     34  CA  ALA A  1      -29.683  75.402  31.351  0.00  0.00    +0.131 C 
BRANCH  34  35
ATOM     35  C   ALA A  1      -28.584  76.402  31.741  0.00  0.00    +0.182 C 
BRANCH  35  36
ATOM     36  O   ALA A  1      -28.971  77.722  31.368  0.00  0.00    -0.393 OA
ATOM     37  H   ALA A  1      -29.084  77.705  30.398  0.00  0.00    +0.209 HD
ENDBRANCH  35  36
ENDBRANCH  34  35
ENDBRANCH  31  34
BRANCH  32  38
ATOM     38  O   UNK A  0      -31.336  74.145  29.449  0.00  0.00    -0.491 OA
ATOM     39  H   UNK A  0      -30.517  73.792  29.826  0.00  0.00    +0.294 HD
ENDBRANCH  32  38
ENDBRANCH   1  32
TORSDOF 9
ENDMDL
