MODEL 1
REMARK VINA RESULT:      -5.9      0.000      0.000
REMARK  Name = pdb/CHEMBL3676040.pdb
REMARK                            x       y       z     vdW  Elec       q    Type
REMARK                         _______ _______ _______ _____ _____    ______ ____
ROOT
ATOM      1  C   LIG    1      -20.598  77.194  30.606  0.00  0.00    +0.100 A 
ATOM      2  C   LIG    1      -20.264  77.871  31.768  0.00  0.00    +0.170 A 
ATOM      3  N   LIG    1      -21.022  78.534  32.707  0.00  0.00    -0.212 NA
ATOM      4  C   LIG    1      -20.406  79.077  33.738  0.00  0.00    +0.126 A 
ATOM      5  C   LIG    1      -18.897  79.064  33.850  0.00  0.00    +0.063 A 
ATOM      6  C   LIG    1      -18.211  78.394  32.919  0.00  0.00    +0.118 A 
ATOM      7  N   LIG    1      -18.878  77.768  31.883  0.00  0.00    -0.221 N 
ATOM      8  N   LIG    1      -18.332  77.020  30.898  0.00  0.00    -0.173 NA
ATOM      9  C   LIG    1      -19.372  76.672  30.141  0.00  0.00    +0.150 A 
ENDROOT
BRANCH   4  10
ATOM     10  N   LIG    1      -21.154  79.675  34.747  0.00  0.00    -0.308 N 
ATOM     11  C   LIG    1      -22.630  79.698  34.756  0.00  0.00    +0.108 C 
ATOM     12  C   LIG    1      -22.961  81.106  35.279  0.00  0.00    +0.029 C 
ATOM     13  C   LIG    1      -21.834  81.384  36.255  0.00  0.00    +0.021 C 
ATOM     14  C   LIG    1      -20.622  80.787  35.547  0.00  0.00    +0.107 C 
BRANCH  11  15
ATOM     15  C   LIG    1      -23.225  78.606  35.628  0.00  0.00    +0.011 A 
ATOM     16  C   LIG    1      -24.606  78.367  35.570  0.00  0.00    +0.129 A 
ATOM     17  F   LIG    1      -25.369  79.070  34.720  0.00  0.00    -0.205 F 
ATOM     18  C   LIG    1      -25.226  77.422  36.384  0.00  0.00    +0.041 A 
ATOM     19  C   LIG    1      -24.459  76.670  37.268  0.00  0.00    +0.041 A 
ATOM     20  C   LIG    1      -23.084  76.865  37.312  0.00  0.00    +0.124 A 
ATOM     21  F   LIG    1      -22.344  76.138  38.158  0.00  0.00    -0.205 F 
ATOM     22  C   LIG    1      -22.463  77.814  36.504  0.00  0.00    +0.046 A 
ENDBRANCH  11  15
ENDBRANCH   4  10
BRANCH   1  25
ATOM     23  N   LIG    1      -22.946  77.563  30.669  0.00  0.00    -0.310 N 
ATOM     24  H   LIG    1      -22.754  78.058  31.539  0.00  0.00    +0.149 HD
ATOM     25  C   LIG    1      -21.890  77.022  29.971  0.00  0.00    +0.249 C 
ATOM     26  O   LIG    1      -22.021  76.445  28.902  0.00  0.00    -0.270 OA
BRANCH  23  27
ATOM     27  C   LIG    1      -24.287  77.568  30.128  0.00  0.00    +0.120 C 
BRANCH  27  28
ATOM     28  C   LIG    1      -25.373  77.529  31.221  0.00  0.00    +0.103 C 
BRANCH  28  33
ATOM     29  C   LIG    1      -27.878  74.558  34.149  0.00  0.00    +0.105 C 
ATOM     30  N   LIG    1      -26.930  75.657  33.985  0.00  0.00    -0.303 NA
ATOM     31  C   LIG    1      -27.551  76.820  33.318  0.00  0.00    +0.099 C 
ATOM     32  C   LIG    1      -27.623  76.751  31.771  0.00  0.00    +0.100 C 
ATOM     33  N   LIG    1      -26.343  76.414  31.105  0.00  0.00    -0.298 NA
ATOM     34  C   LIG    1      -25.849  75.163  31.722  0.00  0.00    +0.100 C 
ATOM     35  C   LIG    1      -25.717  75.219  33.264  0.00  0.00    +0.099 C 
ENDBRANCH  28  33
ENDBRANCH  27  28
ENDBRANCH  23  27
ENDBRANCH   1  25
TORSDOF 6
ENDMDL
MODEL 2
REMARK VINA RESULT:      -5.8      2.082      3.225
REMARK  Name = pdb/CHEMBL3676040.pdb
REMARK                            x       y       z     vdW  Elec       q    Type
REMARK                         _______ _______ _______ _____ _____    ______ ____
ROOT
ATOM      1  C   LIG    1      -22.902  77.117  30.618  0.00  0.00    +0.100 A 
ATOM      2  C   LIG    1      -21.874  77.513  31.459  0.00  0.00    +0.170 A 
ATOM      3  N   LIG    1      -21.858  77.945  32.766  0.00  0.00    -0.212 NA
ATOM      4  C   LIG    1      -20.696  78.242  33.313  0.00  0.00    +0.126 A 
ATOM      5  C   LIG    1      -19.415  78.208  32.508  0.00  0.00    +0.063 A 
ATOM      6  C   LIG    1      -19.486  77.767  31.248  0.00  0.00    +0.118 A 
ATOM      7  N   LIG    1      -20.702  77.391  30.712  0.00  0.00    -0.221 N 
ATOM      8  N   LIG    1      -20.927  76.887  29.477  0.00  0.00    -0.173 NA
ATOM      9  C   LIG    1      -22.248  76.717  29.433  0.00  0.00    +0.150 A 
ENDROOT
BRANCH   4  10
ATOM     10  N   LIG    1      -20.641  78.595  34.657  0.00  0.00    -0.308 N 
ATOM     11  C   LIG    1      -20.503  79.988  35.125  0.00  0.00    +0.108 C 
ATOM     12  C   LIG    1      -19.542  79.869  36.319  0.00  0.00    +0.029 C 
ATOM     13  C   LIG    1      -19.900  78.522  36.916  0.00  0.00    +0.021 C 
ATOM     14  C   LIG    1      -20.147  77.663  35.681  0.00  0.00    +0.107 C 
BRANCH  11  15
ATOM     15  C   LIG    1      -21.834  80.606  35.516  0.00  0.00    +0.011 A 
ATOM     16  C   LIG    1      -21.853  81.917  36.015  0.00  0.00    +0.129 A 
ATOM     17  F   LIG    1      -20.711  82.616  36.097  0.00  0.00    -0.205 F 
ATOM     18  C   LIG    1      -23.029  82.526  36.448  0.00  0.00    +0.041 A 
ATOM     19  C   LIG    1      -24.231  81.829  36.366  0.00  0.00    +0.041 A 
ATOM     20  C   LIG    1      -24.238  80.543  35.838  0.00  0.00    +0.124 A 
ATOM     21  F   LIG    1      -25.395  79.874  35.752  0.00  0.00    -0.205 F 
ATOM     22  C   LIG    1      -23.062  79.931  35.411  0.00  0.00    +0.046 A 
ENDBRANCH  11  15
ENDBRANCH   4  10
BRANCH   1  25
ATOM     23  N   LIG    1      -24.696  77.073  32.177  0.00  0.00    -0.310 N 
ATOM     24  H   LIG    1      -23.963  77.110  32.885  0.00  0.00    +0.149 HD
ATOM     25  C   LIG    1      -24.333  77.090  30.850  0.00  0.00    +0.249 C 
ATOM     26  O   LIG    1      -25.143  77.086  29.935  0.00  0.00    -0.270 OA
BRANCH  23  27
ATOM     27  C   LIG    1      -26.081  77.147  32.584  0.00  0.00    +0.120 C 
BRANCH  27  28
ATOM     28  C   LIG    1      -26.663  75.776  32.977  0.00  0.00    +0.103 C 
BRANCH  28  33
ATOM     29  C   LIG    1      -31.335  74.430  32.783  0.00  0.00    +0.105 C 
ATOM     30  N   LIG    1      -30.218  74.991  33.540  0.00  0.00    -0.303 NA
ATOM     31  C   LIG    1      -29.732  76.252  32.943  0.00  0.00    +0.099 C 
ATOM     32  C   LIG    1      -28.752  76.101  31.752  0.00  0.00    +0.100 C 
ATOM     33  N   LIG    1      -27.611  75.189  31.999  0.00  0.00    -0.298 NA
ATOM     34  C   LIG    1      -28.176  73.900  32.456  0.00  0.00    +0.100 C 
ATOM     35  C   LIG    1      -29.119  74.014  33.679  0.00  0.00    +0.099 C 
ENDBRANCH  28  33
ENDBRANCH  27  28
ENDBRANCH  23  27
ENDBRANCH   1  25
TORSDOF 6
ENDMDL
MODEL 3
REMARK VINA RESULT:      -5.6      3.106      5.801
REMARK  Name = pdb/CHEMBL3676040.pdb
REMARK                            x       y       z     vdW  Elec       q    Type
REMARK                         _______ _______ _______ _____ _____    ______ ____
ROOT
ATOM      1  C   LIG    1      -23.129  79.838  35.200  0.00  0.00    +0.100 A 
ATOM      2  C   LIG    1      -22.182  79.289  34.349  0.00  0.00    +0.170 A 
ATOM      3  N   LIG    1      -22.277  78.391  33.310  0.00  0.00    -0.212 NA
ATOM      4  C   LIG    1      -21.176  78.066  32.662  0.00  0.00    +0.126 A 
ATOM      5  C   LIG    1      -19.822  78.583  33.100  0.00  0.00    +0.063 A 
ATOM      6  C   LIG    1      -19.790  79.463  34.105  0.00  0.00    +0.118 A 
ATOM      7  N   LIG    1      -20.962  79.849  34.728  0.00  0.00    -0.221 N 
ATOM      8  N   LIG    1      -21.095  80.757  35.721  0.00  0.00    -0.173 NA
ATOM      9  C   LIG    1      -22.401  80.751  35.992  0.00  0.00    +0.150 A 
ENDROOT
BRANCH   4  10
ATOM     10  N   LIG    1      -21.254  77.231  31.553  0.00  0.00    -0.308 N 
ATOM     11  C   LIG    1      -20.083  76.858  30.735  0.00  0.00    +0.108 C 
ATOM     12  C   LIG    1      -20.631  76.882  29.298  0.00  0.00    +0.029 C 
ATOM     13  C   LIG    1      -22.066  76.422  29.469  0.00  0.00    +0.021 C 
ATOM     14  C   LIG    1      -22.487  77.111  30.762  0.00  0.00    +0.107 C 
BRANCH  11  15
ATOM     15  C   LIG    1      -19.517  75.500  31.112  0.00  0.00    +0.011 A 
ATOM     16  C   LIG    1      -18.208  75.179  30.723  0.00  0.00    +0.129 A 
ATOM     17  F   LIG    1      -17.466  76.084  30.067  0.00  0.00    -0.205 F 
ATOM     18  C   LIG    1      -17.646  73.931  30.984  0.00  0.00    +0.041 A 
ATOM     19  C   LIG    1      -18.388  72.975  31.671  0.00  0.00    +0.041 A 
ATOM     20  C   LIG    1      -19.673  73.290  32.099  0.00  0.00    +0.124 A 
ATOM     21  F   LIG    1      -20.385  72.373  32.766  0.00  0.00    -0.205 F 
ATOM     22  C   LIG    1      -20.238  74.534  31.833  0.00  0.00    +0.046 A 
ENDBRANCH  11  15
ENDBRANCH   4  10
BRANCH   1  25
ATOM     23  N   LIG    1      -24.959  78.403  34.705  0.00  0.00    -0.310 N 
ATOM     24  H   LIG    1      -24.256  77.799  34.283  0.00  0.00    +0.149 HD
ATOM     25  C   LIG    1      -24.553  79.578  35.294  0.00  0.00    +0.249 C 
ATOM     26  O   LIG    1      -25.320  80.345  35.856  0.00  0.00    -0.270 OA
BRANCH  23  27
ATOM     27  C   LIG    1      -26.328  77.945  34.796  0.00  0.00    +0.120 C 
BRANCH  27  28
ATOM     28  C   LIG    1      -26.532  76.546  34.183  0.00  0.00    +0.103 C 
BRANCH  28  33
ATOM     29  C   LIG    1      -25.546  72.789  31.253  0.00  0.00    +0.105 C 
ATOM     30  N   LIG    1      -26.247  73.327  32.417  0.00  0.00    -0.303 NA
ATOM     31  C   LIG    1      -27.191  74.398  32.039  0.00  0.00    +0.099 C 
ATOM     32  C   LIG    1      -26.573  75.808  31.854  0.00  0.00    +0.100 C 
ATOM     33  N   LIG    1      -25.719  76.263  32.976  0.00  0.00    -0.298 NA
ATOM     34  C   LIG    1      -24.707  75.208  33.207  0.00  0.00    +0.100 C 
ATOM     35  C   LIG    1      -25.298  73.796  33.447  0.00  0.00    +0.099 C 
ENDBRANCH  28  33
ENDBRANCH  27  28
ENDBRANCH  23  27
ENDBRANCH   1  25
TORSDOF 6
ENDMDL
MODEL 4
REMARK VINA RESULT:      -5.6      2.806      6.485
REMARK  Name = pdb/CHEMBL3676040.pdb
REMARK                            x       y       z     vdW  Elec       q    Type
REMARK                         _______ _______ _______ _____ _____    ______ ____
ROOT
ATOM      1  C   LIG    1      -24.120  77.872  32.106  0.00  0.00    +0.100 A 
ATOM      2  C   LIG    1      -22.905  77.524  31.540  0.00  0.00    +0.170 A 
ATOM      3  N   LIG    1      -21.605  77.648  31.979  0.00  0.00    -0.212 NA
ATOM      4  C   LIG    1      -20.638  77.198  31.205  0.00  0.00    +0.126 A 
ATOM      5  C   LIG    1      -20.925  76.647  29.825  0.00  0.00    +0.063 A 
ATOM      6  C   LIG    1      -22.204  76.537  29.455  0.00  0.00    +0.118 A 
ATOM      7  N   LIG    1      -23.211  76.946  30.307  0.00  0.00    -0.221 N 
ATOM      8  N   LIG    1      -24.544  76.857  30.095  0.00  0.00    -0.173 NA
ATOM      9  C   LIG    1      -25.082  77.407  31.184  0.00  0.00    +0.150 A 
ENDROOT
BRANCH   4  10
ATOM     10  N   LIG    1      -19.325  77.228  31.662  0.00  0.00    -0.308 N 
ATOM     11  C   LIG    1      -18.887  78.036  32.818  0.00  0.00    +0.108 C 
ATOM     12  C   LIG    1      -17.514  78.572  32.377  0.00  0.00    +0.029 C 
ATOM     13  C   LIG    1      -16.960  77.444  31.529  0.00  0.00    +0.021 C 
ATOM     14  C   LIG    1      -18.189  76.961  30.768  0.00  0.00    +0.107 C 
BRANCH  11  15
ATOM     15  C   LIG    1      -18.803  77.223  34.098  0.00  0.00    +0.011 A 
ATOM     16  C   LIG    1      -18.482  77.877  35.297  0.00  0.00    +0.129 A 
ATOM     17  F   LIG    1      -18.298  79.206  35.303  0.00  0.00    -0.205 F 
ATOM     18  C   LIG    1      -18.331  77.187  36.497  0.00  0.00    +0.041 A 
ATOM     19  C   LIG    1      -18.524  75.809  36.524  0.00  0.00    +0.041 A 
ATOM     20  C   LIG    1      -18.881  75.149  35.354  0.00  0.00    +0.124 A 
ATOM     21  F   LIG    1      -19.075  73.824  35.380  0.00  0.00    -0.205 F 
ATOM     22  C   LIG    1      -19.026  75.837  34.152  0.00  0.00    +0.046 A 
ENDBRANCH  11  15
ENDBRANCH   4  10
BRANCH   1  25
ATOM     23  N   LIG    1      -23.404  79.398  33.783  0.00  0.00    -0.310 N 
ATOM     24  H   LIG    1      -22.578  79.514  33.198  0.00  0.00    +0.149 HD
ATOM     25  C   LIG    1      -24.401  78.550  33.357  0.00  0.00    +0.249 C 
ATOM     26  O   LIG    1      -25.441  78.379  33.974  0.00  0.00    -0.270 OA
BRANCH  23  27
ATOM     27  C   LIG    1      -23.566  80.227  34.957  0.00  0.00    +0.120 C 
BRANCH  27  28
ATOM     28  C   LIG    1      -22.778  79.702  36.173  0.00  0.00    +0.103 C 
BRANCH  28  33
ATOM     29  C   LIG    1      -19.795  82.811  38.432  0.00  0.00    +0.105 C 
ATOM     30  N   LIG    1      -21.141  82.282  38.229  0.00  0.00    -0.303 NA
ATOM     31  C   LIG    1      -21.231  80.856  38.605  0.00  0.00    +0.099 C 
ATOM     32  C   LIG    1      -20.753  79.844  37.533  0.00  0.00    +0.100 C 
ATOM     33  N   LIG    1      -21.336  80.046  36.186  0.00  0.00    -0.298 NA
ATOM     34  C   LIG    1      -21.085  81.455  35.810  0.00  0.00    +0.100 C 
ATOM     35  C   LIG    1      -21.599  82.493  36.840  0.00  0.00    +0.099 C 
ENDBRANCH  28  33
ENDBRANCH  27  28
ENDBRANCH  23  27
ENDBRANCH   1  25
TORSDOF 6
ENDMDL
MODEL 5
REMARK VINA RESULT:      -5.4     16.854     18.946
REMARK  Name = pdb/CHEMBL3676040.pdb
REMARK                            x       y       z     vdW  Elec       q    Type
REMARK                         _______ _______ _______ _____ _____    ______ ____
ROOT
ATOM      1  C   LIG    1      -22.626  80.689  15.552  0.00  0.00    +0.100 A 
ATOM      2  C   LIG    1      -21.622  79.734  15.572  0.00  0.00    +0.170 A 
ATOM      3  N   LIG    1      -21.599  78.402  15.221  0.00  0.00    -0.212 NA
ATOM      4  C   LIG    1      -20.464  77.744  15.338  0.00  0.00    +0.126 A 
ATOM      5  C   LIG    1      -19.234  78.394  15.934  0.00  0.00    +0.063 A 
ATOM      6  C   LIG    1      -19.307  79.692  16.245  0.00  0.00    +0.118 A 
ATOM      7  N   LIG    1      -20.485  80.387  16.048  0.00  0.00    -0.221 N 
ATOM      8  N   LIG    1      -20.700  81.704  16.269  0.00  0.00    -0.173 NA
ATOM      9  C   LIG    1      -21.985  81.878  15.961  0.00  0.00    +0.150 A 
ENDROOT
BRANCH   4  10
ATOM     10  N   LIG    1      -20.389  76.424  14.907  0.00  0.00    -0.308 N 
ATOM     11  C   LIG    1      -19.566  75.397  15.577  0.00  0.00    +0.108 C 
ATOM     12  C   LIG    1      -18.985  74.588  14.406  0.00  0.00    +0.029 C 
ATOM     13  C   LIG    1      -20.094  74.629  13.374  0.00  0.00    +0.021 C 
ATOM     14  C   LIG    1      -20.619  76.056  13.503  0.00  0.00    +0.107 C 
BRANCH  11  15
ATOM     15  C   LIG    1      -20.374  74.533  16.529  0.00  0.00    +0.011 A 
ATOM     16  C   LIG    1      -19.700  73.791  17.511  0.00  0.00    +0.129 A 
ATOM     17  F   LIG    1      -18.367  73.889  17.622  0.00  0.00    -0.205 F 
ATOM     18  C   LIG    1      -20.371  72.933  18.379  0.00  0.00    +0.041 A 
ATOM     19  C   LIG    1      -21.756  72.818  18.294  0.00  0.00    +0.041 A 
ATOM     20  C   LIG    1      -22.445  73.575  17.353  0.00  0.00    +0.124 A 
ATOM     21  F   LIG    1      -23.778  73.470  17.275  0.00  0.00    -0.205 F 
ATOM     22  C   LIG    1      -21.774  74.428  16.480  0.00  0.00    +0.046 A 
ENDBRANCH  11  15
ENDBRANCH   4  10
BRANCH   1  25
ATOM     23  N   LIG    1      -24.574  79.328  15.480  0.00  0.00    -0.310 N 
ATOM     24  H   LIG    1      -23.991  78.627  15.935  0.00  0.00    +0.149 HD
ATOM     25  C   LIG    1      -24.025  80.557  15.195  0.00  0.00    +0.249 C 
ATOM     26  O   LIG    1      -24.657  81.470  14.686  0.00  0.00    -0.270 OA
BRANCH  23  27
ATOM     27  C   LIG    1      -25.981  79.063  15.281  0.00  0.00    +0.120 C 
BRANCH  27  28
ATOM     28  C   LIG    1      -26.290  78.490  13.884  0.00  0.00    +0.103 C 
BRANCH  28  33
ATOM     29  C   LIG    1      -27.865  74.805  11.125  0.00  0.00    +0.105 C 
ATOM     30  N   LIG    1      -27.908  76.223  11.474  0.00  0.00    -0.303 NA
ATOM     31  C   LIG    1      -26.606  76.882  11.246  0.00  0.00    +0.099 C 
ATOM     32  C   LIG    1      -25.558  76.713  12.375  0.00  0.00    +0.100 C 
ATOM     33  N   LIG    1      -26.052  77.034  13.734  0.00  0.00    -0.298 NA
ATOM     34  C   LIG    1      -27.277  76.232  13.952  0.00  0.00    +0.100 C 
ATOM     35  C   LIG    1      -28.365  76.420  12.865  0.00  0.00    +0.099 C 
ENDBRANCH  28  33
ENDBRANCH  27  28
ENDBRANCH  23  27
ENDBRANCH   1  25
TORSDOF 6
ENDMDL
MODEL 6
REMARK VINA RESULT:      -5.4     13.151     16.179
REMARK  Name = pdb/CHEMBL3676040.pdb
REMARK                            x       y       z     vdW  Elec       q    Type
REMARK                         _______ _______ _______ _____ _____    ______ ____
ROOT
ATOM      1  C   LIG    1      -39.155  73.325  24.656  0.00  0.00    +0.100 A 
ATOM      2  C   LIG    1      -38.567  74.302  25.444  0.00  0.00    +0.170 A 
ATOM      3  N   LIG    1      -37.517  74.270  26.334  0.00  0.00    -0.212 NA
ATOM      4  C   LIG    1      -37.171  75.391  26.933  0.00  0.00    +0.126 A 
ATOM      5  C   LIG    1      -37.958  76.668  26.732  0.00  0.00    +0.063 A 
ATOM      6  C   LIG    1      -38.958  76.647  25.846  0.00  0.00    +0.118 A 
ATOM      7  N   LIG    1      -39.264  75.480  25.172  0.00  0.00    -0.221 N 
ATOM      8  N   LIG    1      -40.210  75.313  24.221  0.00  0.00    -0.173 NA
ATOM      9  C   LIG    1      -40.132  74.019  23.910  0.00  0.00    +0.150 A 
ENDROOT
BRANCH   4  10
ATOM     10  N   LIG    1      -36.058  75.407  27.769  0.00  0.00    -0.308 N 
ATOM     11  C   LIG    1      -34.704  75.770  27.308  0.00  0.00    +0.108 C 
ATOM     12  C   LIG    1      -33.797  74.778  28.055  0.00  0.00    +0.029 C 
ATOM     13  C   LIG    1      -34.511  74.587  29.379  0.00  0.00    +0.021 C 
ATOM     14  C   LIG    1      -35.979  74.558  28.966  0.00  0.00    +0.107 C 
BRANCH  11  15
ATOM     15  C   LIG    1      -34.351  77.215  27.614  0.00  0.00    +0.011 A 
ATOM     16  C   LIG    1      -33.179  77.759  27.067  0.00  0.00    +0.129 A 
ATOM     17  F   LIG    1      -32.416  77.014  26.253  0.00  0.00    -0.205 F 
ATOM     18  C   LIG    1      -32.764  79.057  27.353  0.00  0.00    +0.041 A 
ATOM     19  C   LIG    1      -33.540  79.857  28.186  0.00  0.00    +0.041 A 
ATOM     20  C   LIG    1      -34.725  79.348  28.706  0.00  0.00    +0.124 A 
ATOM     21  F   LIG    1      -35.476  80.119  29.503  0.00  0.00    -0.205 F 
ATOM     22  C   LIG    1      -35.138  78.048  28.427  0.00  0.00    +0.046 A 
ENDBRANCH  11  15
ENDBRANCH   4  10
BRANCH   1  25
ATOM     23  N   LIG    1      -37.538  71.601  24.407  0.00  0.00    -0.310 N 
ATOM     24  H   LIG    1      -36.861  72.362  24.389  0.00  0.00    +0.149 HD
ATOM     25  C   LIG    1      -38.870  71.906  24.570  0.00  0.00    +0.249 C 
ATOM     26  O   LIG    1      -39.746  71.058  24.641  0.00  0.00    -0.270 OA
BRANCH  23  27
ATOM     27  C   LIG    1      -37.070  70.233  24.405  0.00  0.00    +0.120 C 
BRANCH  27  28
ATOM     28  C   LIG    1      -36.296  69.863  25.685  0.00  0.00    +0.103 C 
BRANCH  28  33
ATOM     29  C   LIG    1      -32.525  69.782  28.758  0.00  0.00    +0.105 C 
ATOM     30  N   LIG    1      -33.901  69.403  28.445  0.00  0.00    -0.303 NA
ATOM     31  C   LIG    1      -33.970  68.532  27.254  0.00  0.00    +0.099 C 
ATOM     32  C   LIG    1      -33.938  69.258  25.885  0.00  0.00    +0.100 C 
ATOM     33  N   LIG    1      -34.905  70.371  25.749  0.00  0.00    -0.298 NA
ATOM     34  C   LIG    1      -34.684  71.280  26.896  0.00  0.00    +0.100 C 
ATOM     35  C   LIG    1      -34.762  70.592  28.282  0.00  0.00    +0.099 C 
ENDBRANCH  28  33
ENDBRANCH  27  28
ENDBRANCH  23  27
ENDBRANCH   1  25
TORSDOF 6
ENDMDL
MODEL 7
REMARK VINA RESULT:      -5.4      2.858      5.977
REMARK  Name = pdb/CHEMBL3676040.pdb
REMARK                            x       y       z     vdW  Elec       q    Type
REMARK                         _______ _______ _______ _____ _____    ______ ____
ROOT
ATOM      1  C   LIG    1      -25.066  77.558  32.410  0.00  0.00    +0.100 A 
ATOM      2  C   LIG    1      -23.772  77.513  31.916  0.00  0.00    +0.170 A 
ATOM      3  N   LIG    1      -22.546  77.728  32.503  0.00  0.00    -0.212 NA
ATOM      4  C   LIG    1      -21.465  77.592  31.762  0.00  0.00    +0.126 A 
ATOM      5  C   LIG    1      -21.558  77.303  30.279  0.00  0.00    +0.063 A 
ATOM      6  C   LIG    1      -22.772  77.089  29.764  0.00  0.00    +0.118 A 
ATOM      7  N   LIG    1      -23.891  77.164  30.570  0.00  0.00    -0.221 N 
ATOM      8  N   LIG    1      -25.173  76.930  30.208  0.00  0.00    -0.173 NA
ATOM      9  C   LIG    1      -25.871  77.160  31.320  0.00  0.00    +0.150 A 
ENDROOT
BRANCH   4  10
ATOM     10  N   LIG    1      -20.210  77.715  32.350  0.00  0.00    -0.308 N 
ATOM     11  C   LIG    1      -19.796  78.894  33.136  0.00  0.00    +0.108 C 
ATOM     12  C   LIG    1      -18.331  79.104  32.717  0.00  0.00    +0.029 C 
ATOM     13  C   LIG    1      -17.835  77.692  32.478  0.00  0.00    +0.021 C 
ATOM     14  C   LIG    1      -19.031  77.025  31.806  0.00  0.00    +0.107 C 
BRANCH  11  15
ATOM     15  C   LIG    1      -19.941  78.676  34.633  0.00  0.00    +0.011 A 
ATOM     16  C   LIG    1      -20.259  79.770  35.451  0.00  0.00    +0.129 A 
ATOM     17  F   LIG    1      -20.471  80.975  34.899  0.00  0.00    -0.205 F 
ATOM     18  C   LIG    1      -20.349  79.655  36.836  0.00  0.00    +0.041 A 
ATOM     19  C   LIG    1      -20.143  78.416  37.435  0.00  0.00    +0.041 A 
ATOM     20  C   LIG    1      -19.866  77.312  36.637  0.00  0.00    +0.124 A 
ATOM     21  F   LIG    1      -19.674  76.118  37.213  0.00  0.00    -0.205 F 
ATOM     22  C   LIG    1      -19.769  77.427  35.253  0.00  0.00    +0.046 A 
ENDBRANCH  11  15
ENDBRANCH   4  10
BRANCH   1  25
ATOM     23  N   LIG    1      -24.793  78.877  34.369  0.00  0.00    -0.310 N 
ATOM     24  H   LIG    1      -23.999  79.284  33.875  0.00  0.00    +0.149 HD
ATOM     25  C   LIG    1      -25.543  77.915  33.732  0.00  0.00    +0.249 C 
ATOM     26  O   LIG    1      -26.532  77.400  34.231  0.00  0.00    -0.270 OA
BRANCH  23  27
ATOM     27  C   LIG    1      -25.188  79.420  35.649  0.00  0.00    +0.120 C 
BRANCH  27  28
ATOM     28  C   LIG    1      -24.067  80.232  36.327  0.00  0.00    +0.103 C 
BRANCH  28  33
ATOM     29  C   LIG    1      -24.950  84.038  39.226  0.00  0.00    +0.105 C 
ATOM     30  N   LIG    1      -24.722  83.504  37.886  0.00  0.00    -0.303 NA
ATOM     31  C   LIG    1      -25.776  82.549  37.491  0.00  0.00    +0.099 C 
ATOM     32  C   LIG    1      -25.605  81.100  38.015  0.00  0.00    +0.100 C 
ATOM     33  N   LIG    1      -24.271  80.505  37.770  0.00  0.00    -0.298 NA
ATOM     34  C   LIG    1      -23.269  81.445  38.318  0.00  0.00    +0.100 C 
ATOM     35  C   LIG    1      -23.382  82.891  37.772  0.00  0.00    +0.099 C 
ENDBRANCH  28  33
ENDBRANCH  27  28
ENDBRANCH  23  27
ENDBRANCH   1  25
TORSDOF 6
ENDMDL
MODEL 8
REMARK VINA RESULT:      -5.3     18.565     21.341
REMARK  Name = pdb/CHEMBL3676040.pdb
REMARK                            x       y       z     vdW  Elec       q    Type
REMARK                         _______ _______ _______ _____ _____    ______ ____
ROOT
ATOM      1  C   LIG    1      -19.512  82.104  14.418  0.00  0.00    +0.100 A 
ATOM      2  C   LIG    1      -19.793  83.301  13.779  0.00  0.00    +0.170 A 
ATOM      3  N   LIG    1      -20.723  84.288  14.022  0.00  0.00    -0.212 NA
ATOM      4  C   LIG    1      -20.737  85.342  13.231  0.00  0.00    +0.126 A 
ATOM      5  C   LIG    1      -19.827  85.434  12.024  0.00  0.00    +0.063 A 
ATOM      6  C   LIG    1      -18.935  84.455  11.844  0.00  0.00    +0.118 A 
ATOM      7  N   LIG    1      -18.884  83.392  12.725  0.00  0.00    -0.221 N 
ATOM      8  N   LIG    1      -18.014  82.356  12.702  0.00  0.00    -0.173 NA
ATOM      9  C   LIG    1      -18.393  81.593  13.727  0.00  0.00    +0.150 A 
ENDROOT
BRANCH   4  10
ATOM     10  N   LIG    1      -21.604  86.394  13.506  0.00  0.00    -0.308 N 
ATOM     11  C   LIG    1      -21.952  87.436  12.520  0.00  0.00    +0.108 C 
ATOM     12  C   LIG    1      -21.989  88.723  13.361  0.00  0.00    +0.029 C 
ATOM     13  C   LIG    1      -22.501  88.242  14.705  0.00  0.00    +0.021 C 
ATOM     14  C   LIG    1      -21.795  86.901  14.872  0.00  0.00    +0.107 C 
BRANCH  11  15
ATOM     15  C   LIG    1      -23.276  87.164  11.826  0.00  0.00    +0.011 A 
ATOM     16  C   LIG    1      -23.728  88.063  10.849  0.00  0.00    +0.129 A 
ATOM     17  F   LIG    1      -22.970  89.118  10.514  0.00  0.00    -0.205 F 
ATOM     18  C   LIG    1      -24.958  87.908  10.215  0.00  0.00    +0.041 A 
ATOM     19  C   LIG    1      -25.761  86.818  10.536  0.00  0.00    +0.041 A 
ATOM     20  C   LIG    1      -25.312  85.895  11.474  0.00  0.00    +0.124 A 
ATOM     21  F   LIG    1      -26.081  84.841  11.778  0.00  0.00    -0.205 F 
ATOM     22  C   LIG    1      -24.085  86.052  12.113  0.00  0.00    +0.046 A 
ENDBRANCH  11  15
ENDBRANCH   4  10
BRANCH   1  25
ATOM     23  N   LIG    1      -21.477  81.873  15.736  0.00  0.00    -0.310 N 
ATOM     24  H   LIG    1      -21.887  82.535  15.078  0.00  0.00    +0.149 HD
ATOM     25  C   LIG    1      -20.173  81.476  15.546  0.00  0.00    +0.249 C 
ATOM     26  O   LIG    1      -19.612  80.660  16.261  0.00  0.00    -0.270 OA
BRANCH  23  27
ATOM     27  C   LIG    1      -22.311  81.270  16.752  0.00  0.00    +0.120 C 
BRANCH  27  28
ATOM     28  C   LIG    1      -23.013  79.987  16.266  0.00  0.00    +0.103 C 
BRANCH  28  33
ATOM     29  C   LIG    1      -26.038  77.508  13.372  0.00  0.00    +0.105 C 
ATOM     30  N   LIG    1      -25.427  77.698  14.685  0.00  0.00    -0.303 NA
ATOM     31  C   LIG    1      -25.786  79.005  15.271  0.00  0.00    +0.099 C 
ATOM     32  C   LIG    1      -24.946  80.215  14.789  0.00  0.00    +0.100 C 
ATOM     33  N   LIG    1      -23.479  80.019  14.859  0.00  0.00    -0.298 NA
ATOM     34  C   LIG    1      -23.173  78.768  14.129  0.00  0.00    +0.100 C 
ATOM     35  C   LIG    1      -23.961  77.530  14.626  0.00  0.00    +0.099 C 
ENDBRANCH  28  33
ENDBRANCH  27  28
ENDBRANCH  23  27
ENDBRANCH   1  25
TORSDOF 6
ENDMDL
MODEL 9
REMARK VINA RESULT:      -5.3      2.501      6.132
REMARK  Name = pdb/CHEMBL3676040.pdb
REMARK                            x       y       z     vdW  Elec       q    Type
REMARK                         _______ _______ _______ _____ _____    ______ ____
ROOT
ATOM      1  C   LIG    1      -18.441  78.304  33.197  0.00  0.00    +0.100 A 
ATOM      2  C   LIG    1      -19.387  77.856  32.289  0.00  0.00    +0.170 A 
ATOM      3  N   LIG    1      -20.761  77.782  32.339  0.00  0.00    -0.212 NA
ATOM      4  C   LIG    1      -21.401  77.314  31.287  0.00  0.00    +0.126 A 
ATOM      5  C   LIG    1      -20.654  76.775  30.086  0.00  0.00    +0.063 A 
ATOM      6  C   LIG    1      -19.322  76.885  30.083  0.00  0.00    +0.118 A 
ATOM      7  N   LIG    1      -18.670  77.445  31.165  0.00  0.00    -0.221 N 
ATOM      8  N   LIG    1      -17.341  77.664  31.290  0.00  0.00    -0.173 NA
ATOM      9  C   LIG    1      -17.214  78.188  32.509  0.00  0.00    +0.150 A 
ENDROOT
BRANCH   4  10
ATOM     10  N   LIG    1      -22.792  77.311  31.275  0.00  0.00    -0.308 N 
ATOM     11  C   LIG    1      -23.607  76.368  32.067  0.00  0.00    +0.108 C 
ATOM     12  C   LIG    1      -24.761  76.012  31.115  0.00  0.00    +0.029 C 
ATOM     13  C   LIG    1      -24.979  77.296  30.340  0.00  0.00    +0.021 C 
ATOM     14  C   LIG    1      -23.556  77.799  30.118  0.00  0.00    +0.107 C 
BRANCH  11  15
ATOM     15  C   LIG    1      -24.102  76.975  33.368  0.00  0.00    +0.011 A 
ATOM     16  C   LIG    1      -24.572  76.123  34.379  0.00  0.00    +0.129 A 
ATOM     17  F   LIG    1      -24.537  74.794  34.200  0.00  0.00    -0.205 F 
ATOM     18  C   LIG    1      -25.093  76.613  35.574  0.00  0.00    +0.041 A 
ATOM     19  C   LIG    1      -25.133  77.987  35.792  0.00  0.00    +0.041 A 
ATOM     20  C   LIG    1      -24.635  78.845  34.818  0.00  0.00    +0.124 A 
ATOM     21  F   LIG    1      -24.666  80.167  35.030  0.00  0.00    -0.205 F 
ATOM     22  C   LIG    1      -24.119  78.357  33.620  0.00  0.00    +0.046 A 
ENDBRANCH  11  15
ENDBRANCH   4  10
BRANCH   1  25
ATOM     23  N   LIG    1      -19.784  79.491  34.760  0.00  0.00    -0.310 N 
ATOM     24  H   LIG    1      -20.442  79.583  33.988  0.00  0.00    +0.149 HD
ATOM     25  C   LIG    1      -18.613  78.797  34.549  0.00  0.00    +0.249 C 
ATOM     26  O   LIG    1      -17.784  78.605  35.425  0.00  0.00    -0.270 OA
BRANCH  23  27
ATOM     27  C   LIG    1      -20.158  79.962  36.074  0.00  0.00    +0.120 C 
BRANCH  27  28
ATOM     28  C   LIG    1      -21.564  80.594  36.105  0.00  0.00    +0.103 C 
BRANCH  28  33
ATOM     29  C   LIG    1      -22.932  84.025  39.272  0.00  0.00    +0.105 C 
ATOM     30  N   LIG    1      -22.795  82.611  38.930  0.00  0.00    -0.303 NA
ATOM     31  C   LIG    1      -21.381  82.229  38.739  0.00  0.00    +0.099 C 
ATOM     32  C   LIG    1      -20.779  82.547  37.346  0.00  0.00    +0.100 C 
ATOM     33  N   LIG    1      -21.587  82.073  36.198  0.00  0.00    -0.298 NA
ATOM     34  C   LIG    1      -22.954  82.610  36.379  0.00  0.00    +0.100 C 
ATOM     35  C   LIG    1      -23.602  82.264  37.743  0.00  0.00    +0.099 C 
ENDBRANCH  28  33
ENDBRANCH  27  28
ENDBRANCH  23  27
ENDBRANCH   1  25
TORSDOF 6
ENDMDL
