MODEL 1
REMARK VINA RESULT:      -5.7      0.000      0.000
REMARK  Name = pdb/CHEMBL3673486.pdb
REMARK                            x       y       z     vdW  Elec       q    Type
REMARK                         _______ _______ _______ _____ _____    ______ ____
ROOT
ATOM      1  C   LIG    1      -18.532  76.795  31.020  0.00  0.00    +0.161 C 
ENDROOT
BRANCH   1   2
ATOM      2  N   LIG    1      -18.300  76.890  32.496  0.00  0.00    -0.293 N 
ATOM      3  C   LIG    1      -18.898  77.856  33.245  0.00  0.00    +0.162 A 
ATOM      4  N   LIG    1      -19.833  78.754  32.869  0.00  0.00    -0.235 NA
ATOM      5  C   LIG    1      -20.249  79.537  33.920  0.00  0.00    +0.121 A 
ATOM      6  C   LIG    1      -19.789  79.524  35.255  0.00  0.00    +0.002 A 
ATOM      7  C   LIG    1      -18.780  78.590  35.532  0.00  0.00    +0.041 A 
ATOM      8  C   LIG    1      -18.349  77.731  34.497  0.00  0.00    +0.110 A 
ATOM      9  N   LIG    1      -17.447  76.731  34.565  0.00  0.00    -0.213 NA
ATOM     10  C   LIG    1      -17.512  76.193  33.373  0.00  0.00    +0.195 A 
BRANCH   6  11
ATOM     11  C   LIG    1      -20.337  80.422  36.319  0.00  0.00    -0.014 A 
ATOM     12  C   LIG    1      -19.554  80.858  37.404  0.00  0.00    +0.028 A 
ATOM     13  C   LIG    1      -20.100  81.696  38.372  0.00  0.00    +0.111 A 
ATOM     14  N   LIG    1      -21.370  82.133  38.352  0.00  0.00    -0.263 NA
ATOM     15  C   LIG    1      -22.123  81.716  37.319  0.00  0.00    +0.111 A 
ATOM     16  C   LIG    1      -21.662  80.882  36.305  0.00  0.00    +0.028 A 
ENDBRANCH   6  11
BRANCH  10  17
ATOM     17  N   LIG    1      -16.875  75.059  33.078  0.00  0.00    -0.329 N 
ATOM     18  H   LIG    1      -15.868  75.065  32.891  0.00  0.00    +0.145 HD
ATOM     19  H   LIG    1      -17.218  74.078  33.215  0.00  0.00    +0.145 HD
ENDBRANCH  10  17
ENDBRANCH   1   2
BRANCH   1  23
ATOM     20  C   LIG    1      -22.670  75.712  30.490  0.00  0.00    +0.162 A 
ATOM     21  C   LIG    1      -21.844  75.136  31.461  0.00  0.00    +0.162 A 
ATOM     22  C   LIG    1      -20.450  75.269  31.372  0.00  0.00    +0.054 A 
ATOM     23  C   LIG    1      -19.870  76.250  30.581  0.00  0.00    -0.024 A 
ATOM     24  C   LIG    1      -20.646  76.775  29.548  0.00  0.00    +0.009 A 
ATOM     25  C   LIG    1      -22.028  76.474  29.484  0.00  0.00    +0.050 A 
BRANCH  21  26
ATOM     26  O   LIG    1      -22.353  74.541  32.593  0.00  0.00    -0.491 OA
ATOM     27  C   LIG    1      -21.981  75.261  33.781  0.00  0.00    +0.277 C 
ENDBRANCH  21  26
BRANCH  20  28
ATOM     28  O   LIG    1      -24.048  75.722  30.454  0.00  0.00    -0.484 OA
BRANCH  28  29
ATOM     29  C   LIG    1      -24.774  76.961  30.561  0.00  0.00    +0.266 C 
BRANCH  29  33
ATOM     30  C   LIG    1      -24.992  78.675  34.490  0.00  0.00    +0.214 A 
ATOM     31  N   LIG    1      -26.014  77.883  34.100  0.00  0.00    -0.221 NA
ATOM     32  C   LIG    1      -25.936  77.355  32.839  0.00  0.00    +0.121 A 
ATOM     33  C   LIG    1      -24.873  77.554  31.960  0.00  0.00    +0.008 A 
ATOM     34  C   LIG    1      -23.806  78.316  32.455  0.00  0.00    +0.013 A 
ATOM     35  C   LIG    1      -23.889  78.936  33.701  0.00  0.00    +0.067 A 
BRANCH  30  37
ATOM     36  C   LIG    1      -26.247  79.146  36.405  0.00  0.00    +0.279 C 
ATOM     37  O   LIG    1      -25.016  79.320  35.715  0.00  0.00    -0.480 OA
ENDBRANCH  30  37
ENDBRANCH  29  33
ENDBRANCH  28  29
ENDBRANCH  20  28
ENDBRANCH   1  23
TORSDOF 9
ENDMDL
MODEL 2
REMARK VINA RESULT:      -5.4      1.543      2.082
REMARK  Name = pdb/CHEMBL3673486.pdb
REMARK                            x       y       z     vdW  Elec       q    Type
REMARK                         _______ _______ _______ _____ _____    ______ ____
ROOT
ATOM      1  C   LIG    1      -20.093  76.897  30.085  0.00  0.00    +0.161 C 
ENDROOT
BRANCH   1   2
ATOM      2  N   LIG    1      -19.465  76.617  31.415  0.00  0.00    -0.293 N 
ATOM      3  C   LIG    1      -19.527  77.520  32.430  0.00  0.00    +0.162 A 
ATOM      4  N   LIG    1      -20.211  78.683  32.483  0.00  0.00    -0.235 NA
ATOM      5  C   LIG    1      -20.081  79.303  33.702  0.00  0.00    +0.121 A 
ATOM      6  C   LIG    1      -19.315  78.893  34.815  0.00  0.00    +0.002 A 
ATOM      7  C   LIG    1      -18.599  77.699  34.643  0.00  0.00    +0.041 A 
ATOM      8  C   LIG    1      -18.734  76.999  33.423  0.00  0.00    +0.110 A 
ATOM      9  N   LIG    1      -18.191  75.814  33.078  0.00  0.00    -0.213 NA
ATOM     10  C   LIG    1      -18.724  75.574  31.907  0.00  0.00    +0.195 A 
BRANCH   6  11
ATOM     11  C   LIG    1      -19.268  79.653  36.103  0.00  0.00    -0.014 A 
ATOM     12  C   LIG    1      -20.180  80.683  36.397  0.00  0.00    +0.028 A 
ATOM     13  C   LIG    1      -20.105  81.364  37.608  0.00  0.00    +0.111 A 
ATOM     14  N   LIG    1      -19.187  81.106  38.554  0.00  0.00    -0.263 NA
ATOM     15  C   LIG    1      -18.310  80.125  38.277  0.00  0.00    +0.111 A 
ATOM     16  C   LIG    1      -18.312  79.390  37.096  0.00  0.00    +0.028 A 
ENDBRANCH   6  11
BRANCH  10  17
ATOM     17  N   LIG    1      -18.560  74.406  31.285  0.00  0.00    -0.329 N 
ATOM     18  H   LIG    1      -17.733  74.242  30.702  0.00  0.00    +0.145 HD
ATOM     19  H   LIG    1      -19.064  73.506  31.469  0.00  0.00    +0.145 HD
ENDBRANCH  10  17
ENDBRANCH   1   2
BRANCH   1  23
ATOM     20  C   LIG    1      -24.304  76.164  30.637  0.00  0.00    +0.162 A 
ATOM     21  C   LIG    1      -23.314  75.222  30.937  0.00  0.00    +0.162 A 
ATOM     22  C   LIG    1      -22.015  75.376  30.431  0.00  0.00    +0.054 A 
ATOM     23  C   LIG    1      -21.568  76.601  29.958  0.00  0.00    -0.024 A 
ATOM     24  C   LIG    1      -22.537  77.525  29.568  0.00  0.00    +0.009 A 
ATOM     25  C   LIG    1      -23.898  77.285  29.872  0.00  0.00    +0.050 A 
BRANCH  21  26
ATOM     26  O   LIG    1      -23.530  74.197  31.830  0.00  0.00    -0.491 OA
ATOM     27  C   LIG    1      -22.343  73.896  32.585  0.00  0.00    +0.277 C 
ENDBRANCH  21  26
BRANCH  20  28
ATOM     28  O   LIG    1      -25.606  76.194  31.090  0.00  0.00    -0.484 OA
BRANCH  28  29
ATOM     29  C   LIG    1      -26.021  77.173  32.062  0.00  0.00    +0.266 C 
BRANCH  29  33
ATOM     30  C   LIG    1      -23.363  77.821  35.369  0.00  0.00    +0.214 A 
ATOM     31  N   LIG    1      -23.985  76.624  35.297  0.00  0.00    -0.221 NA
ATOM     32  C   LIG    1      -24.840  76.438  34.243  0.00  0.00    +0.121 A 
ATOM     33  C   LIG    1      -25.081  77.377  33.242  0.00  0.00    +0.008 A 
ATOM     34  C   LIG    1      -24.342  78.565  33.328  0.00  0.00    +0.013 A 
ATOM     35  C   LIG    1      -23.527  78.820  34.430  0.00  0.00    +0.067 A 
BRANCH  30  37
ATOM     36  C   LIG    1      -21.845  77.005  36.948  0.00  0.00    +0.279 C 
ATOM     37  O   LIG    1      -22.543  78.135  36.439  0.00  0.00    -0.480 OA
ENDBRANCH  30  37
ENDBRANCH  29  33
ENDBRANCH  28  29
ENDBRANCH  20  28
ENDBRANCH   1  23
TORSDOF 9
ENDMDL
MODEL 3
REMARK VINA RESULT:      -5.3      8.056     11.230
REMARK  Name = pdb/CHEMBL3673486.pdb
REMARK                            x       y       z     vdW  Elec       q    Type
REMARK                         _______ _______ _______ _____ _____    ______ ____
ROOT
ATOM      1  C   LIG    1      -29.169  73.961  32.427  0.00  0.00    +0.161 C 
ENDROOT
BRANCH   1   2
ATOM      2  N   LIG    1      -28.535  75.254  32.017  0.00  0.00    -0.293 N 
ATOM      3  C   LIG    1      -27.190  75.357  31.839  0.00  0.00    +0.162 A 
ATOM      4  N   LIG    1      -26.260  74.378  31.864  0.00  0.00    -0.235 NA
ATOM      5  C   LIG    1      -25.003  74.853  31.579  0.00  0.00    +0.121 A 
ATOM      6  C   LIG    1      -24.608  76.185  31.326  0.00  0.00    +0.002 A 
ATOM      7  C   LIG    1      -25.639  77.135  31.374  0.00  0.00    +0.041 A 
ATOM      8  C   LIG    1      -26.957  76.692  31.618  0.00  0.00    +0.110 A 
ATOM      9  N   LIG    1      -28.091  77.421  31.642  0.00  0.00    -0.213 NA
ATOM     10  C   LIG    1      -29.023  76.514  31.792  0.00  0.00    +0.195 A 
BRANCH   6  11
ATOM     11  C   LIG    1      -23.199  76.577  31.010  0.00  0.00    -0.014 A 
ATOM     12  C   LIG    1      -22.616  76.322  29.755  0.00  0.00    +0.028 A 
ATOM     13  C   LIG    1      -21.303  76.705  29.499  0.00  0.00    +0.111 A 
ATOM     14  N   LIG    1      -20.516  77.319  30.398  0.00  0.00    -0.263 NA
ATOM     15  C   LIG    1      -21.066  77.561  31.600  0.00  0.00    +0.111 A 
ATOM     16  C   LIG    1      -22.370  77.218  31.943  0.00  0.00    +0.028 A 
ENDBRANCH   6  11
BRANCH  10  17
ATOM     17  N   LIG    1      -30.319  76.817  31.708  0.00  0.00    -0.329 N 
ATOM     18  H   LIG    1      -30.716  77.153  30.826  0.00  0.00    +0.145 HD
ATOM     19  H   LIG    1      -31.082  76.559  32.379  0.00  0.00    +0.145 HD
ENDBRANCH  10  17
ENDBRANCH   1   2
BRANCH   1  23
ATOM     20  C   LIG    1      -30.907  70.904  29.934  0.00  0.00    +0.162 A 
ATOM     21  C   LIG    1      -29.715  70.730  30.646  0.00  0.00    +0.162 A 
ATOM     22  C   LIG    1      -29.028  71.841  31.156  0.00  0.00    +0.054 A 
ATOM     23  C   LIG    1      -29.657  73.067  31.312  0.00  0.00    -0.024 A 
ATOM     24  C   LIG    1      -30.799  73.298  30.544  0.00  0.00    +0.009 A 
ATOM     25  C   LIG    1      -31.393  72.230  29.830  0.00  0.00    +0.050 A 
BRANCH  21  26
ATOM     26  O   LIG    1      -29.243  69.482  30.984  0.00  0.00    -0.491 OA
ATOM     27  C   LIG    1      -27.839  69.352  30.699  0.00  0.00    +0.277 C 
ENDBRANCH  21  26
BRANCH  20  28
ATOM     28  O   LIG    1      -31.729  69.927  29.414  0.00  0.00    -0.484 OA
BRANCH  28  29
ATOM     29  C   LIG    1      -33.132  70.185  29.208  0.00  0.00    +0.266 C 
BRANCH  29  33
ATOM     30  C   LIG    1      -34.635  69.231  25.303  0.00  0.00    +0.214 A 
ATOM     31  N   LIG    1      -34.692  70.523  25.692  0.00  0.00    -0.221 NA
ATOM     32  C   LIG    1      -34.222  70.809  26.946  0.00  0.00    +0.121 A 
ATOM     33  C   LIG    1      -33.667  69.872  27.818  0.00  0.00    +0.008 A 
ATOM     34  C   LIG    1      -33.560  68.566  27.323  0.00  0.00    +0.013 A 
ATOM     35  C   LIG    1      -34.104  68.225  26.085  0.00  0.00    +0.067 A 
BRANCH  30  37
ATOM     36  C   LIG    1      -35.444  67.436  24.043  0.00  0.00    +0.279 C 
ATOM     37  O   LIG    1      -35.159  68.829  24.087  0.00  0.00    -0.480 OA
ENDBRANCH  30  37
ENDBRANCH  29  33
ENDBRANCH  28  29
ENDBRANCH  20  28
ENDBRANCH   1  23
TORSDOF 9
ENDMDL
MODEL 4
REMARK VINA RESULT:      -5.3     14.874     19.669
REMARK  Name = pdb/CHEMBL3673486.pdb
REMARK                            x       y       z     vdW  Elec       q    Type
REMARK                         _______ _______ _______ _____ _____    ______ ____
ROOT
ATOM      1  C   LIG    1      -39.290  82.671  25.955  0.00  0.00    +0.161 C 
ENDROOT
BRANCH   1   2
ATOM      2  N   LIG    1      -39.444  81.727  24.803  0.00  0.00    -0.293 N 
ATOM      3  C   LIG    1      -39.361  80.380  24.976  0.00  0.00    +0.162 A 
ATOM      4  N   LIG    1      -39.263  79.684  26.129  0.00  0.00    -0.235 NA
ATOM      5  C   LIG    1      -39.263  78.327  25.914  0.00  0.00    +0.121 A 
ATOM      6  C   LIG    1      -39.304  77.637  24.683  0.00  0.00    +0.002 A 
ATOM      7  C   LIG    1      -39.352  78.450  23.541  0.00  0.00    +0.041 A 
ATOM      8  C   LIG    1      -39.400  79.851  23.710  0.00  0.00    +0.110 A 
ATOM      9  N   LIG    1      -39.511  80.802  22.760  0.00  0.00    -0.213 NA
ATOM     10  C   LIG    1      -39.627  81.904  23.457  0.00  0.00    +0.195 A 
BRANCH   6  11
ATOM     11  C   LIG    1      -39.315  76.144  24.579  0.00  0.00    -0.014 A 
ATOM     12  C   LIG    1      -38.233  75.357  25.018  0.00  0.00    +0.028 A 
ATOM     13  C   LIG    1      -38.283  73.971  24.907  0.00  0.00    +0.111 A 
ATOM     14  N   LIG    1      -39.324  73.300  24.387  0.00  0.00    -0.263 NA
ATOM     15  C   LIG    1      -40.358  74.047  23.963  0.00  0.00    +0.111 A 
ATOM     16  C   LIG    1      -40.397  75.436  24.038  0.00  0.00    +0.028 A 
ENDBRANCH   6  11
BRANCH  10  17
ATOM     17  N   LIG    1      -39.917  83.072  22.883  0.00  0.00    -0.329 N 
ATOM     18  H   LIG    1      -39.579  83.949  23.291  0.00  0.00    +0.145 HD
ATOM     19  H   LIG    1      -40.283  83.236  21.914  0.00  0.00    +0.145 HD
ENDBRANCH  10  17
ENDBRANCH   1   2
BRANCH   1  23
ATOM     20  C   LIG    1      -35.695  84.860  26.880  0.00  0.00    +0.162 A 
ATOM     21  C   LIG    1      -36.305  84.882  25.621  0.00  0.00    +0.162 A 
ATOM     22  C   LIG    1      -37.255  83.908  25.280  0.00  0.00    +0.054 A 
ATOM     23  C   LIG    1      -37.889  83.150  26.252  0.00  0.00    -0.024 A 
ATOM     24  C   LIG    1      -37.254  83.040  27.489  0.00  0.00    +0.009 A 
ATOM     25  C   LIG    1      -36.140  83.863  27.782  0.00  0.00    +0.050 A 
BRANCH  21  26
ATOM     26  O   LIG    1      -36.105  85.913  24.731  0.00  0.00    -0.491 OA
ATOM     27  C   LIG    1      -37.206  86.839  24.739  0.00  0.00    +0.277 C 
ENDBRANCH  21  26
BRANCH  20  28
ATOM     28  O   LIG    1      -34.789  85.764  27.394  0.00  0.00    -0.484 OA
BRANCH  28  29
ATOM     29  C   LIG    1      -34.695  85.979  28.815  0.00  0.00    +0.266 C 
BRANCH  29  33
ATOM     30  C   LIG    1      -30.855  87.203  30.290  0.00  0.00    +0.214 A 
ATOM     31  N   LIG    1      -31.060  85.880  30.115  0.00  0.00    -0.221 NA
ATOM     32  C   LIG    1      -32.295  85.504  29.658  0.00  0.00    +0.121 A 
ATOM     33  C   LIG    1      -33.324  86.388  29.336  0.00  0.00    +0.008 A 
ATOM     34  C   LIG    1      -33.020  87.751  29.459  0.00  0.00    +0.013 A 
ATOM     35  C   LIG    1      -31.803  88.164  30.000  0.00  0.00    +0.067 A 
BRANCH  30  37
ATOM     36  C   LIG    1      -29.714  87.803  32.241  0.00  0.00    +0.279 C 
ATOM     37  O   LIG    1      -29.669  87.676  30.825  0.00  0.00    -0.480 OA
ENDBRANCH  30  37
ENDBRANCH  29  33
ENDBRANCH  28  29
ENDBRANCH  20  28
ENDBRANCH   1  23
TORSDOF 9
ENDMDL
MODEL 5
REMARK VINA RESULT:      -5.3     10.568     15.707
REMARK  Name = pdb/CHEMBL3673486.pdb
REMARK                            x       y       z     vdW  Elec       q    Type
REMARK                         _______ _______ _______ _____ _____    ______ ____
ROOT
ATOM      1  C   LIG    1      -34.957  84.907  30.590  0.00  0.00    +0.161 C 
ENDROOT
BRANCH   1   2
ATOM      2  N   LIG    1      -35.412  84.132  29.391  0.00  0.00    -0.293 N 
ATOM      3  C   LIG    1      -35.133  82.808  29.257  0.00  0.00    +0.162 A 
ATOM      4  N   LIG    1      -34.560  81.973  30.151  0.00  0.00    -0.235 NA
ATOM      5  C   LIG    1      -34.495  80.683  29.684  0.00  0.00    +0.121 A 
ATOM      6  C   LIG    1      -34.900  80.187  28.426  0.00  0.00    +0.002 A 
ATOM      7  C   LIG    1      -35.434  81.142  27.548  0.00  0.00    +0.041 A 
ATOM      8  C   LIG    1      -35.564  82.475  27.997  0.00  0.00    +0.110 A 
ATOM      9  N   LIG    1      -36.104  83.525  27.345  0.00  0.00    -0.213 NA
ATOM     10  C   LIG    1      -36.078  84.476  28.244  0.00  0.00    +0.195 A 
BRANCH   6  11
ATOM     11  C   LIG    1      -34.791  78.746  28.039  0.00  0.00    -0.014 A 
ATOM     12  C   LIG    1      -35.915  77.900  27.982  0.00  0.00    +0.028 A 
ATOM     13  C   LIG    1      -35.773  76.566  27.615  0.00  0.00    +0.111 A 
ATOM     14  N   LIG    1      -34.596  75.998  27.303  0.00  0.00    -0.263 NA
ATOM     15  C   LIG    1      -33.518  76.800  27.359  0.00  0.00    +0.111 A 
ATOM     16  C   LIG    1      -33.566  78.145  27.712  0.00  0.00    +0.028 A 
ENDBRANCH   6  11
BRANCH  10  17
ATOM     17  N   LIG    1      -36.673  85.652  28.041  0.00  0.00    -0.329 N 
ATOM     18  H   LIG    1      -37.489  85.720  27.425  0.00  0.00    +0.145 HD
ATOM     19  H   LIG    1      -36.561  86.532  28.601  0.00  0.00    +0.145 HD
ENDBRANCH  10  17
ENDBRANCH   1   2
BRANCH   1  23
ATOM     20  C   LIG    1      -31.177  86.875  31.229  0.00  0.00    +0.162 A 
ATOM     21  C   LIG    1      -32.265  87.489  30.600  0.00  0.00    +0.162 A 
ATOM     22  C   LIG    1      -33.332  86.714  30.120  0.00  0.00    +0.054 A 
ATOM     23  C   LIG    1      -33.536  85.417  30.564  0.00  0.00    -0.024 A 
ATOM     24  C   LIG    1      -32.440  84.752  31.114  0.00  0.00    +0.009 A 
ATOM     25  C   LIG    1      -31.257  85.472  31.406  0.00  0.00    +0.050 A 
BRANCH  21  26
ATOM     26  O   LIG    1      -32.399  88.857  30.544  0.00  0.00    -0.491 OA
ATOM     27  C   LIG    1      -32.824  89.293  29.240  0.00  0.00    +0.277 C 
ENDBRANCH  21  26
BRANCH  20  28
ATOM     28  O   LIG    1      -30.080  87.484  31.801  0.00  0.00    -0.484 OA
BRANCH  28  29
ATOM     29  C   LIG    1      -30.066  87.797  33.207  0.00  0.00    +0.266 C 
BRANCH  29  33
ATOM     30  C   LIG    1      -27.286  85.548  35.581  0.00  0.00    +0.214 A 
ATOM     31  N   LIG    1      -26.892  86.766  35.149  0.00  0.00    -0.221 NA
ATOM     32  C   LIG    1      -27.785  87.465  34.382  0.00  0.00    +0.121 A 
ATOM     33  C   LIG    1      -29.064  87.021  34.050  0.00  0.00    +0.008 A 
ATOM     34  C   LIG    1      -29.443  85.787  34.597  0.00  0.00    +0.013 A 
ATOM     35  C   LIG    1      -28.530  85.013  35.313  0.00  0.00    +0.067 A 
BRANCH  30  37
ATOM     36  C   LIG    1      -27.109  83.755  37.069  0.00  0.00    +0.279 C 
ATOM     37  O   LIG    1      -26.426  84.731  36.294  0.00  0.00    -0.480 OA
ENDBRANCH  30  37
ENDBRANCH  29  33
ENDBRANCH  28  29
ENDBRANCH  20  28
ENDBRANCH   1  23
TORSDOF 9
ENDMDL
MODEL 6
REMARK VINA RESULT:      -5.2     20.083     23.043
REMARK  Name = pdb/CHEMBL3673486.pdb
REMARK                            x       y       z     vdW  Elec       q    Type
REMARK                         _______ _______ _______ _____ _____    ______ ____
ROOT
ATOM      1  C   LIG    1      -27.601  77.445  10.808  0.00  0.00    +0.161 C 
ENDROOT
BRANCH   1   2
ATOM      2  N   LIG    1      -27.297  77.509  12.273  0.00  0.00    -0.293 N 
ATOM      3  C   LIG    1      -26.379  78.384  12.767  0.00  0.00    +0.162 A 
ATOM      4  N   LIG    1      -25.717  79.365  12.118  0.00  0.00    -0.235 NA
ATOM      5  C   LIG    1      -24.910  80.089  12.963  0.00  0.00    +0.121 A 
ATOM      6  C   LIG    1      -24.686  79.889  14.343  0.00  0.00    +0.002 A 
ATOM      7  C   LIG    1      -25.380  78.812  14.913  0.00  0.00    +0.041 A 
ATOM      8  C   LIG    1      -26.257  78.064  14.097  0.00  0.00    +0.110 A 
ATOM      9  N   LIG    1      -27.059  77.041  14.454  0.00  0.00    -0.213 NA
ATOM     10  C   LIG    1      -27.732  76.796  13.358  0.00  0.00    +0.195 A 
BRANCH   6  11
ATOM     11  C   LIG    1      -23.789  80.762  15.163  0.00  0.00    -0.014 A 
ATOM     12  C   LIG    1      -23.641  82.137  14.901  0.00  0.00    +0.028 A 
ATOM     13  C   LIG    1      -22.800  82.916  15.689  0.00  0.00    +0.111 A 
ATOM     14  N   LIG    1      -22.084  82.435  16.719  0.00  0.00    -0.263 NA
ATOM     15  C   LIG    1      -22.218  81.121  16.971  0.00  0.00    +0.111 A 
ATOM     16  C   LIG    1      -23.038  80.268  16.239  0.00  0.00    +0.028 A 
ENDBRANCH   6  11
BRANCH  10  17
ATOM     17  N   LIG    1      -28.755  75.941  13.337  0.00  0.00    -0.329 N 
ATOM     18  H   LIG    1      -29.388  75.909  12.533  0.00  0.00    +0.145 HD
ATOM     19  H   LIG    1      -28.906  75.107  13.955  0.00  0.00    +0.145 HD
ENDBRANCH  10  17
ENDBRANCH   1   2
BRANCH   1  23
ATOM     20  C   LIG    1      -31.639  78.900  10.424  0.00  0.00    +0.162 A 
ATOM     21  C   LIG    1      -31.312  77.540  10.444  0.00  0.00    +0.162 A 
ATOM     22  C   LIG    1      -29.988  77.130  10.230  0.00  0.00    +0.054 A 
ATOM     23  C   LIG    1      -28.929  78.014  10.369  0.00  0.00    -0.024 A 
ATOM     24  C   LIG    1      -29.218  79.375  10.263  0.00  0.00    +0.009 A 
ATOM     25  C   LIG    1      -30.566  79.807  10.251  0.00  0.00    +0.050 A 
BRANCH  21  26
ATOM     26  O   LIG    1      -32.226  76.574  10.797  0.00  0.00    -0.491 OA
ATOM     27  C   LIG    1      -31.822  75.272  10.340  0.00  0.00    +0.277 C 
ENDBRANCH  21  26
BRANCH  20  28
ATOM     28  O   LIG    1      -32.870  79.475  10.665  0.00  0.00    -0.484 OA
BRANCH  28  29
ATOM     29  C   LIG    1      -33.455  80.379   9.708  0.00  0.00    +0.266 C 
BRANCH  29  33
ATOM     30  C   LIG    1      -34.905  84.108  11.263  0.00  0.00    +0.214 A 
ATOM     31  N   LIG    1      -33.592  83.834  11.428  0.00  0.00    -0.221 NA
ATOM     32  C   LIG    1      -33.148  82.634  10.939  0.00  0.00    +0.121 A 
ATOM     33  C   LIG    1      -33.944  81.709  10.265  0.00  0.00    +0.008 A 
ATOM     34  C   LIG    1      -35.276  82.089  10.052  0.00  0.00    +0.013 A 
ATOM     35  C   LIG    1      -35.780  83.265  10.608  0.00  0.00    +0.067 A 
BRANCH  30  37
ATOM     36  C   LIG    1      -36.085  86.073  10.807  0.00  0.00    +0.279 C 
ATOM     37  O   LIG    1      -35.466  85.257  11.793  0.00  0.00    -0.480 OA
ENDBRANCH  30  37
ENDBRANCH  29  33
ENDBRANCH  28  29
ENDBRANCH  20  28
ENDBRANCH   1  23
TORSDOF 9
ENDMDL
MODEL 7
REMARK VINA RESULT:      -5.2     18.113     21.747
REMARK  Name = pdb/CHEMBL3673486.pdb
REMARK                            x       y       z     vdW  Elec       q    Type
REMARK                         _______ _______ _______ _____ _____    ______ ____
ROOT
ATOM      1  C   LIG    1      -36.013  67.516  26.006  0.00  0.00    +0.161 C 
ENDROOT
BRANCH   1   2
ATOM      2  N   LIG    1      -36.013  69.012  26.060  0.00  0.00    -0.293 N 
ATOM      3  C   LIG    1      -37.030  69.739  25.524  0.00  0.00    +0.162 A 
ATOM      4  N   LIG    1      -38.196  69.299  25.003  0.00  0.00    -0.235 NA
ATOM      5  C   LIG    1      -39.010  70.335  24.612  0.00  0.00    +0.121 A 
ATOM      6  C   LIG    1      -38.743  71.721  24.656  0.00  0.00    +0.002 A 
ATOM      7  C   LIG    1      -37.484  72.074  25.166  0.00  0.00    +0.041 A 
ATOM      8  C   LIG    1      -36.628  71.048  25.624  0.00  0.00    +0.110 A 
ATOM      9  N   LIG    1      -35.416  71.170  26.202  0.00  0.00    -0.213 NA
ATOM     10  C   LIG    1      -35.120  69.938  26.531  0.00  0.00    +0.195 A 
BRANCH   6  11
ATOM     11  C   LIG    1      -39.724  72.760  24.212  0.00  0.00    -0.014 A 
ATOM     12  C   LIG    1      -40.899  72.427  23.511  0.00  0.00    +0.028 A 
ATOM     13  C   LIG    1      -41.788  73.422  23.119  0.00  0.00    +0.111 A 
ATOM     14  N   LIG    1      -41.601  74.730  23.362  0.00  0.00    -0.263 NA
ATOM     15  C   LIG    1      -40.479  75.054  24.028  0.00  0.00    +0.111 A 
ATOM     16  C   LIG    1      -39.536  74.127  24.462  0.00  0.00    +0.028 A 
ENDBRANCH   6  11
BRANCH  10  17
ATOM     17  N   LIG    1      -34.053  69.646  27.276  0.00  0.00    -0.329 N 
ATOM     18  H   LIG    1      -33.574  70.381  27.805  0.00  0.00    +0.145 HD
ATOM     19  H   LIG    1      -33.729  68.699  27.587  0.00  0.00    +0.145 HD
ENDBRANCH  10  17
ENDBRANCH   1   2
BRANCH   1  23
ATOM     20  C   LIG    1      -35.956  66.083  21.942  0.00  0.00    +0.162 A 
ATOM     21  C   LIG    1      -36.719  65.491  22.954  0.00  0.00    +0.162 A 
ATOM     22  C   LIG    1      -36.447  65.774  24.301  0.00  0.00    +0.054 A 
ATOM     23  C   LIG    1      -35.708  66.889  24.666  0.00  0.00    -0.024 A 
ATOM     24  C   LIG    1      -34.870  67.443  23.698  0.00  0.00    +0.009 A 
ATOM     25  C   LIG    1      -34.969  67.012  22.354  0.00  0.00    +0.050 A 
BRANCH  21  26
ATOM     26  O   LIG    1      -37.830  64.727  22.678  0.00  0.00    -0.491 OA
ATOM     27  C   LIG    1      -38.224  63.938  23.814  0.00  0.00    +0.277 C 
ENDBRANCH  21  26
BRANCH  20  28
ATOM     28  O   LIG    1      -36.120  65.957  20.578  0.00  0.00    -0.484 OA
BRANCH  28  29
ATOM     29  C   LIG    1      -36.700  67.028  19.809  0.00  0.00    +0.266 C 
BRANCH  29  33
ATOM     30  C   LIG    1      -40.592  68.359  21.035  0.00  0.00    +0.214 A 
ATOM     31  N   LIG    1      -40.505  67.142  20.456  0.00  0.00    -0.221 NA
ATOM     32  C   LIG    1      -39.259  66.737  20.057  0.00  0.00    +0.121 A 
ATOM     33  C   LIG    1      -38.090  67.476  20.238  0.00  0.00    +0.008 A 
ATOM     34  C   LIG    1      -38.235  68.692  20.920  0.00  0.00    +0.013 A 
ATOM     35  C   LIG    1      -39.499  69.170  21.264  0.00  0.00    +0.067 A 
BRANCH  30  37
ATOM     36  C   LIG    1      -42.083  70.141  20.773  0.00  0.00    +0.279 C 
ATOM     37  O   LIG    1      -41.818  68.891  21.397  0.00  0.00    -0.480 OA
ENDBRANCH  30  37
ENDBRANCH  29  33
ENDBRANCH  28  29
ENDBRANCH  20  28
ENDBRANCH   1  23
TORSDOF 9
ENDMDL
MODEL 8
REMARK VINA RESULT:      -5.2      5.858      9.427
REMARK  Name = pdb/CHEMBL3673486.pdb
REMARK                            x       y       z     vdW  Elec       q    Type
REMARK                         _______ _______ _______ _____ _____    ______ ____
ROOT
ATOM      1  C   LIG    1      -28.335  74.937  33.799  0.00  0.00    +0.161 C 
ENDROOT
BRANCH   1   2
ATOM      2  N   LIG    1      -27.787  75.894  32.785  0.00  0.00    -0.293 N 
ATOM      3  C   LIG    1      -26.454  75.958  32.521  0.00  0.00    +0.162 A 
ATOM      4  N   LIG    1      -25.466  75.161  32.979  0.00  0.00    -0.235 NA
ATOM      5  C   LIG    1      -24.244  75.494  32.445  0.00  0.00    +0.121 A 
ATOM      6  C   LIG    1      -23.937  76.550  31.559  0.00  0.00    +0.002 A 
ATOM      7  C   LIG    1      -25.023  77.354  31.183  0.00  0.00    +0.041 A 
ATOM      8  C   LIG    1      -26.308  77.025  31.669  0.00  0.00    +0.110 A 
ATOM      9  N   LIG    1      -27.484  77.621  31.385  0.00  0.00    -0.213 NA
ATOM     10  C   LIG    1      -28.356  76.860  31.998  0.00  0.00    +0.195 A 
BRANCH   6  11
ATOM     11  C   LIG    1      -22.559  76.803  31.031  0.00  0.00    -0.014 A 
ATOM     12  C   LIG    1      -21.553  77.392  31.820  0.00  0.00    +0.028 A 
ATOM     13  C   LIG    1      -20.284  77.607  31.293  0.00  0.00    +0.111 A 
ATOM     14  N   LIG    1      -19.932  77.288  30.036  0.00  0.00    -0.263 NA
ATOM     15  C   LIG    1      -20.891  76.728  29.277  0.00  0.00    +0.111 A 
ATOM     16  C   LIG    1      -22.184  76.473  29.721  0.00  0.00    +0.028 A 
ENDBRANCH   6  11
BRANCH  10  17
ATOM     17  N   LIG    1      -29.669  77.023  31.833  0.00  0.00    -0.329 N 
ATOM     18  H   LIG    1      -30.300  76.217  31.876  0.00  0.00    +0.145 HD
ATOM     19  H   LIG    1      -30.213  77.918  31.873  0.00  0.00    +0.145 HD
ENDBRANCH  10  17
ENDBRANCH   1   2
BRANCH   1  23
ATOM     20  C   LIG    1      -31.664  72.935  31.933  0.00  0.00    +0.162 A 
ATOM     21  C   LIG    1      -31.806  73.838  32.991  0.00  0.00    +0.162 A 
ATOM     22  C   LIG    1      -30.696  74.193  33.772  0.00  0.00    +0.054 A 
ATOM     23  C   LIG    1      -29.402  73.983  33.319  0.00  0.00    -0.024 A 
ATOM     24  C   LIG    1      -29.224  73.021  32.324  0.00  0.00    +0.009 A 
ATOM     25  C   LIG    1      -30.351  72.474  31.666  0.00  0.00    +0.050 A 
BRANCH  21  26
ATOM     26  O   LIG    1      -32.987  74.506  33.227  0.00  0.00    -0.491 OA
ATOM     27  C   LIG    1      -33.070  74.968  34.587  0.00  0.00    +0.277 C 
ENDBRANCH  21  26
BRANCH  20  28
ATOM     28  O   LIG    1      -32.631  72.521  31.041  0.00  0.00    -0.484 OA
BRANCH  28  29
ATOM     29  C   LIG    1      -32.459  72.731  29.626  0.00  0.00    +0.266 C 
BRANCH  29  33
ATOM     30  C   LIG    1      -32.540  76.811  28.297  0.00  0.00    +0.214 A 
ATOM     31  N   LIG    1      -31.490  76.424  29.053  0.00  0.00    -0.221 NA
ATOM     32  C   LIG    1      -31.486  75.123  29.481  0.00  0.00    +0.121 A 
ATOM     33  C   LIG    1      -32.463  74.181  29.164  0.00  0.00    +0.008 A 
ATOM     34  C   LIG    1      -33.481  74.622  28.307  0.00  0.00    +0.013 A 
ATOM     35  C   LIG    1      -33.560  75.960  27.922  0.00  0.00    +0.067 A 
BRANCH  30  37
ATOM     36  C   LIG    1      -32.320  78.314  26.520  0.00  0.00    +0.279 C 
ATOM     37  O   LIG    1      -32.675  78.125  27.884  0.00  0.00    -0.480 OA
ENDBRANCH  30  37
ENDBRANCH  29  33
ENDBRANCH  28  29
ENDBRANCH  20  28
ENDBRANCH   1  23
TORSDOF 9
ENDMDL
MODEL 9
REMARK VINA RESULT:      -5.1     18.236     21.318
REMARK  Name = pdb/CHEMBL3673486.pdb
REMARK                            x       y       z     vdW  Elec       q    Type
REMARK                         _______ _______ _______ _____ _____    ______ ____
ROOT
ATOM      1  C   LIG    1      -36.883  67.243  24.382  0.00  0.00    +0.161 C 
ENDROOT
BRANCH   1   2
ATOM      2  N   LIG    1      -36.634  68.673  24.752  0.00  0.00    -0.293 N 
ATOM      3  C   LIG    1      -37.548  69.643  24.479  0.00  0.00    +0.162 A 
ATOM      4  N   LIG    1      -38.797  69.509  23.987  0.00  0.00    -0.235 NA
ATOM      5  C   LIG    1      -39.451  70.715  23.901  0.00  0.00    +0.121 A 
ATOM      6  C   LIG    1      -38.958  72.000  24.213  0.00  0.00    +0.002 A 
ATOM      7  C   LIG    1      -37.631  72.040  24.668  0.00  0.00    +0.041 A 
ATOM      8  C   LIG    1      -36.931  70.823  24.817  0.00  0.00    +0.110 A 
ATOM      9  N   LIG    1      -35.683  70.631  25.293  0.00  0.00    -0.213 NA
ATOM     10  C   LIG    1      -35.576  69.327  25.325  0.00  0.00    +0.195 A 
BRANCH   6  11
ATOM     11  C   LIG    1      -39.779  73.245  24.092  0.00  0.00    -0.014 A 
ATOM     12  C   LIG    1      -41.065  73.240  23.520  0.00  0.00    +0.028 A 
ATOM     13  C   LIG    1      -41.798  74.419  23.429  0.00  0.00    +0.111 A 
ATOM     14  N   LIG    1      -41.352  75.611  23.857  0.00  0.00    -0.263 NA
ATOM     15  C   LIG    1      -40.123  75.623  24.401  0.00  0.00    +0.111 A 
ATOM     16  C   LIG    1      -39.320  74.494  24.537  0.00  0.00    +0.028 A 
ENDBRANCH   6  11
BRANCH  10  17
ATOM     17  N   LIG    1      -34.530  68.721  25.889  0.00  0.00    -0.329 N 
ATOM     18  H   LIG    1      -34.582  68.394  26.859  0.00  0.00    +0.145 HD
ATOM     19  H   LIG    1      -33.688  68.320  25.411  0.00  0.00    +0.145 HD
ENDBRANCH  10  17
ENDBRANCH   1   2
BRANCH   1  23
ATOM     20  C   LIG    1      -35.132  66.632  20.492  0.00  0.00    +0.162 A 
ATOM     21  C   LIG    1      -36.508  66.571  20.732  0.00  0.00    +0.162 A 
ATOM     22  C   LIG    1      -36.991  66.440  22.043  0.00  0.00    +0.054 A 
ATOM     23  C   LIG    1      -36.194  66.739  23.137  0.00  0.00    -0.024 A 
ATOM     24  C   LIG    1      -34.812  66.718  22.942  0.00  0.00    +0.009 A 
ATOM     25  C   LIG    1      -34.289  66.625  21.631  0.00  0.00    +0.050 A 
BRANCH  21  26
ATOM     26  O   LIG    1      -37.433  66.767  19.732  0.00  0.00    -0.491 OA
ATOM     27  C   LIG    1      -38.395  67.774  20.092  0.00  0.00    +0.277 C 
ENDBRANCH  21  26
BRANCH  20  28
ATOM     28  O   LIG    1      -34.494  66.812  19.283  0.00  0.00    -0.484 OA
BRANCH  28  29
ATOM     29  C   LIG    1      -33.357  66.002  18.928  0.00  0.00    +0.266 C 
BRANCH  29  33
ATOM     30  C   LIG    1      -29.655  68.139  18.536  0.00  0.00    +0.214 A 
ATOM     31  N   LIG    1      -29.618  66.940  19.159  0.00  0.00    -0.221 NA
ATOM     32  C   LIG    1      -30.810  66.278  19.288  0.00  0.00    +0.121 A 
ATOM     33  C   LIG    1      -32.031  66.738  18.798  0.00  0.00    +0.008 A 
ATOM     34  C   LIG    1      -31.988  67.946  18.089  0.00  0.00    +0.013 A 
ATOM     35  C   LIG    1      -30.808  68.686  18.011  0.00  0.00    +0.067 A 
BRANCH  30  37
ATOM     36  C   LIG    1      -28.532  70.037  19.310  0.00  0.00    +0.279 C 
ATOM     37  O   LIG    1      -28.519  68.922  18.428  0.00  0.00    -0.480 OA
ENDBRANCH  30  37
ENDBRANCH  29  33
ENDBRANCH  28  29
ENDBRANCH  20  28
ENDBRANCH   1  23
TORSDOF 9
ENDMDL
