MODEL 1
REMARK VINA RESULT:      -5.6      0.000      0.000
REMARK  Name = pdb/CHEMBL3675926.pdb
REMARK                            x       y       z     vdW  Elec       q    Type
REMARK                         _______ _______ _______ _____ _____    ______ ____
ROOT
ATOM      1  C   LIG    1      -23.692  79.480  34.732  0.00  0.00    +0.126 A 
ATOM      2  N   LIG    1      -23.850  79.020  33.510  0.00  0.00    -0.212 NA
ATOM      3  C   LIG    1      -24.934  78.216  33.266  0.00  0.00    +0.170 A 
ATOM      4  C   LIG    1      -25.270  77.446  32.167  0.00  0.00    +0.100 A 
ATOM      5  C   LIG    1      -26.448  76.778  32.560  0.00  0.00    +0.150 A 
ATOM      6  N   LIG    1      -26.858  77.108  33.785  0.00  0.00    -0.173 NA
ATOM      7  N   LIG    1      -25.901  77.952  34.235  0.00  0.00    -0.221 N 
ATOM      8  C   LIG    1      -25.786  78.492  35.502  0.00  0.00    +0.118 A 
ATOM      9  C   LIG    1      -24.728  79.247  35.812  0.00  0.00    +0.063 A 
ENDROOT
BRANCH   1  11
ATOM     10  C   LIG    1      -21.343  79.590  35.619  0.00  0.00    +0.105 C 
ATOM     11  N   LIG    1      -22.552  80.200  35.051  0.00  0.00    -0.308 N 
ATOM     12  C   LIG    1      -22.621  81.619  35.411  0.00  0.00    +0.107 C 
ATOM     13  C   LIG    1      -21.579  81.805  36.501  0.00  0.00    +0.021 C 
ATOM     14  C   LIG    1      -20.523  80.776  36.155  0.00  0.00    +0.029 C 
BRANCH  10  16
ATOM     15  C   LIG    1      -20.727  77.349  34.400  0.00  0.00    -0.017 A 
ATOM     16  C   LIG    1      -20.522  78.727  34.666  0.00  0.00    -0.019 A 
ATOM     17  C   LIG    1      -19.479  79.385  33.972  0.00  0.00    +0.044 A 
ATOM     18  C   LIG    1      -18.647  78.701  33.090  0.00  0.00    +0.124 A 
ATOM     19  F   LIG    1      -17.658  79.358  32.469  0.00  0.00    -0.205 F 
ATOM     20  C   LIG    1      -18.830  77.355  32.847  0.00  0.00    +0.039 A 
ATOM     21  C   LIG    1      -19.868  76.686  33.491  0.00  0.00    +0.009 A 
BRANCH  15  22
ATOM     22  C   LIG    1      -21.804  76.506  35.045  0.00  0.00    +0.191 C 
BRANCH  22  23
ATOM     23  O   LIG    1      -22.739  76.010  34.097  0.00  0.00    -0.390 OA
ATOM     24  H   LIG    1      -22.377  76.193  33.215  0.00  0.00    +0.210 HD
ENDBRANCH  22  23
ENDBRANCH  15  22
ENDBRANCH  10  16
ENDBRANCH   1  11
BRANCH   4  25
ATOM     25  C   LIG    1      -24.539  77.302  30.927  0.00  0.00    +0.249 C 
ATOM     26  N   LIG    1      -23.165  77.269  31.053  0.00  0.00    -0.308 N 
ATOM     27  H   LIG    1      -22.780  77.401  31.988  0.00  0.00    +0.149 HD
ATOM     28  O   LIG    1      -25.126  77.195  29.845  0.00  0.00    -0.270 OA
BRANCH  26  29
ATOM     29  C   LIG    1      -22.303  76.981  29.956  0.00  0.00    +0.073 C 
ATOM     30  C   LIG    1      -21.123  76.070  30.175  0.00  0.00    +0.024 C 
ATOM     31  C   LIG    1      -20.902  77.515  29.853  0.00  0.00    +0.024 C 
ENDBRANCH  26  29
ENDBRANCH   4  25
TORSDOF 6
ENDMDL
MODEL 2
REMARK VINA RESULT:      -5.4      2.314      5.223
REMARK  Name = pdb/CHEMBL3675926.pdb
REMARK                            x       y       z     vdW  Elec       q    Type
REMARK                         _______ _______ _______ _____ _____    ______ ____
ROOT
ATOM      1  C   LIG    1      -24.385  76.513  34.083  0.00  0.00    +0.126 A 
ATOM      2  N   LIG    1      -23.420  77.319  34.467  0.00  0.00    -0.212 NA
ATOM      3  C   LIG    1      -23.774  78.539  34.984  0.00  0.00    +0.170 A 
ATOM      4  C   LIG    1      -23.016  79.652  35.299  0.00  0.00    +0.100 A 
ATOM      5  C   LIG    1      -23.966  80.616  35.698  0.00  0.00    +0.150 A 
ATOM      6  N   LIG    1      -25.219  80.161  35.678  0.00  0.00    -0.173 NA
ATOM      7  N   LIG    1      -25.104  78.903  35.193  0.00  0.00    -0.221 N 
ATOM      8  C   LIG    1      -26.126  78.033  34.863  0.00  0.00    +0.118 A 
ATOM      9  C   LIG    1      -25.843  76.848  34.314  0.00  0.00    +0.063 A 
ENDROOT
BRANCH   1  11
ATOM     10  C   LIG    1      -24.046  75.164  31.989  0.00  0.00    +0.105 C 
ATOM     11  N   LIG    1      -24.071  75.321  33.449  0.00  0.00    -0.308 N 
ATOM     12  C   LIG    1      -24.309  74.028  34.094  0.00  0.00    +0.107 C 
ATOM     13  C   LIG    1      -24.760  73.102  32.978  0.00  0.00    +0.021 C 
ATOM     14  C   LIG    1      -24.038  73.643  31.761  0.00  0.00    +0.029 C 
BRANCH  10  16
ATOM     15  C   LIG    1      -22.948  77.082  30.575  0.00  0.00    -0.017 A 
ATOM     16  C   LIG    1      -22.889  75.845  31.265  0.00  0.00    -0.019 A 
ATOM     17  C   LIG    1      -21.641  75.178  31.320  0.00  0.00    +0.044 A 
ATOM     18  C   LIG    1      -20.515  75.689  30.683  0.00  0.00    +0.124 A 
ATOM     19  F   LIG    1      -19.358  75.015  30.742  0.00  0.00    -0.205 F 
ATOM     20  C   LIG    1      -20.575  76.882  29.990  0.00  0.00    +0.039 A 
ATOM     21  C   LIG    1      -21.781  77.577  29.944  0.00  0.00    +0.009 A 
BRANCH  15  22
ATOM     22  C   LIG    1      -24.196  77.924  30.436  0.00  0.00    +0.191 C 
BRANCH  22  23
ATOM     23  O   LIG    1      -25.168  77.311  29.600  0.00  0.00    -0.390 OA
ATOM     24  H   LIG    1      -24.703  76.663  29.047  0.00  0.00    +0.210 HD
ENDBRANCH  22  23
ENDBRANCH  15  22
ENDBRANCH  10  16
ENDBRANCH   1  11
BRANCH   4  25
ATOM     25  C   LIG    1      -21.584  79.816  35.174  0.00  0.00    +0.249 C 
ATOM     26  N   LIG    1      -20.945  78.852  34.422  0.00  0.00    -0.308 N 
ATOM     27  H   LIG    1      -21.515  78.085  34.066  0.00  0.00    +0.149 HD
ATOM     28  O   LIG    1      -21.000  80.772  35.695  0.00  0.00    -0.270 OA
BRANCH  26  29
ATOM     29  C   LIG    1      -19.566  78.944  34.073  0.00  0.00    +0.073 C 
ATOM     30  C   LIG    1      -19.180  78.933  32.617  0.00  0.00    +0.024 C 
ATOM     31  C   LIG    1      -18.787  77.792  33.503  0.00  0.00    +0.024 C 
ENDBRANCH  26  29
ENDBRANCH   4  25
TORSDOF 6
ENDMDL
MODEL 3
REMARK VINA RESULT:      -5.3     18.427     21.229
REMARK  Name = pdb/CHEMBL3675926.pdb
REMARK                            x       y       z     vdW  Elec       q    Type
REMARK                         _______ _______ _______ _____ _____    ______ ____
ROOT
ATOM      1  C   LIG    1      -22.675  85.308  12.457  0.00  0.00    +0.126 A 
ATOM      2  N   LIG    1      -22.978  84.149  12.999  0.00  0.00    -0.212 NA
ATOM      3  C   LIG    1      -23.687  83.255  12.240  0.00  0.00    +0.170 A 
ATOM      4  C   LIG    1      -24.302  82.061  12.573  0.00  0.00    +0.100 A 
ATOM      5  C   LIG    1      -24.946  81.660  11.383  0.00  0.00    +0.150 A 
ATOM      6  N   LIG    1      -24.741  82.497  10.365  0.00  0.00    -0.173 NA
ATOM      7  N   LIG    1      -24.010  83.499  10.906  0.00  0.00    -0.221 N 
ATOM      8  C   LIG    1      -23.631  84.682  10.301  0.00  0.00    +0.118 A 
ATOM      9  C   LIG    1      -22.977  85.611  11.004  0.00  0.00    +0.063 A 
ENDROOT
BRANCH   1  11
ATOM     10  C   LIG    1      -21.029  85.995  14.227  0.00  0.00    +0.105 C 
ATOM     11  N   LIG    1      -22.061  86.285  13.224  0.00  0.00    -0.308 N 
ATOM     12  C   LIG    1      -22.741  87.542  13.546  0.00  0.00    +0.107 C 
ATOM     13  C   LIG    1      -22.322  87.870  14.968  0.00  0.00    +0.021 C 
ATOM     14  C   LIG    1      -20.931  87.279  15.069  0.00  0.00    +0.029 C 
BRANCH  10  16
ATOM     15  C   LIG    1      -19.145  84.262  13.647  0.00  0.00    -0.017 A 
ATOM     16  C   LIG    1      -19.666  85.580  13.679  0.00  0.00    -0.019 A 
ATOM     17  C   LIG    1      -18.872  86.617  13.134  0.00  0.00    +0.044 A 
ATOM     18  C   LIG    1      -17.602  86.368  12.621  0.00  0.00    +0.124 A 
ATOM     19  F   LIG    1      -16.875  87.382  12.134  0.00  0.00    -0.205 F 
ATOM     20  C   LIG    1      -17.084  85.089  12.610  0.00  0.00    +0.039 A 
ATOM     21  C   LIG    1      -17.854  84.043  13.111  0.00  0.00    +0.009 A 
BRANCH  15  22
ATOM     22  C   LIG    1      -19.871  83.044  14.173  0.00  0.00    +0.191 C 
BRANCH  22  23
ATOM     23  O   LIG    1      -18.989  82.119  14.794  0.00  0.00    -0.390 OA
ATOM     24  H   LIG    1      -18.396  81.781  14.104  0.00  0.00    +0.210 HD
ENDBRANCH  22  23
ENDBRANCH  15  22
ENDBRANCH  10  16
ENDBRANCH   1  11
BRANCH   4  25
ATOM     25  C   LIG    1      -24.339  81.410  13.864  0.00  0.00    +0.249 C 
ATOM     26  N   LIG    1      -23.148  81.418  14.562  0.00  0.00    -0.308 N 
ATOM     27  H   LIG    1      -22.338  81.827  14.096  0.00  0.00    +0.149 HD
ATOM     28  O   LIG    1      -25.380  80.909  14.301  0.00  0.00    -0.270 OA
BRANCH  26  29
ATOM     29  C   LIG    1      -23.046  80.958  15.907  0.00  0.00    +0.073 C 
ATOM     30  C   LIG    1      -22.441  81.867  16.944  0.00  0.00    +0.024 C 
ATOM     31  C   LIG    1      -21.737  80.604  16.554  0.00  0.00    +0.024 C 
ENDBRANCH  26  29
ENDBRANCH   4  25
TORSDOF 6
ENDMDL
MODEL 4
REMARK VINA RESULT:      -4.9     13.107     16.433
REMARK  Name = pdb/CHEMBL3675926.pdb
REMARK                            x       y       z     vdW  Elec       q    Type
REMARK                         _______ _______ _______ _____ _____    ______ ____
ROOT
ATOM      1  C   LIG    1      -36.944  75.502  26.749  0.00  0.00    +0.126 A 
ATOM      2  N   LIG    1      -37.528  74.614  25.974  0.00  0.00    -0.212 NA
ATOM      3  C   LIG    1      -38.573  75.038  25.194  0.00  0.00    +0.170 A 
ATOM      4  C   LIG    1      -39.487  74.332  24.432  0.00  0.00    +0.100 A 
ATOM      5  C   LIG    1      -40.368  75.321  23.946  0.00  0.00    +0.150 A 
ATOM      6  N   LIG    1      -40.038  76.555  24.328  0.00  0.00    -0.173 NA
ATOM      7  N   LIG    1      -38.966  76.374  25.133  0.00  0.00    -0.221 N 
ATOM      8  C   LIG    1      -38.310  77.330  25.886  0.00  0.00    +0.118 A 
ATOM      9  C   LIG    1      -37.313  76.970  26.699  0.00  0.00    +0.063 A 
ENDROOT
BRANCH   1  11
ATOM     10  C   LIG    1      -34.588  75.613  27.618  0.00  0.00    +0.105 C 
ATOM     11  N   LIG    1      -35.962  75.095  27.638  0.00  0.00    -0.308 N 
ATOM     12  C   LIG    1      -35.993  73.767  28.255  0.00  0.00    +0.107 C 
ATOM     13  C   LIG    1      -34.541  73.326  28.327  0.00  0.00    +0.021 C 
ATOM     14  C   LIG    1      -33.786  74.630  28.488  0.00  0.00    +0.029 C 
BRANCH  10  16
ATOM     15  C   LIG    1      -33.500  78.001  27.566  0.00  0.00    -0.017 A 
ATOM     16  C   LIG    1      -34.412  77.053  28.093  0.00  0.00    -0.019 A 
ATOM     17  C   LIG    1      -35.265  77.471  29.142  0.00  0.00    +0.044 A 
ATOM     18  C   LIG    1      -35.189  78.754  29.675  0.00  0.00    +0.124 A 
ATOM     19  F   LIG    1      -36.001  79.102  30.682  0.00  0.00    -0.205 F 
ATOM     20  C   LIG    1      -34.285  79.672  29.179  0.00  0.00    +0.039 A 
ATOM     21  C   LIG    1      -33.453  79.300  28.126  0.00  0.00    +0.009 A 
BRANCH  15  22
ATOM     22  C   LIG    1      -32.532  77.720  26.438  0.00  0.00    +0.191 C 
BRANCH  22  23
ATOM     23  O   LIG    1      -32.285  78.870  25.642  0.00  0.00    -0.390 OA
ATOM     24  H   LIG    1      -33.095  79.051  25.140  0.00  0.00    +0.210 HD
ENDBRANCH  22  23
ENDBRANCH  15  22
ENDBRANCH  10  16
ENDBRANCH   1  11
BRANCH   4  25
ATOM     25  C   LIG    1      -39.567  72.901  24.240  0.00  0.00    +0.249 C 
ATOM     26  N   LIG    1      -38.409  72.204  24.521  0.00  0.00    -0.308 N 
ATOM     27  H   LIG    1      -37.589  72.750  24.785  0.00  0.00    +0.149 HD
ATOM     28  O   LIG    1      -40.614  72.360  23.870  0.00  0.00    -0.270 OA
BRANCH  26  29
ATOM     29  C   LIG    1      -38.357  70.779  24.531  0.00  0.00    +0.073 C 
ATOM     30  C   LIG    1      -37.024  70.101  24.712  0.00  0.00    +0.024 C 
ATOM     31  C   LIG    1      -37.758  69.975  23.412  0.00  0.00    +0.024 C 
ENDBRANCH  26  29
ENDBRANCH   4  25
TORSDOF 6
ENDMDL
MODEL 5
REMARK VINA RESULT:      -4.9     17.160     20.844
REMARK  Name = pdb/CHEMBL3675926.pdb
REMARK                            x       y       z     vdW  Elec       q    Type
REMARK                         _______ _______ _______ _____ _____    ______ ____
ROOT
ATOM      1  C   LIG    1      -39.413  69.194  23.060  0.00  0.00    +0.126 A 
ATOM      2  N   LIG    1      -38.178  68.845  23.344  0.00  0.00    -0.212 NA
ATOM      3  C   LIG    1      -37.395  68.376  22.320  0.00  0.00    +0.170 A 
ATOM      4  C   LIG    1      -36.150  67.773  22.325  0.00  0.00    +0.100 A 
ATOM      5  C   LIG    1      -35.925  67.435  20.974  0.00  0.00    +0.150 A 
ATOM      6  N   LIG    1      -36.913  67.814  20.163  0.00  0.00    -0.173 NA
ATOM      7  N   LIG    1      -37.836  68.346  20.998  0.00  0.00    -0.221 N 
ATOM      8  C   LIG    1      -39.108  68.782  20.675  0.00  0.00    +0.118 A 
ATOM      9  C   LIG    1      -39.931  69.207  21.637  0.00  0.00    +0.063 A 
ENDROOT
BRANCH   1  11
ATOM     10  C   LIG    1      -39.863  70.386  25.226  0.00  0.00    +0.105 C 
ATOM     11  N   LIG    1      -40.273  69.563  24.082  0.00  0.00    -0.308 N 
ATOM     12  C   LIG    1      -41.431  68.739  24.440  0.00  0.00    +0.107 C 
ATOM     13  C   LIG    1      -41.535  68.833  25.952  0.00  0.00    +0.021 C 
ATOM     14  C   LIG    1      -40.992  70.214  26.257  0.00  0.00    +0.029 C 
BRANCH  10  16
ATOM     15  C   LIG    1      -38.359  72.532  25.064  0.00  0.00    -0.017 A 
ATOM     16  C   LIG    1      -39.600  71.859  24.926  0.00  0.00    -0.019 A 
ATOM     17  C   LIG    1      -40.703  72.602  24.441  0.00  0.00    +0.044 A 
ATOM     18  C   LIG    1      -40.594  73.959  24.149  0.00  0.00    +0.124 A 
ATOM     19  F   LIG    1      -41.668  74.630  23.711  0.00  0.00    -0.205 F 
ATOM     20  C   LIG    1      -39.393  74.621  24.305  0.00  0.00    +0.039 A 
ATOM     21  C   LIG    1      -38.282  73.910  24.751  0.00  0.00    +0.009 A 
BRANCH  15  22
ATOM     22  C   LIG    1      -37.086  71.880  25.554  0.00  0.00    +0.191 C 
BRANCH  22  23
ATOM     23  O   LIG    1      -36.345  71.285  24.498  0.00  0.00    -0.390 OA
ATOM     24  H   LIG    1      -36.731  70.409  24.336  0.00  0.00    +0.210 HD
ENDBRANCH  22  23
ENDBRANCH  15  22
ENDBRANCH  10  16
ENDBRANCH   1  11
BRANCH   4  25
ATOM     25  C   LIG    1      -35.307  67.486  23.464  0.00  0.00    +0.249 C 
ATOM     26  N   LIG    1      -35.192  68.509  24.384  0.00  0.00    -0.308 N 
ATOM     27  H   LIG    1      -35.659  69.388  24.164  0.00  0.00    +0.149 HD
ATOM     28  O   LIG    1      -34.755  66.389  23.595  0.00  0.00    -0.270 OA
BRANCH  26  29
ATOM     29  C   LIG    1      -34.526  68.343  25.633  0.00  0.00    +0.073 C 
ATOM     30  C   LIG    1      -35.090  69.020  26.855  0.00  0.00    +0.024 C 
ATOM     31  C   LIG    1      -33.764  69.449  26.308  0.00  0.00    +0.024 C 
ENDBRANCH  26  29
ENDBRANCH   4  25
TORSDOF 6
ENDMDL
MODEL 6
REMARK VINA RESULT:      -4.8      2.623      6.670
REMARK  Name = pdb/CHEMBL3675926.pdb
REMARK                            x       y       z     vdW  Elec       q    Type
REMARK                         _______ _______ _______ _____ _____    ______ ____
ROOT
ATOM      1  C   LIG    1      -20.406  78.124  32.701  0.00  0.00    +0.126 A 
ATOM      2  N   LIG    1      -20.957  79.050  33.454  0.00  0.00    -0.212 NA
ATOM      3  C   LIG    1      -20.295  79.421  34.596  0.00  0.00    +0.170 A 
ATOM      4  C   LIG    1      -20.687  80.210  35.663  0.00  0.00    +0.100 A 
ATOM      5  C   LIG    1      -19.603  80.136  36.564  0.00  0.00    +0.150 A 
ATOM      6  N   LIG    1      -18.590  79.398  36.110  0.00  0.00    -0.173 NA
ATOM      7  N   LIG    1      -19.036  78.920  34.925  0.00  0.00    -0.221 N 
ATOM      8  C   LIG    1      -18.412  78.002  34.101  0.00  0.00    +0.118 A 
ATOM      9  C   LIG    1      -19.029  77.569  32.998  0.00  0.00    +0.063 A 
ENDROOT
BRANCH   1  11
ATOM     10  C   LIG    1      -21.936  76.433  31.643  0.00  0.00    +0.105 C 
ATOM     11  N   LIG    1      -21.094  77.635  31.601  0.00  0.00    -0.308 N 
ATOM     12  C   LIG    1      -20.620  77.875  30.236  0.00  0.00    +0.107 C 
ATOM     13  C   LIG    1      -20.926  76.595  29.477  0.00  0.00    +0.021 C 
ATOM     14  C   LIG    1      -22.167  76.066  30.167  0.00  0.00    +0.029 C 
BRANCH  10  16
ATOM     15  C   LIG    1      -24.387  77.310  31.976  0.00  0.00    -0.017 A 
ATOM     16  C   LIG    1      -23.255  76.569  32.399  0.00  0.00    -0.019 A 
ATOM     17  C   LIG    1      -23.347  75.863  33.623  0.00  0.00    +0.044 A 
ATOM     18  C   LIG    1      -24.490  75.923  34.413  0.00  0.00    +0.124 A 
ATOM     19  F   LIG    1      -24.527  75.257  35.575  0.00  0.00    -0.205 F 
ATOM     20  C   LIG    1      -25.586  76.663  34.015  0.00  0.00    +0.039 A 
ATOM     21  C   LIG    1      -25.537  77.343  32.801  0.00  0.00    +0.009 A 
BRANCH  15  22
ATOM     22  C   LIG    1      -24.457  78.105  30.692  0.00  0.00    +0.191 C 
BRANCH  22  23
ATOM     23  O   LIG    1      -25.267  77.472  29.711  0.00  0.00    -0.390 OA
ATOM     24  H   LIG    1      -24.979  76.547  29.655  0.00  0.00    +0.210 HD
ENDBRANCH  22  23
ENDBRANCH  15  22
ENDBRANCH  10  16
ENDBRANCH   1  11
BRANCH   4  25
ATOM     25  C   LIG    1      -21.949  80.892  35.847  0.00  0.00    +0.249 C 
ATOM     26  N   LIG    1      -23.072  80.104  35.695  0.00  0.00    -0.308 N 
ATOM     27  H   LIG    1      -22.926  79.134  35.417  0.00  0.00    +0.149 HD
ATOM     28  O   LIG    1      -21.993  82.091  36.140  0.00  0.00    -0.270 OA
BRANCH  26  29
ATOM     29  C   LIG    1      -24.384  80.577  35.989  0.00  0.00    +0.073 C 
ATOM     30  C   LIG    1      -24.967  80.310  37.352  0.00  0.00    +0.024 C 
ATOM     31  C   LIG    1      -25.568  79.665  36.141  0.00  0.00    +0.024 C 
ENDBRANCH  26  29
ENDBRANCH   4  25
TORSDOF 6
ENDMDL
MODEL 7
REMARK VINA RESULT:      -4.8     11.307     14.633
REMARK  Name = pdb/CHEMBL3675926.pdb
REMARK                            x       y       z     vdW  Elec       q    Type
REMARK                         _______ _______ _______ _____ _____    ______ ____
ROOT
ATOM      1  C   LIG    1      -34.822  74.518  28.640  0.00  0.00    +0.126 A 
ATOM      2  N   LIG    1      -35.673  75.383  28.133  0.00  0.00    -0.212 NA
ATOM      3  C   LIG    1      -36.660  74.902  27.313  0.00  0.00    +0.170 A 
ATOM      4  C   LIG    1      -37.570  75.554  26.500  0.00  0.00    +0.100 A 
ATOM      5  C   LIG    1      -38.253  74.512  25.839  0.00  0.00    +0.150 A 
ATOM      6  N   LIG    1      -37.849  73.297  26.213  0.00  0.00    -0.173 NA
ATOM      7  N   LIG    1      -36.838  73.539  27.079  0.00  0.00    -0.221 N 
ATOM      8  C   LIG    1      -35.997  72.614  27.668  0.00  0.00    +0.118 A 
ATOM      9  C   LIG    1      -34.989  73.026  28.441  0.00  0.00    +0.063 A 
ENDROOT
BRANCH   1  11
ATOM     10  C   LIG    1      -32.783  75.967  28.883  0.00  0.00    +0.105 C 
ATOM     11  N   LIG    1      -33.742  74.972  29.380  0.00  0.00    -0.308 N 
ATOM     12  C   LIG    1      -33.118  74.139  30.411  0.00  0.00    +0.107 C 
ATOM     13  C   LIG    1      -31.631  74.431  30.315  0.00  0.00    +0.021 C 
ATOM     14  C   LIG    1      -31.586  75.870  29.845  0.00  0.00    +0.029 C 
BRANCH  10  16
ATOM     15  C   LIG    1      -33.092  78.286  27.693  0.00  0.00    -0.017 A 
ATOM     16  C   LIG    1      -33.303  77.398  28.778  0.00  0.00    -0.019 A 
ATOM     17  C   LIG    1      -34.087  77.856  29.863  0.00  0.00    +0.044 A 
ATOM     18  C   LIG    1      -34.603  79.148  29.894  0.00  0.00    +0.124 A 
ATOM     19  F   LIG    1      -35.323  79.549  30.950  0.00  0.00    -0.205 F 
ATOM     20  C   LIG    1      -34.379  80.023  28.849  0.00  0.00    +0.039 A 
ATOM     21  C   LIG    1      -33.636  79.591  27.753  0.00  0.00    +0.009 A 
BRANCH  15  22
ATOM     22  C   LIG    1      -32.291  77.947  26.456  0.00  0.00    +0.191 C 
BRANCH  22  23
ATOM     23  O   LIG    1      -32.306  78.999  25.501  0.00  0.00    -0.390 OA
ATOM     24  H   LIG    1      -31.388  79.293  25.385  0.00  0.00    +0.210 HD
ENDBRANCH  22  23
ENDBRANCH  15  22
ENDBRANCH  10  16
ENDBRANCH   1  11
BRANCH   4  25
ATOM     25  C   LIG    1      -37.732  76.979  26.313  0.00  0.00    +0.249 C 
ATOM     26  N   LIG    1      -37.625  77.740  27.460  0.00  0.00    -0.308 N 
ATOM     27  H   LIG    1      -37.496  77.240  28.340  0.00  0.00    +0.149 HD
ATOM     28  O   LIG    1      -37.931  77.462  25.193  0.00  0.00    -0.270 OA
BRANCH  26  29
ATOM     29  C   LIG    1      -37.608  79.164  27.435  0.00  0.00    +0.073 C 
ATOM     30  C   LIG    1      -38.084  79.920  28.648  0.00  0.00    +0.024 C 
ATOM     31  C   LIG    1      -38.858  79.997  27.369  0.00  0.00    +0.024 C 
ENDBRANCH  26  29
ENDBRANCH   4  25
TORSDOF 6
ENDMDL
MODEL 8
REMARK VINA RESULT:      -4.7     18.376     20.461
REMARK  Name = pdb/CHEMBL3675926.pdb
REMARK                            x       y       z     vdW  Elec       q    Type
REMARK                         _______ _______ _______ _____ _____    ______ ____
ROOT
ATOM      1  C   LIG    1      -20.074  83.028  13.599  0.00  0.00    +0.126 A 
ATOM      2  N   LIG    1      -21.279  82.930  13.083  0.00  0.00    -0.212 NA
ATOM      3  C   LIG    1      -21.918  84.091  12.729  0.00  0.00    +0.170 A 
ATOM      4  C   LIG    1      -23.224  84.333  12.344  0.00  0.00    +0.100 A 
ATOM      5  C   LIG    1      -23.291  85.735  12.208  0.00  0.00    +0.150 A 
ATOM      6  N   LIG    1      -22.129  86.344  12.449  0.00  0.00    -0.173 NA
ATOM      7  N   LIG    1      -21.302  85.338  12.817  0.00  0.00    -0.221 N 
ATOM      8  C   LIG    1      -20.006  85.446  13.287  0.00  0.00    +0.118 A 
ATOM      9  C   LIG    1      -19.350  84.354  13.689  0.00  0.00    +0.063 A 
ENDROOT
BRANCH   1  11
ATOM     10  C   LIG    1      -19.724  81.297  15.388  0.00  0.00    +0.105 C 
ATOM     11  N   LIG    1      -19.439  81.892  14.077  0.00  0.00    -0.308 N 
ATOM     12  C   LIG    1      -18.087  81.533  13.641  0.00  0.00    +0.107 C 
ATOM     13  C   LIG    1      -17.409  80.960  14.874  0.00  0.00    +0.021 C 
ATOM     14  C   LIG    1      -18.554  80.332  15.643  0.00  0.00    +0.029 C 
BRANCH  10  16
ATOM     15  C   LIG    1      -22.267  81.161  16.024  0.00  0.00    -0.017 A 
ATOM     16  C   LIG    1      -21.071  80.591  15.521  0.00  0.00    -0.019 A 
ATOM     17  C   LIG    1      -21.117  79.250  15.071  0.00  0.00    +0.044 A 
ATOM     18  C   LIG    1      -22.281  78.493  15.157  0.00  0.00    +0.124 A 
ATOM     19  F   LIG    1      -22.276  77.220  14.739  0.00  0.00    -0.205 F 
ATOM     20  C   LIG    1      -23.442  79.039  15.668  0.00  0.00    +0.039 A 
ATOM     21  C   LIG    1      -23.436  80.366  16.089  0.00  0.00    +0.009 A 
BRANCH  15  22
ATOM     22  C   LIG    1      -22.390  82.581  16.529  0.00  0.00    +0.191 C 
BRANCH  22  23
ATOM     23  O   LIG    1      -23.152  83.400  15.653  0.00  0.00    -0.390 OA
ATOM     24  H   LIG    1      -23.246  82.915  14.817  0.00  0.00    +0.210 HD
ENDBRANCH  22  23
ENDBRANCH  15  22
ENDBRANCH  10  16
ENDBRANCH   1  11
BRANCH   4  25
ATOM     25  C   LIG    1      -24.297  83.374  12.188  0.00  0.00    +0.249 C 
ATOM     26  N   LIG    1      -24.075  82.143  12.771  0.00  0.00    -0.308 N 
ATOM     27  H   LIG    1      -23.166  81.992  13.209  0.00  0.00    +0.149 HD
ATOM     28  O   LIG    1      -25.337  83.667  11.591  0.00  0.00    -0.270 OA
BRANCH  26  29
ATOM     29  C   LIG    1      -25.083  81.138  12.843  0.00  0.00    +0.073 C 
ATOM     30  C   LIG    1      -24.720  79.717  12.500  0.00  0.00    +0.024 C 
ATOM     31  C   LIG    1      -25.670  80.478  11.628  0.00  0.00    +0.024 C 
ENDBRANCH  26  29
ENDBRANCH   4  25
TORSDOF 6
ENDMDL
MODEL 9
REMARK VINA RESULT:      -4.7     14.283     18.164
REMARK  Name = pdb/CHEMBL3675926.pdb
REMARK                            x       y       z     vdW  Elec       q    Type
REMARK                         _______ _______ _______ _____ _____    ______ ____
ROOT
ATOM      1  C   LIG    1      -39.021  77.004  26.952  0.00  0.00    +0.126 A 
ATOM      2  N   LIG    1      -37.789  77.323  27.283  0.00  0.00    -0.212 NA
ATOM      3  C   LIG    1      -37.328  76.904  28.505  0.00  0.00    +0.170 A 
ATOM      4  C   LIG    1      -36.178  77.223  29.205  0.00  0.00    +0.100 A 
ATOM      5  C   LIG    1      -36.323  76.547  30.435  0.00  0.00    +0.150 A 
ATOM      6  N   LIG    1      -37.445  75.829  30.513  0.00  0.00    -0.173 NA
ATOM      7  N   LIG    1      -38.082  76.089  29.348  0.00  0.00    -0.221 N 
ATOM      8  C   LIG    1      -39.351  75.684  28.977  0.00  0.00    +0.118 A 
ATOM      9  C   LIG    1      -39.871  76.098  27.818  0.00  0.00    +0.063 A 
ENDROOT
BRANCH   1  11
ATOM     10  C   LIG    1      -39.279  76.946  24.452  0.00  0.00    +0.105 C 
ATOM     11  N   LIG    1      -39.566  77.504  25.780  0.00  0.00    -0.308 N 
ATOM     12  C   LIG    1      -39.970  78.907  25.663  0.00  0.00    +0.107 C 
ATOM     13  C   LIG    1      -39.611  79.308  24.242  0.00  0.00    +0.021 C 
ATOM     14  C   LIG    1      -39.767  78.018  23.464  0.00  0.00    +0.029 C 
BRANCH  10  16
ATOM     15  C   LIG    1      -39.317  74.321  24.425  0.00  0.00    -0.017 A 
ATOM     16  C   LIG    1      -39.901  75.584  24.153  0.00  0.00    -0.019 A 
ATOM     17  C   LIG    1      -41.192  75.604  23.573  0.00  0.00    +0.044 A 
ATOM     18  C   LIG    1      -41.856  74.428  23.236  0.00  0.00    +0.124 A 
ATOM     19  F   LIG    1      -43.068  74.492  22.669  0.00  0.00    -0.205 F 
ATOM     20  C   LIG    1      -41.279  73.197  23.479  0.00  0.00    +0.039 A 
ATOM     21  C   LIG    1      -40.023  73.145  24.077  0.00  0.00    +0.009 A 
BRANCH  15  22
ATOM     22  C   LIG    1      -37.955  74.128  25.054  0.00  0.00    +0.191 C 
BRANCH  22  23
ATOM     23  O   LIG    1      -37.444  72.820  24.837  0.00  0.00    -0.390 OA
ATOM     24  H   LIG    1      -38.175  72.198  24.986  0.00  0.00    +0.210 HD
ENDBRANCH  22  23
ENDBRANCH  15  22
ENDBRANCH  10  16
ENDBRANCH   1  11
BRANCH   4  25
ATOM     25  C   LIG    1      -35.108  78.107  28.800  0.00  0.00    +0.249 C 
ATOM     26  N   LIG    1      -34.460  77.752  27.634  0.00  0.00    -0.308 N 
ATOM     27  H   LIG    1      -34.747  76.880  27.189  0.00  0.00    +0.149 HD
ATOM     28  O   LIG    1      -34.826  79.115  29.455  0.00  0.00    -0.270 OA
BRANCH  26  29
ATOM     29  C   LIG    1      -33.488  78.589  27.013  0.00  0.00    +0.073 C 
ATOM     30  C   LIG    1      -32.291  77.952  26.356  0.00  0.00    +0.024 C 
ATOM     31  C   LIG    1      -32.111  78.801  27.576  0.00  0.00    +0.024 C 
ENDBRANCH  26  29
ENDBRANCH   4  25
TORSDOF 6
ENDMDL
