MODEL 1
REMARK VINA RESULT:      -5.7      0.000      0.000
REMARK  Name = pdb/CHEMBL2151319.pdb
REMARK                            x       y       z     vdW  Elec       q    Type
REMARK                         _______ _______ _______ _____ _____    ______ ____
ROOT
ATOM      1  C   LIG    1      -25.480  78.609  35.374  0.00  0.00    +0.122 A 
ATOM      2  N   LIG    1      -25.126  78.245  34.123  0.00  0.00    -0.213 NA
ATOM      3  C   LIG    1      -26.075  77.540  33.458  0.00  0.00    +0.168 A 
ATOM      4  N   LIG    1      -26.038  77.046  32.165  0.00  0.00    -0.266 N 
ATOM      5  C   LIG    1      -27.246  76.405  31.965  0.00  0.00    +0.207 A 
ATOM      6  N   LIG    1      -28.044  76.466  33.010  0.00  0.00    -0.234 NA
ATOM      7  C   LIG    1      -27.330  77.176  33.935  0.00  0.00    +0.108 A 
ATOM      8  C   LIG    1      -27.681  77.577  35.223  0.00  0.00    +0.035 A 
ATOM      9  C   LIG    1      -26.730  78.311  35.934  0.00  0.00    +0.046 A 
ENDROOT
BRANCH   4  10
ATOM     10  C   LIG    1      -25.001  77.173  31.202  0.00  0.00    +0.162 A 
ATOM     11  N   LIG    1      -25.124  78.077  30.220  0.00  0.00    -0.155 NA
ATOM     12  N   LIG    1      -23.974  77.945  29.532  0.00  0.00    -0.279 N 
ATOM     13  H   LIG    1      -23.823  78.537  28.721  0.00  0.00    +0.189 HD
ATOM     14  C   LIG    1      -23.147  76.984  30.039  0.00  0.00    +0.041 A 
ATOM     15  C   LIG    1      -23.792  76.457  31.137  0.00  0.00    +0.071 A 
BRANCH  14  16
ATOM     16  C   LIG    1      -21.797  76.599  29.475  0.00  0.00    +0.037 C 
ATOM     17  C   LIG    1      -20.751  76.062  30.427  0.00  0.00    +0.010 C 
ATOM     18  C   LIG    1      -20.580  77.422  29.846  0.00  0.00    +0.010 C 
ENDBRANCH  14  16
ENDBRANCH   4  10
BRANCH   1  19
ATOM     19  N   LIG    1      -24.625  79.386  36.172  0.00  0.00    -0.319 N 
ATOM     20  H   LIG    1      -24.044  78.757  36.728  0.00  0.00    +0.148 HD
BRANCH  19  22
ATOM     21  C   LIG    1      -24.002  81.708  36.247  0.00  0.00    +0.036 C 
ATOM     22  C   LIG    1      -23.761  80.382  35.511  0.00  0.00    +0.136 C 
BRANCH  22  23
ATOM     23  C   LIG    1      -22.265  80.044  35.607  0.00  0.00    +0.149 A 
ATOM     24  N   LIG    1      -21.539  80.592  36.615  0.00  0.00    -0.236 NA
ATOM     25  C   LIG    1      -20.208  80.349  36.600  0.00  0.00    +0.152 A 
ATOM     26  C   LIG    1      -19.579  79.632  35.612  0.00  0.00    +0.159 A 
ATOM     27  F   LIG    1      -18.256  79.445  35.604  0.00  0.00    -0.202 F 
ATOM     28  C   LIG    1      -20.388  79.131  34.625  0.00  0.00    +0.152 A 
ATOM     29  N   LIG    1      -21.727  79.310  34.600  0.00  0.00    -0.236 NA
ENDBRANCH  22  23
ENDBRANCH  19  22
ENDBRANCH   1  19
TORSDOF 5
ENDMDL
MODEL 2
REMARK VINA RESULT:      -5.6     12.864     16.284
REMARK  Name = pdb/CHEMBL2151319.pdb
REMARK                            x       y       z     vdW  Elec       q    Type
REMARK                         _______ _______ _______ _____ _____    ______ ____
ROOT
ATOM      1  C   LIG    1      -38.388  75.714  24.861  0.00  0.00    +0.122 A 
ATOM      2  N   LIG    1      -37.917  74.453  24.961  0.00  0.00    -0.213 NA
ATOM      3  C   LIG    1      -38.785  73.499  24.540  0.00  0.00    +0.168 A 
ATOM      4  N   LIG    1      -38.603  72.128  24.486  0.00  0.00    -0.266 N 
ATOM      5  C   LIG    1      -39.780  71.604  23.984  0.00  0.00    +0.207 A 
ATOM      6  N   LIG    1      -40.677  72.525  23.702  0.00  0.00    -0.234 NA
ATOM      7  C   LIG    1      -40.065  73.702  24.034  0.00  0.00    +0.108 A 
ATOM      8  C   LIG    1      -40.525  75.013  23.924  0.00  0.00    +0.035 A 
ATOM      9  C   LIG    1      -39.654  76.021  24.342  0.00  0.00    +0.046 A 
ENDROOT
BRANCH   4  10
ATOM     10  C   LIG    1      -37.451  71.377  24.841  0.00  0.00    +0.162 A 
ATOM     11  N   LIG    1      -36.962  70.476  23.978  0.00  0.00    -0.155 NA
ATOM     12  N   LIG    1      -35.879  69.991  24.616  0.00  0.00    -0.279 N 
ATOM     13  H   LIG    1      -35.324  69.277  24.154  0.00  0.00    +0.189 HD
ATOM     14  C   LIG    1      -35.685  70.543  25.849  0.00  0.00    +0.041 A 
ATOM     15  C   LIG    1      -36.700  71.458  26.029  0.00  0.00    +0.071 A 
BRANCH  14  16
ATOM     16  C   LIG    1      -34.565  70.191  26.803  0.00  0.00    +0.037 C 
ATOM     17  C   LIG    1      -33.860  68.864  26.621  0.00  0.00    +0.010 C 
ATOM     18  C   LIG    1      -34.764  69.057  27.788  0.00  0.00    +0.010 C 
ENDBRANCH  14  16
ENDBRANCH   4  10
BRANCH   1  19
ATOM     19  N   LIG    1      -37.591  76.815  25.210  0.00  0.00    -0.319 N 
ATOM     20  H   LIG    1      -37.975  77.647  24.761  0.00  0.00    +0.148 HD
BRANCH  19  22
ATOM     21  C   LIG    1      -38.614  76.572  27.374  0.00  0.00    +0.036 C 
ATOM     22  C   LIG    1      -37.372  77.098  26.641  0.00  0.00    +0.136 C 
BRANCH  22  23
ATOM     23  C   LIG    1      -36.137  76.387  27.216  0.00  0.00    +0.149 A 
ATOM     24  N   LIG    1      -34.908  76.885  26.928  0.00  0.00    -0.236 NA
ATOM     25  C   LIG    1      -33.848  76.169  27.369  0.00  0.00    +0.152 A 
ATOM     26  C   LIG    1      -33.965  74.974  28.035  0.00  0.00    +0.159 A 
ATOM     27  F   LIG    1      -32.897  74.270  28.422  0.00  0.00    -0.202 F 
ATOM     28  C   LIG    1      -35.244  74.538  28.269  0.00  0.00    +0.152 A 
ATOM     29  N   LIG    1      -36.344  75.223  27.883  0.00  0.00    -0.236 NA
ENDBRANCH  22  23
ENDBRANCH  19  22
ENDBRANCH   1  19
TORSDOF 5
ENDMDL
MODEL 3
REMARK VINA RESULT:      -5.6      2.074      2.909
REMARK  Name = pdb/CHEMBL2151319.pdb
REMARK                            x       y       z     vdW  Elec       q    Type
REMARK                         _______ _______ _______ _____ _____    ______ ____
ROOT
ATOM      1  C   LIG    1      -23.519  80.206  35.346  0.00  0.00    +0.122 A 
ATOM      2  N   LIG    1      -23.526  79.494  34.199  0.00  0.00    -0.213 NA
ATOM      3  C   LIG    1      -24.625  78.715  34.033  0.00  0.00    +0.168 A 
ATOM      4  N   LIG    1      -24.949  77.893  32.967  0.00  0.00    -0.266 N 
ATOM      5  C   LIG    1      -26.167  77.321  33.280  0.00  0.00    +0.207 A 
ATOM      6  N   LIG    1      -26.645  77.723  34.439  0.00  0.00    -0.234 NA
ATOM      7  C   LIG    1      -25.701  78.595  34.907  0.00  0.00    +0.108 A 
ATOM      8  C   LIG    1      -25.681  79.352  36.077  0.00  0.00    +0.035 A 
ATOM      9  C   LIG    1      -24.567  80.170  36.276  0.00  0.00    +0.046 A 
ENDROOT
BRANCH   4  10
ATOM     10  C   LIG    1      -24.218  77.674  31.769  0.00  0.00    +0.162 A 
ATOM     11  N   LIG    1      -24.646  78.231  30.627  0.00  0.00    -0.155 NA
ATOM     12  N   LIG    1      -23.719  77.847  29.729  0.00  0.00    -0.279 N 
ATOM     13  H   LIG    1      -23.822  78.151  28.765  0.00  0.00    +0.189 HD
ATOM     14  C   LIG    1      -22.740  77.061  30.263  0.00  0.00    +0.041 A 
ATOM     15  C   LIG    1      -23.037  76.927  31.602  0.00  0.00    +0.071 A 
BRANCH  14  16
ATOM     16  C   LIG    1      -21.574  76.468  29.502  0.00  0.00    +0.037 C 
ATOM     17  C   LIG    1      -20.409  75.917  30.294  0.00  0.00    +0.010 C 
ATOM     18  C   LIG    1      -20.238  77.181  29.526  0.00  0.00    +0.010 C 
ENDBRANCH  14  16
ENDBRANCH   4  10
BRANCH   1  19
ATOM     19  N   LIG    1      -22.474  81.096  35.640  0.00  0.00    -0.319 N 
ATOM     20  H   LIG    1      -22.871  81.919  36.095  0.00  0.00    +0.148 HD
BRANCH  19  22
ATOM     21  C   LIG    1      -20.284  80.125  35.429  0.00  0.00    +0.036 C 
ATOM     22  C   LIG    1      -21.337  80.604  36.438  0.00  0.00    +0.136 C 
BRANCH  22  23
ATOM     23  C   LIG    1      -20.700  81.691  37.318  0.00  0.00    +0.149 A 
ATOM     24  N   LIG    1      -20.899  82.992  36.987  0.00  0.00    -0.236 NA
ATOM     25  C   LIG    1      -20.236  83.911  37.727  0.00  0.00    +0.152 A 
ATOM     26  C   LIG    1      -19.364  83.585  38.736  0.00  0.00    +0.159 A 
ATOM     27  F   LIG    1      -18.694  84.516  39.422  0.00  0.00    -0.202 F 
ATOM     28  C   LIG    1      -19.212  82.247  38.991  0.00  0.00    +0.152 A 
ATOM     29  N   LIG    1      -19.869  81.282  38.309  0.00  0.00    -0.236 NA
ENDBRANCH  22  23
ENDBRANCH  19  22
ENDBRANCH   1  19
TORSDOF 5
ENDMDL
MODEL 4
REMARK VINA RESULT:      -5.5      5.602      9.301
REMARK  Name = pdb/CHEMBL2151319.pdb
REMARK                            x       y       z     vdW  Elec       q    Type
REMARK                         _______ _______ _______ _____ _____    ______ ____
ROOT
ATOM      1  C   LIG    1      -30.084  76.167  31.124  0.00  0.00    +0.122 A 
ATOM      2  N   LIG    1      -28.779  76.490  31.001  0.00  0.00    -0.213 NA
ATOM      3  C   LIG    1      -28.130  76.647  32.182  0.00  0.00    +0.168 A 
ATOM      4  N   LIG    1      -26.798  76.950  32.403  0.00  0.00    -0.266 N 
ATOM      5  C   LIG    1      -26.637  76.997  33.775  0.00  0.00    +0.207 A 
ATOM      6  N   LIG    1      -27.745  76.734  34.435  0.00  0.00    -0.234 NA
ATOM      7  C   LIG    1      -28.672  76.506  33.456  0.00  0.00    +0.108 A 
ATOM      8  C   LIG    1      -30.017  76.155  33.559  0.00  0.00    +0.035 A 
ATOM      9  C   LIG    1      -30.714  75.979  32.363  0.00  0.00    +0.046 A 
ENDROOT
BRANCH   4  10
ATOM     10  C   LIG    1      -25.769  77.153  31.444  0.00  0.00    +0.162 A 
ATOM     11  N   LIG    1      -25.876  78.163  30.569  0.00  0.00    -0.155 NA
ATOM     12  N   LIG    1      -24.739  78.075  29.853  0.00  0.00    -0.279 N 
ATOM     13  H   LIG    1      -24.580  78.748  29.110  0.00  0.00    +0.189 HD
ATOM     14  C   LIG    1      -23.936  77.040  30.237  0.00  0.00    +0.041 A 
ATOM     15  C   LIG    1      -24.583  76.413  31.280  0.00  0.00    +0.071 A 
BRANCH  14  16
ATOM     16  C   LIG    1      -22.605  76.681  29.613  0.00  0.00    +0.037 C 
ATOM     17  C   LIG    1      -21.583  75.966  30.470  0.00  0.00    +0.010 C 
ATOM     18  C   LIG    1      -21.353  77.387  30.090  0.00  0.00    +0.010 C 
ENDBRANCH  14  16
ENDBRANCH   4  10
BRANCH   1  19
ATOM     19  N   LIG    1      -30.879  75.922  29.994  0.00  0.00    -0.319 N 
ATOM     20  H   LIG    1      -30.468  75.147  29.472  0.00  0.00    +0.148 HD
BRANCH  19  22
ATOM     21  C   LIG    1      -33.058  76.742  29.388  0.00  0.00    +0.036 C 
ATOM     22  C   LIG    1      -32.317  75.663  30.190  0.00  0.00    +0.136 C 
BRANCH  22  23
ATOM     23  C   LIG    1      -32.760  74.287  29.667  0.00  0.00    +0.149 A 
ATOM     24  N   LIG    1      -33.430  74.225  28.488  0.00  0.00    -0.236 NA
ATOM     25  C   LIG    1      -33.889  73.008  28.118  0.00  0.00    +0.152 A 
ATOM     26  C   LIG    1      -33.749  71.879  28.887  0.00  0.00    +0.159 A 
ATOM     27  F   LIG    1      -34.250  70.698  28.512  0.00  0.00    -0.202 F 
ATOM     28  C   LIG    1      -33.074  72.037  30.070  0.00  0.00    +0.152 A 
ATOM     29  N   LIG    1      -32.563  73.219  30.481  0.00  0.00    -0.236 NA
ENDBRANCH  22  23
ENDBRANCH  19  22
ENDBRANCH   1  19
TORSDOF 5
ENDMDL
MODEL 5
REMARK VINA RESULT:      -5.5     14.823     18.930
REMARK  Name = pdb/CHEMBL2151319.pdb
REMARK                            x       y       z     vdW  Elec       q    Type
REMARK                         _______ _______ _______ _____ _____    ______ ____
ROOT
ATOM      1  C   LIG    1      -39.480  71.629  24.057  0.00  0.00    +0.122 A 
ATOM      2  N   LIG    1      -38.805  72.682  24.565  0.00  0.00    -0.213 NA
ATOM      3  C   LIG    1      -39.436  73.873  24.417  0.00  0.00    +0.168 A 
ATOM      4  N   LIG    1      -39.032  75.126  24.845  0.00  0.00    -0.266 N 
ATOM      5  C   LIG    1      -40.023  76.005  24.451  0.00  0.00    +0.207 A 
ATOM      6  N   LIG    1      -41.021  75.414  23.829  0.00  0.00    -0.234 NA
ATOM      7  C   LIG    1      -40.671  74.092  23.813  0.00  0.00    +0.108 A 
ATOM      8  C   LIG    1      -41.358  72.989  23.311  0.00  0.00    +0.035 A 
ATOM      9  C   LIG    1      -40.739  71.745  23.453  0.00  0.00    +0.046 A 
ENDROOT
BRANCH   4  10
ATOM     10  C   LIG    1      -37.858  75.474  25.566  0.00  0.00    +0.162 A 
ATOM     11  N   LIG    1      -37.093  76.484  25.128  0.00  0.00    -0.155 NA
ATOM     12  N   LIG    1      -36.112  76.551  26.048  0.00  0.00    -0.279 N 
ATOM     13  H   LIG    1      -35.390  77.257  25.937  0.00  0.00    +0.189 HD
ATOM     14  C   LIG    1      -36.227  75.613  27.032  0.00  0.00    +0.041 A 
ATOM     15  C   LIG    1      -37.364  74.888  26.746  0.00  0.00    +0.071 A 
BRANCH  14  16
ATOM     16  C   LIG    1      -35.272  75.432  28.191  0.00  0.00    +0.037 C 
ATOM     17  C   LIG    1      -33.819  75.801  27.985  0.00  0.00    +0.010 C 
ATOM     18  C   LIG    1      -34.199  74.366  28.104  0.00  0.00    +0.010 C 
ENDBRANCH  14  16
ENDBRANCH   4  10
BRANCH   1  19
ATOM     19  N   LIG    1      -38.980  70.323  24.176  0.00  0.00    -0.319 N 
ATOM     20  H   LIG    1      -39.465  69.730  23.502  0.00  0.00    +0.148 HD
BRANCH  19  22
ATOM     21  C   LIG    1      -37.073  69.444  25.350  0.00  0.00    +0.036 C 
ATOM     22  C   LIG    1      -37.526  70.112  24.044  0.00  0.00    +0.136 C 
BRANCH  22  23
ATOM     23  C   LIG    1      -37.153  69.186  22.876  0.00  0.00    +0.149 A 
ATOM     24  N   LIG    1      -38.026  69.058  21.844  0.00  0.00    -0.236 NA
ATOM     25  C   LIG    1      -37.703  68.156  20.890  0.00  0.00    +0.152 A 
ATOM     26  C   LIG    1      -36.585  67.359  20.946  0.00  0.00    +0.159 A 
ATOM     27  F   LIG    1      -36.316  66.448  20.006  0.00  0.00    -0.202 F 
ATOM     28  C   LIG    1      -35.769  67.545  22.031  0.00  0.00    +0.152 A 
ATOM     29  N   LIG    1      -36.019  68.451  23.002  0.00  0.00    -0.236 NA
ENDBRANCH  22  23
ENDBRANCH  19  22
ENDBRANCH   1  19
TORSDOF 5
ENDMDL
MODEL 6
REMARK VINA RESULT:      -5.5      2.184      5.337
REMARK  Name = pdb/CHEMBL2151319.pdb
REMARK                            x       y       z     vdW  Elec       q    Type
REMARK                         _______ _______ _______ _____ _____    ______ ____
ROOT
ATOM      1  C   LIG    1      -20.342  78.638  33.183  0.00  0.00    +0.122 A 
ATOM      2  N   LIG    1      -21.513  78.283  32.614  0.00  0.00    -0.213 NA
ATOM      3  C   LIG    1      -21.385  77.661  31.415  0.00  0.00    +0.168 A 
ATOM      4  N   LIG    1      -22.377  77.152  30.594  0.00  0.00    -0.266 N 
ATOM      5  C   LIG    1      -21.730  76.621  29.495  0.00  0.00    +0.207 A 
ATOM      6  N   LIG    1      -20.420  76.735  29.560  0.00  0.00    -0.234 NA
ATOM      7  C   LIG    1      -20.198  77.368  30.751  0.00  0.00    +0.108 A 
ATOM      8  C   LIG    1      -18.999  77.729  31.365  0.00  0.00    +0.035 A 
ATOM      9  C   LIG    1      -19.095  78.366  32.604  0.00  0.00    +0.046 A 
ENDROOT
BRANCH   4  10
ATOM     10  C   LIG    1      -23.781  77.138  30.813  0.00  0.00    +0.162 A 
ATOM     11  N   LIG    1      -24.541  78.096  30.264  0.00  0.00    -0.155 NA
ATOM     12  N   LIG    1      -25.788  77.758  30.645  0.00  0.00    -0.279 N 
ATOM     13  H   LIG    1      -26.562  78.343  30.346  0.00  0.00    +0.189 HD
ATOM     14  C   LIG    1      -25.832  76.636  31.421  0.00  0.00    +0.041 A 
ATOM     15  C   LIG    1      -24.530  76.204  31.552  0.00  0.00    +0.071 A 
BRANCH  14  16
ATOM     16  C   LIG    1      -27.083  76.021  32.009  0.00  0.00    +0.037 C 
ATOM     17  C   LIG    1      -28.353  76.844  32.005  0.00  0.00    +0.010 C 
ATOM     18  C   LIG    1      -27.651  76.589  33.293  0.00  0.00    +0.010 C 
ENDBRANCH  14  16
ENDBRANCH   4  10
BRANCH   1  19
ATOM     19  N   LIG    1      -20.306  79.247  34.447  0.00  0.00    -0.319 N 
ATOM     20  H   LIG    1      -20.319  80.259  34.318  0.00  0.00    +0.148 HD
BRANCH  19  22
ATOM     21  C   LIG    1      -20.576  78.371  36.672  0.00  0.00    +0.036 C 
ATOM     22  C   LIG    1      -21.335  78.874  35.436  0.00  0.00    +0.136 C 
BRANCH  22  23
ATOM     23  C   LIG    1      -22.220  80.055  35.863  0.00  0.00    +0.149 A 
ATOM     24  N   LIG    1      -23.561  79.865  35.948  0.00  0.00    -0.236 NA
ATOM     25  C   LIG    1      -24.309  80.957  36.227  0.00  0.00    +0.152 A 
ATOM     26  C   LIG    1      -23.784  82.217  36.377  0.00  0.00    +0.159 A 
ATOM     27  F   LIG    1      -24.555  83.283  36.612  0.00  0.00    -0.202 F 
ATOM     28  C   LIG    1      -22.422  82.320  36.259  0.00  0.00    +0.152 A 
ATOM     29  N   LIG    1      -21.617  81.262  36.013  0.00  0.00    -0.236 NA
ENDBRANCH  22  23
ENDBRANCH  19  22
ENDBRANCH   1  19
TORSDOF 5
ENDMDL
MODEL 7
REMARK VINA RESULT:      -5.5     12.386     15.458
REMARK  Name = pdb/CHEMBL2151319.pdb
REMARK                            x       y       z     vdW  Elec       q    Type
REMARK                         _______ _______ _______ _____ _____    ______ ____
ROOT
ATOM      1  C   LIG    1      -37.842  80.357  27.396  0.00  0.00    +0.122 A 
ATOM      2  N   LIG    1      -37.983  79.143  26.825  0.00  0.00    -0.213 NA
ATOM      3  C   LIG    1      -38.870  79.108  25.799  0.00  0.00    +0.168 A 
ATOM      4  N   LIG    1      -39.221  78.038  24.995  0.00  0.00    -0.266 N 
ATOM      5  C   LIG    1      -40.160  78.520  24.102  0.00  0.00    +0.207 A 
ATOM      6  N   LIG    1      -40.416  79.801  24.262  0.00  0.00    -0.234 NA
ATOM      7  C   LIG    1      -39.614  80.176  25.304  0.00  0.00    +0.108 A 
ATOM      8  C   LIG    1      -39.440  81.425  25.898  0.00  0.00    +0.035 A 
ATOM      9  C   LIG    1      -38.529  81.497  26.953  0.00  0.00    +0.046 A 
ENDROOT
BRANCH   4  10
ATOM     10  C   LIG    1      -38.724  76.707  25.031  0.00  0.00    +0.162 A 
ATOM     11  N   LIG    1      -37.425  76.485  24.789  0.00  0.00    -0.155 NA
ATOM     12  N   LIG    1      -37.307  75.151  24.936  0.00  0.00    -0.279 N 
ATOM     13  H   LIG    1      -36.394  74.727  24.801  0.00  0.00    +0.189 HD
ATOM     14  C   LIG    1      -38.484  74.534  25.244  0.00  0.00    +0.041 A 
ATOM     15  C   LIG    1      -39.437  75.527  25.314  0.00  0.00    +0.071 A 
BRANCH  14  16
ATOM     16  C   LIG    1      -38.668  73.047  25.456  0.00  0.00    +0.037 C 
ATOM     17  C   LIG    1      -37.730  72.101  24.739  0.00  0.00    +0.010 C 
ATOM     18  C   LIG    1      -39.151  72.192  24.303  0.00  0.00    +0.010 C 
ENDBRANCH  14  16
ENDBRANCH   4  10
BRANCH   1  19
ATOM     19  N   LIG    1      -36.925  80.566  28.438  0.00  0.00    -0.319 N 
ATOM     20  H   LIG    1      -36.869  79.711  28.993  0.00  0.00    +0.148 HD
BRANCH  19  22
ATOM     21  C   LIG    1      -35.087  81.876  29.269  0.00  0.00    +0.036 C 
ATOM     22  C   LIG    1      -35.561  81.008  28.095  0.00  0.00    +0.136 C 
BRANCH  22  23
ATOM     23  C   LIG    1      -34.572  79.844  27.928  0.00  0.00    +0.149 A 
ATOM     24  N   LIG    1      -34.643  78.802  28.795  0.00  0.00    -0.236 NA
ATOM     25  C   LIG    1      -33.689  77.851  28.674  0.00  0.00    +0.152 A 
ATOM     26  C   LIG    1      -32.660  77.920  27.767  0.00  0.00    +0.159 A 
ATOM     27  F   LIG    1      -31.709  76.983  27.701  0.00  0.00    -0.202 F 
ATOM     28  C   LIG    1      -32.658  79.015  26.942  0.00  0.00    +0.152 A 
ATOM     29  N   LIG    1      -33.599  79.983  26.991  0.00  0.00    -0.236 NA
ENDBRANCH  22  23
ENDBRANCH  19  22
ENDBRANCH   1  19
TORSDOF 5
ENDMDL
MODEL 8
REMARK VINA RESULT:      -5.4     13.261     16.563
REMARK  Name = pdb/CHEMBL2151319.pdb
REMARK                            x       y       z     vdW  Elec       q    Type
REMARK                         _______ _______ _______ _____ _____    ______ ____
ROOT
ATOM      1  C   LIG    1      -37.402  76.211  25.384  0.00  0.00    +0.122 A 
ATOM      2  N   LIG    1      -37.892  77.420  25.037  0.00  0.00    -0.213 NA
ATOM      3  C   LIG    1      -39.120  77.379  24.461  0.00  0.00    +0.168 A 
ATOM      4  N   LIG    1      -39.903  78.431  24.019  0.00  0.00    -0.266 N 
ATOM      5  C   LIG    1      -41.058  77.865  23.515  0.00  0.00    +0.207 A 
ATOM      6  N   LIG    1      -41.078  76.553  23.616  0.00  0.00    -0.234 NA
ATOM      7  C   LIG    1      -39.885  76.245  24.211  0.00  0.00    +0.108 A 
ATOM      8  C   LIG    1      -39.367  75.009  24.593  0.00  0.00    +0.035 A 
ATOM      9  C   LIG    1      -38.108  75.015  25.196  0.00  0.00    +0.046 A 
ENDROOT
BRANCH   4  10
ATOM     10  C   LIG    1      -39.623  79.824  24.076  0.00  0.00    +0.162 A 
ATOM     11  N   LIG    1      -39.359  80.488  22.943  0.00  0.00    -0.155 NA
ATOM     12  N   LIG    1      -39.178  81.755  23.361  0.00  0.00    -0.279 N 
ATOM     13  H   LIG    1      -38.962  82.468  22.671  0.00  0.00    +0.189 HD
ATOM     14  C   LIG    1      -39.303  81.902  24.712  0.00  0.00    +0.041 A 
ATOM     15  C   LIG    1      -39.595  80.652  25.213  0.00  0.00    +0.071 A 
BRANCH  14  16
ATOM     16  C   LIG    1      -39.142  83.199  25.475  0.00  0.00    +0.037 C 
ATOM     17  C   LIG    1      -38.416  84.341  24.797  0.00  0.00    +0.010 C 
ATOM     18  C   LIG    1      -37.759  83.623  25.924  0.00  0.00    +0.010 C 
ENDBRANCH  14  16
ENDBRANCH   4  10
BRANCH   1  19
ATOM     19  N   LIG    1      -36.164  76.091  26.035  0.00  0.00    -0.319 N 
ATOM     20  H   LIG    1      -35.510  76.747  25.607  0.00  0.00    +0.148 HD
BRANCH  19  22
ATOM     21  C   LIG    1      -35.135  75.203  28.020  0.00  0.00    +0.036 C 
ATOM     22  C   LIG    1      -36.122  76.258  27.500  0.00  0.00    +0.136 C 
BRANCH  22  23
ATOM     23  C   LIG    1      -35.620  77.643  27.937  0.00  0.00    +0.149 A 
ATOM     24  N   LIG    1      -34.388  78.043  27.534  0.00  0.00    -0.236 NA
ATOM     25  C   LIG    1      -33.946  79.224  28.027  0.00  0.00    +0.152 A 
ATOM     26  C   LIG    1      -34.655  79.983  28.924  0.00  0.00    +0.159 A 
ATOM     27  F   LIG    1      -34.173  81.126  29.424  0.00  0.00    -0.202 F 
ATOM     28  C   LIG    1      -35.883  79.495  29.289  0.00  0.00    +0.152 A 
ATOM     29  N   LIG    1      -36.394  78.339  28.808  0.00  0.00    -0.236 NA
ENDBRANCH  22  23
ENDBRANCH  19  22
ENDBRANCH   1  19
TORSDOF 5
ENDMDL
MODEL 9
REMARK VINA RESULT:      -5.4     12.795     16.194
REMARK  Name = pdb/CHEMBL2151319.pdb
REMARK                            x       y       z     vdW  Elec       q    Type
REMARK                         _______ _______ _______ _____ _____    ______ ____
ROOT
ATOM      1  C   LIG    1      -37.743  75.419  25.243  0.00  0.00    +0.122 A 
ATOM      2  N   LIG    1      -37.542  74.089  25.138  0.00  0.00    -0.213 NA
ATOM      3  C   LIG    1      -38.596  73.403  24.629  0.00  0.00    +0.168 A 
ATOM      4  N   LIG    1      -38.703  72.048  24.371  0.00  0.00    -0.266 N 
ATOM      5  C   LIG    1      -39.972  71.853  23.858  0.00  0.00    +0.207 A 
ATOM      6  N   LIG    1      -40.665  72.968  23.756  0.00  0.00    -0.234 NA
ATOM      7  C   LIG    1      -39.816  73.934  24.221  0.00  0.00    +0.108 A 
ATOM      8  C   LIG    1      -39.996  75.313  24.323  0.00  0.00    +0.035 A 
ATOM      9  C   LIG    1      -38.928  76.049  24.837  0.00  0.00    +0.046 A 
ENDROOT
BRANCH   4  10
ATOM     10  C   LIG    1      -37.724  71.035  24.557  0.00  0.00    +0.162 A 
ATOM     11  N   LIG    1      -37.324  70.307  23.505  0.00  0.00    -0.155 NA
ATOM     12  N   LIG    1      -36.393  69.488  24.031  0.00  0.00    -0.279 N 
ATOM     13  H   LIG    1      -35.929  68.824  23.419  0.00  0.00    +0.189 HD
ATOM     14  C   LIG    1      -36.210  69.667  25.372  0.00  0.00    +0.041 A 
ATOM     15  C   LIG    1      -37.069  70.676  25.750  0.00  0.00    +0.071 A 
BRANCH  14  16
ATOM     16  C   LIG    1      -35.245  68.889  26.239  0.00  0.00    +0.037 C 
ATOM     17  C   LIG    1      -34.602  69.600  27.410  0.00  0.00    +0.010 C 
ATOM     18  C   LIG    1      -33.776  69.254  26.220  0.00  0.00    +0.010 C 
ENDBRANCH  14  16
ENDBRANCH   4  10
BRANCH   1  19
ATOM     19  N   LIG    1      -36.728  76.271  25.706  0.00  0.00    -0.319 N 
ATOM     20  H   LIG    1      -36.845  77.182  25.262  0.00  0.00    +0.148 HD
BRANCH  19  22
ATOM     21  C   LIG    1      -35.551  75.415  27.622  0.00  0.00    +0.036 C 
ATOM     22  C   LIG    1      -36.578  76.459  27.161  0.00  0.00    +0.136 C 
BRANCH  22  23
ATOM     23  C   LIG    1      -36.051  77.852  27.540  0.00  0.00    +0.149 A 
ATOM     24  N   LIG    1      -36.920  78.895  27.549  0.00  0.00    -0.236 NA
ATOM     25  C   LIG    1      -36.393  80.117  27.787  0.00  0.00    +0.152 A 
ATOM     26  C   LIG    1      -35.050  80.341  27.969  0.00  0.00    +0.159 A 
ATOM     27  F   LIG    1      -34.555  81.568  28.163  0.00  0.00    -0.202 F 
ATOM     28  C   LIG    1      -34.244  79.233  27.929  0.00  0.00    +0.152 A 
ATOM     29  N   LIG    1      -34.713  77.981  27.727  0.00  0.00    -0.236 NA
ENDBRANCH  22  23
ENDBRANCH  19  22
ENDBRANCH   1  19
TORSDOF 5
ENDMDL
