MODEL 1
REMARK VINA RESULT:      -6.2      0.000      0.000
REMARK  Name = pdb/CHEMBL3671152.pdb
REMARK                            x       y       z     vdW  Elec       q    Type
REMARK                         _______ _______ _______ _____ _____    ______ ____
ROOT
ATOM      1  C   LIG    1      -20.298  78.903  33.762  0.00  0.00    +0.126 A 
ATOM      2  N   LIG    1      -20.821  78.432  32.646  0.00  0.00    -0.212 NA
ATOM      3  C   LIG    1      -20.001  77.815  31.739  0.00  0.00    +0.170 A 
ATOM      4  C   LIG    1      -20.251  77.162  30.546  0.00  0.00    +0.100 A 
ATOM      5  C   LIG    1      -18.980  76.730  30.113  0.00  0.00    +0.150 A 
ATOM      6  N   LIG    1      -17.993  77.090  30.931  0.00  0.00    -0.173 NA
ATOM      7  N   LIG    1      -18.624  77.725  31.945  0.00  0.00    -0.221 N 
ATOM      8  C   LIG    1      -18.051  78.238  33.093  0.00  0.00    +0.118 A 
ATOM      9  C   LIG    1      -18.815  78.809  34.029  0.00  0.00    +0.063 A 
ENDROOT
BRANCH   1  11
ATOM     10  C   LIG    1      -22.613  79.468  34.659  0.00  0.00    +0.108 C 
ATOM     11  N   LIG    1      -21.137  79.514  34.689  0.00  0.00    -0.308 N 
ATOM     12  C   LIG    1      -20.685  80.692  35.442  0.00  0.00    +0.107 C 
ATOM     13  C   LIG    1      -21.898  81.606  35.480  0.00  0.00    +0.021 C 
ATOM     14  C   LIG    1      -23.047  80.621  35.584  0.00  0.00    +0.029 C 
BRANCH  10  18
ATOM     15  F   LIG    1      -22.393  75.181  37.070  0.00  0.00    -0.205 F 
ATOM     16  C   LIG    1      -23.086  76.036  36.308  0.00  0.00    +0.124 A 
ATOM     17  C   LIG    1      -22.505  77.247  35.933  0.00  0.00    +0.046 A 
ATOM     18  C   LIG    1      -23.205  78.146  35.112  0.00  0.00    +0.011 A 
ATOM     19  C   LIG    1      -24.496  77.782  34.699  0.00  0.00    +0.129 A 
ATOM     20  F   LIG    1      -25.191  78.597  33.892  0.00  0.00    -0.205 F 
ATOM     21  C   LIG    1      -25.080  76.574  35.086  0.00  0.00    +0.041 A 
ATOM     22  C   LIG    1      -24.371  75.695  35.899  0.00  0.00    +0.041 A 
ENDBRANCH  10  18
ENDBRANCH   1  11
BRANCH   4  23
ATOM     23  C   LIG    1      -21.502  76.939  29.851  0.00  0.00    +0.249 C 
ATOM     24  N   LIG    1      -22.620  77.445  30.481  0.00  0.00    -0.310 N 
ATOM     25  H   LIG    1      -22.518  77.827  31.419  0.00  0.00    +0.149 HD
ATOM     26  O   LIG    1      -21.545  76.408  28.752  0.00  0.00    -0.270 OA
BRANCH  24  27
ATOM     27  C   LIG    1      -23.915  77.431  29.831  0.00  0.00    +0.123 C 
BRANCH  27  28
ATOM     28  C   LIG    1      -25.073  77.792  30.764  0.00  0.00    +0.128 C 
BRANCH  28  29
ATOM     29  N   LIG    1      -25.777  76.637  31.287  0.00  0.00    -0.283 N 
ATOM     30  C   LIG    1      -27.094  76.640  31.718  0.00  0.00    +0.302 C 
ATOM     31  O   LIG    1      -27.881  77.573  31.662  0.00  0.00    -0.253 OA
ATOM     32  N   LIG    1      -27.377  75.388  32.238  0.00  0.00    -0.298 N 
ATOM     33  H   LIG    1      -28.326  75.148  32.486  0.00  0.00    +0.150 HD
ATOM     34  C   LIG    1      -26.311  74.469  31.945  0.00  0.00    +0.124 C 
ATOM     35  C   LIG    1      -25.135  75.380  31.616  0.00  0.00    +0.128 C 
ENDBRANCH  28  29
ENDBRANCH  27  28
ENDBRANCH  24  27
ENDBRANCH   4  23
TORSDOF 6
ENDMDL
MODEL 2
REMARK VINA RESULT:      -5.8      5.181     10.340
REMARK  Name = pdb/CHEMBL3671152.pdb
REMARK                            x       y       z     vdW  Elec       q    Type
REMARK                         _______ _______ _______ _____ _____    ______ ____
ROOT
ATOM      1  C   LIG    1      -31.104  75.724  31.061  0.00  0.00    +0.126 A 
ATOM      2  N   LIG    1      -29.794  75.881  31.029  0.00  0.00    -0.212 NA
ATOM      3  C   LIG    1      -29.164  76.403  32.127  0.00  0.00    +0.170 A 
ATOM      4  C   LIG    1      -27.830  76.609  32.428  0.00  0.00    +0.100 A 
ATOM      5  C   LIG    1      -27.848  77.157  33.728  0.00  0.00    +0.150 A 
ATOM      6  N   LIG    1      -29.076  77.318  34.216  0.00  0.00    -0.173 NA
ATOM      7  N   LIG    1      -29.880  76.823  33.247  0.00  0.00    -0.221 N 
ATOM      8  C   LIG    1      -31.255  76.696  33.289  0.00  0.00    +0.118 A 
ATOM      9  C   LIG    1      -31.912  76.150  32.262  0.00  0.00    +0.063 A 
ENDROOT
BRANCH   1  11
ATOM     10  C   LIG    1      -33.101  75.524  29.492  0.00  0.00    +0.108 C 
ATOM     11  N   LIG    1      -31.739  75.176  29.950  0.00  0.00    -0.308 N 
ATOM     12  C   LIG    1      -31.369  73.841  29.462  0.00  0.00    +0.107 C 
ATOM     13  C   LIG    1      -32.692  73.194  29.086  0.00  0.00    +0.021 C 
ATOM     14  C   LIG    1      -33.490  74.368  28.550  0.00  0.00    +0.029 C 
BRANCH  10  18
ATOM     15  F   LIG    1      -32.071  78.596  25.786  0.00  0.00    -0.205 F 
ATOM     16  C   LIG    1      -32.687  78.370  26.953  0.00  0.00    +0.124 A 
ATOM     17  C   LIG    1      -32.582  77.114  27.551  0.00  0.00    +0.046 A 
ATOM     18  C   LIG    1      -33.198  76.864  28.789  0.00  0.00    +0.011 A 
ATOM     19  C   LIG    1      -33.919  77.912  29.382  0.00  0.00    +0.129 A 
ATOM     20  F   LIG    1      -34.501  77.728  30.576  0.00  0.00    -0.205 F 
ATOM     21  C   LIG    1      -34.032  79.165  28.775  0.00  0.00    +0.041 A 
ATOM     22  C   LIG    1      -33.413  79.396  27.549  0.00  0.00    +0.041 A 
ENDBRANCH  10  18
ENDBRANCH   1  11
BRANCH   4  23
ATOM     23  C   LIG    1      -26.645  76.345  31.638  0.00  0.00    +0.249 C 
ATOM     24  N   LIG    1      -25.936  77.465  31.253  0.00  0.00    -0.310 N 
ATOM     25  H   LIG    1      -26.338  78.382  31.440  0.00  0.00    +0.149 HD
ATOM     26  O   LIG    1      -26.267  75.209  31.401  0.00  0.00    -0.270 OA
BRANCH  24  27
ATOM     27  C   LIG    1      -24.652  77.347  30.593  0.00  0.00    +0.123 C 
BRANCH  27  28
ATOM     28  C   LIG    1      -23.460  77.533  31.533  0.00  0.00    +0.128 C 
BRANCH  28  29
ATOM     29  N   LIG    1      -22.220  76.991  31.011  0.00  0.00    -0.283 N 
ATOM     30  C   LIG    1      -21.757  75.706  31.241  0.00  0.00    +0.302 C 
ATOM     31  O   LIG    1      -22.338  74.816  31.845  0.00  0.00    -0.253 OA
ATOM     32  N   LIG    1      -20.502  75.593  30.667  0.00  0.00    -0.298 N 
ATOM     33  H   LIG    1      -20.052  74.690  30.614  0.00  0.00    +0.150 HD
ATOM     34  C   LIG    1      -20.217  76.740  29.850  0.00  0.00    +0.124 C 
ATOM     35  C   LIG    1      -21.205  77.788  30.349  0.00  0.00    +0.128 C 
ENDBRANCH  28  29
ENDBRANCH  27  28
ENDBRANCH  24  27
ENDBRANCH   4  23
TORSDOF 6
ENDMDL
MODEL 3
REMARK VINA RESULT:      -5.7      2.177      3.682
REMARK  Name = pdb/CHEMBL3671152.pdb
REMARK                            x       y       z     vdW  Elec       q    Type
REMARK                         _______ _______ _______ _____ _____    ______ ____
ROOT
ATOM      1  C   LIG    1      -21.020  79.233  34.308  0.00  0.00    +0.126 A 
ATOM      2  N   LIG    1      -21.259  78.678  33.135  0.00  0.00    -0.212 NA
ATOM      3  C   LIG    1      -20.218  78.116  32.445  0.00  0.00    +0.170 A 
ATOM      4  C   LIG    1      -20.159  77.404  31.260  0.00  0.00    +0.100 A 
ATOM      5  C   LIG    1      -18.793  77.086  31.114  0.00  0.00    +0.150 A 
ATOM      6  N   LIG    1      -18.031  77.568  32.094  0.00  0.00    -0.173 NA
ATOM      7  N   LIG    1      -18.911  78.169  32.927  0.00  0.00    -0.221 N 
ATOM      8  C   LIG    1      -18.634  78.772  34.139  0.00  0.00    +0.118 A 
ATOM      9  C   LIG    1      -19.621  79.294  34.872  0.00  0.00    +0.063 A 
ENDROOT
BRANCH   1  11
ATOM     10  C   LIG    1      -22.214  79.792  36.487  0.00  0.00    +0.108 C 
ATOM     11  N   LIG    1      -22.083  79.787  35.015  0.00  0.00    -0.308 N 
ATOM     12  C   LIG    1      -23.407  79.920  34.391  0.00  0.00    +0.107 C 
ATOM     13  C   LIG    1      -24.385  79.547  35.492  0.00  0.00    +0.021 C 
ATOM     14  C   LIG    1      -23.705  80.095  36.733  0.00  0.00    +0.029 C 
BRANCH  10  18
ATOM     15  F   LIG    1      -20.245  84.276  36.989  0.00  0.00    -0.205 F 
ATOM     16  C   LIG    1      -20.362  83.017  37.429  0.00  0.00    +0.124 A 
ATOM     17  C   LIG    1      -21.208  82.132  36.760  0.00  0.00    +0.046 A 
ATOM     18  C   LIG    1      -21.325  80.799  37.189  0.00  0.00    +0.011 A 
ATOM     19  C   LIG    1      -20.572  80.406  38.306  0.00  0.00    +0.129 A 
ATOM     20  F   LIG    1      -20.630  79.137  38.735  0.00  0.00    -0.205 F 
ATOM     21  C   LIG    1      -19.735  81.297  38.982  0.00  0.00    +0.041 A 
ATOM     22  C   LIG    1      -19.630  82.613  38.542  0.00  0.00    +0.041 A 
ENDBRANCH  10  18
ENDBRANCH   1  11
BRANCH   4  23
ATOM     23  C   LIG    1      -21.216  77.037  30.340  0.00  0.00    +0.249 C 
ATOM     24  N   LIG    1      -22.493  77.114  30.856  0.00  0.00    -0.310 N 
ATOM     25  H   LIG    1      -22.606  77.303  31.850  0.00  0.00    +0.149 HD
ATOM     26  O   LIG    1      -20.988  76.755  29.174  0.00  0.00    -0.270 OA
BRANCH  24  27
ATOM     27  C   LIG    1      -23.654  76.925  30.009  0.00  0.00    +0.123 C 
BRANCH  27  28
ATOM     28  C   LIG    1      -24.957  77.424  30.635  0.00  0.00    +0.128 C 
BRANCH  28  29
ATOM     29  N   LIG    1      -25.757  76.368  31.227  0.00  0.00    -0.283 N 
ATOM     30  C   LIG    1      -27.051  76.522  31.696  0.00  0.00    +0.302 C 
ATOM     31  O   LIG    1      -27.742  77.528  31.623  0.00  0.00    -0.253 OA
ATOM     32  N   LIG    1      -27.441  75.327  32.278  0.00  0.00    -0.298 N 
ATOM     33  H   LIG    1      -28.401  75.196  32.563  0.00  0.00    +0.150 HD
ATOM     34  C   LIG    1      -26.484  74.294  31.994  0.00  0.00    +0.124 C 
ATOM     35  C   LIG    1      -25.234  75.066  31.591  0.00  0.00    +0.128 C 
ENDBRANCH  28  29
ENDBRANCH  27  28
ENDBRANCH  24  27
ENDBRANCH   4  23
TORSDOF 6
ENDMDL
MODEL 4
REMARK VINA RESULT:      -5.7     13.215     16.619
REMARK  Name = pdb/CHEMBL3671152.pdb
REMARK                            x       y       z     vdW  Elec       q    Type
REMARK                         _______ _______ _______ _____ _____    ______ ____
ROOT
ATOM      1  C   LIG    1      -37.907  77.145  27.234  0.00  0.00    +0.126 A 
ATOM      2  N   LIG    1      -38.371  76.154  26.496  0.00  0.00    -0.212 NA
ATOM      3  C   LIG    1      -39.153  76.447  25.411  0.00  0.00    +0.170 A 
ATOM      4  C   LIG    1      -39.708  75.658  24.420  0.00  0.00    +0.100 A 
ATOM      5  C   LIG    1      -40.380  76.573  23.583  0.00  0.00    +0.150 A 
ATOM      6  N   LIG    1      -40.295  77.834  24.004  0.00  0.00    -0.173 NA
ATOM      7  N   LIG    1      -39.513  77.759  25.105  0.00  0.00    -0.221 N 
ATOM      8  C   LIG    1      -39.064  78.809  25.881  0.00  0.00    +0.118 A 
ATOM      9  C   LIG    1      -38.261  78.580  26.924  0.00  0.00    +0.063 A 
ENDROOT
BRANCH   1  11
ATOM     10  C   LIG    1      -35.733  76.286  28.244  0.00  0.00    +0.108 C 
ATOM     11  N   LIG    1      -37.098  76.846  28.326  0.00  0.00    -0.308 N 
ATOM     12  C   LIG    1      -37.694  76.533  29.632  0.00  0.00    +0.107 C 
ATOM     13  C   LIG    1      -36.850  75.389  30.170  0.00  0.00    +0.021 C 
ATOM     14  C   LIG    1      -35.464  75.735  29.658  0.00  0.00    +0.029 C 
BRANCH  10  18
ATOM     15  F   LIG    1      -33.975  80.867  27.841  0.00  0.00    -0.205 F 
ATOM     16  C   LIG    1      -33.813  79.553  27.643  0.00  0.00    +0.124 A 
ATOM     17  C   LIG    1      -34.810  78.669  28.056  0.00  0.00    +0.046 A 
ATOM     18  C   LIG    1      -34.672  77.289  27.833  0.00  0.00    +0.011 A 
ATOM     19  C   LIG    1      -33.503  76.845  27.196  0.00  0.00    +0.129 A 
ATOM     20  F   LIG    1      -33.339  75.539  26.939  0.00  0.00    -0.205 F 
ATOM     21  C   LIG    1      -32.500  77.731  26.795  0.00  0.00    +0.041 A 
ATOM     22  C   LIG    1      -32.655  79.096  27.022  0.00  0.00    +0.041 A 
ENDBRANCH  10  18
ENDBRANCH   1  11
BRANCH   4  23
ATOM     23  C   LIG    1      -39.648  74.223  24.228  0.00  0.00    +0.249 C 
ATOM     24  N   LIG    1      -38.498  73.618  24.692  0.00  0.00    -0.310 N 
ATOM     25  H   LIG    1      -37.737  74.209  25.022  0.00  0.00    +0.149 HD
ATOM     26  O   LIG    1      -40.584  73.595  23.760  0.00  0.00    -0.270 OA
BRANCH  24  27
ATOM     27  C   LIG    1      -38.366  72.175  24.707  0.00  0.00    +0.123 C 
BRANCH  27  28
ATOM     28  C   LIG    1      -38.130  71.596  26.103  0.00  0.00    +0.128 C 
BRANCH  28  29
ATOM     29  N   LIG    1      -36.772  71.772  26.581  0.00  0.00    -0.283 N 
ATOM     30  C   LIG    1      -35.667  71.093  26.096  0.00  0.00    +0.302 C 
ATOM     31  O   LIG    1      -35.641  70.310  25.159  0.00  0.00    -0.253 OA
ATOM     32  N   LIG    1      -34.572  71.453  26.865  0.00  0.00    -0.298 N 
ATOM     33  H   LIG    1      -33.645  71.164  26.586  0.00  0.00    +0.150 HD
ATOM     34  C   LIG    1      -34.903  72.553  27.727  0.00  0.00    +0.124 C 
ATOM     35  C   LIG    1      -36.426  72.531  27.767  0.00  0.00    +0.128 C 
ENDBRANCH  28  29
ENDBRANCH  27  28
ENDBRANCH  24  27
ENDBRANCH   4  23
TORSDOF 6
ENDMDL
MODEL 5
REMARK VINA RESULT:      -5.7      2.707      6.099
REMARK  Name = pdb/CHEMBL3671152.pdb
REMARK                            x       y       z     vdW  Elec       q    Type
REMARK                         _______ _______ _______ _____ _____    ______ ____
ROOT
ATOM      1  C   LIG    1      -20.996  77.102  31.306  0.00  0.00    +0.126 A 
ATOM      2  N   LIG    1      -21.954  77.578  32.078  0.00  0.00    -0.212 NA
ATOM      3  C   LIG    1      -23.248  77.538  31.629  0.00  0.00    +0.170 A 
ATOM      4  C   LIG    1      -24.452  77.873  32.221  0.00  0.00    +0.100 A 
ATOM      5  C   LIG    1      -25.417  77.573  31.236  0.00  0.00    +0.150 A 
ATOM      6  N   LIG    1      -24.890  77.114  30.102  0.00  0.00    -0.173 NA
ATOM      7  N   LIG    1      -23.563  77.060  30.358  0.00  0.00    -0.221 N 
ATOM      8  C   LIG    1      -22.572  76.585  29.521  0.00  0.00    +0.118 A 
ATOM      9  C   LIG    1      -21.300  76.561  29.930  0.00  0.00    +0.063 A 
ENDROOT
BRANCH   1  11
ATOM     10  C   LIG    1      -19.134  78.135  32.703  0.00  0.00    +0.108 C 
ATOM     11  N   LIG    1      -19.686  77.128  31.772  0.00  0.00    -0.308 N 
ATOM     12  C   LIG    1      -18.602  76.521  30.987  0.00  0.00    +0.107 C 
ATOM     13  C   LIG    1      -17.442  77.492  31.128  0.00  0.00    +0.021 C 
ATOM     14  C   LIG    1      -17.607  77.997  32.549  0.00  0.00    +0.029 C 
BRANCH  10  18
ATOM     15  F   LIG    1      -19.781  75.406  36.749  0.00  0.00    -0.205 F 
ATOM     16  C   LIG    1      -19.872  76.594  36.138  0.00  0.00    +0.124 A 
ATOM     17  C   LIG    1      -19.449  76.718  34.815  0.00  0.00    +0.046 A 
ATOM     18  C   LIG    1      -19.561  77.949  34.146  0.00  0.00    +0.011 A 
ATOM     19  C   LIG    1      -20.101  79.031  34.859  0.00  0.00    +0.129 A 
ATOM     20  F   LIG    1      -20.252  80.218  34.254  0.00  0.00    -0.205 F 
ATOM     21  C   LIG    1      -20.512  78.907  36.188  0.00  0.00    +0.041 A 
ATOM     22  C   LIG    1      -20.395  77.679  36.834  0.00  0.00    +0.041 A 
ENDBRANCH  10  18
ENDBRANCH   1  11
BRANCH   4  23
ATOM     23  C   LIG    1      -24.727  78.408  33.538  0.00  0.00    +0.249 C 
ATOM     24  N   LIG    1      -23.749  79.237  34.048  0.00  0.00    -0.310 N 
ATOM     25  H   LIG    1      -22.872  79.326  33.538  0.00  0.00    +0.149 HD
ATOM     26  O   LIG    1      -25.782  78.197  34.114  0.00  0.00    -0.270 OA
BRANCH  24  27
ATOM     27  C   LIG    1      -23.955  79.965  35.284  0.00  0.00    +0.123 C 
BRANCH  27  28
ATOM     28  C   LIG    1      -23.253  81.324  35.320  0.00  0.00    +0.128 C 
BRANCH  28  29
ATOM     29  N   LIG    1      -23.377  82.005  36.595  0.00  0.00    -0.283 N 
ATOM     30  C   LIG    1      -24.364  82.926  36.908  0.00  0.00    +0.302 C 
ATOM     31  O   LIG    1      -25.312  83.251  36.209  0.00  0.00    -0.253 OA
ATOM     32  N   LIG    1      -24.093  83.430  38.170  0.00  0.00    -0.298 N 
ATOM     33  H   LIG    1      -24.771  84.020  38.632  0.00  0.00    +0.150 HD
ATOM     34  C   LIG    1      -23.044  82.676  38.799  0.00  0.00    +0.124 C 
ATOM     35  C   LIG    1      -22.367  81.966  37.633  0.00  0.00    +0.128 C 
ENDBRANCH  28  29
ENDBRANCH  27  28
ENDBRANCH  24  27
ENDBRANCH   4  23
TORSDOF 6
ENDMDL
MODEL 6
REMARK VINA RESULT:      -5.6     17.876     20.617
REMARK  Name = pdb/CHEMBL3671152.pdb
REMARK                            x       y       z     vdW  Elec       q    Type
REMARK                         _______ _______ _______ _____ _____    ______ ____
ROOT
ATOM      1  C   LIG    1      -21.771  83.115  13.095  0.00  0.00    +0.126 A 
ATOM      2  N   LIG    1      -22.318  82.026  13.602  0.00  0.00    -0.212 NA
ATOM      3  C   LIG    1      -21.602  81.285  14.504  0.00  0.00    +0.170 A 
ATOM      4  C   LIG    1      -21.919  80.169  15.256  0.00  0.00    +0.100 A 
ATOM      5  C   LIG    1      -20.752  79.912  16.006  0.00  0.00    +0.150 A 
ATOM      6  N   LIG    1      -19.760  80.763  15.747  0.00  0.00    -0.173 NA
ATOM      7  N   LIG    1      -20.295  81.625  14.852  0.00  0.00    -0.221 N 
ATOM      8  C   LIG    1      -19.693  82.744  14.310  0.00  0.00    +0.118 A 
ATOM      9  C   LIG    1      -20.365  83.525  13.460  0.00  0.00    +0.063 A 
ENDROOT
BRANCH   1  11
ATOM     10  C   LIG    1      -23.522  84.885  12.559  0.00  0.00    +0.108 C 
ATOM     11  N   LIG    1      -22.508  83.875  12.192  0.00  0.00    -0.308 N 
ATOM     12  C   LIG    1      -22.759  83.382  10.830  0.00  0.00    +0.107 C 
ATOM     13  C   LIG    1      -24.201  83.767  10.547  0.00  0.00    +0.021 C 
ATOM     14  C   LIG    1      -24.332  85.097  11.266  0.00  0.00    +0.029 C 
BRANCH  10  18
ATOM     15  F   LIG    1      -21.831  89.462  11.902  0.00  0.00    -0.205 F 
ATOM     16  C   LIG    1      -22.116  88.451  12.733  0.00  0.00    +0.124 A 
ATOM     17  C   LIG    1      -22.664  87.275  12.218  0.00  0.00    +0.046 A 
ATOM     18  C   LIG    1      -22.945  86.192  13.068  0.00  0.00    +0.011 A 
ATOM     19  C   LIG    1      -22.664  86.346  14.434  0.00  0.00    +0.129 A 
ATOM     20  F   LIG    1      -22.891  85.329  15.279  0.00  0.00    -0.205 F 
ATOM     21  C   LIG    1      -22.127  87.528  14.948  0.00  0.00    +0.041 A 
ATOM     22  C   LIG    1      -21.853  88.590  14.091  0.00  0.00    +0.041 A 
ENDBRANCH  10  18
ENDBRANCH   1  11
BRANCH   4  23
ATOM     23  C   LIG    1      -23.144  79.398  15.309  0.00  0.00    +0.249 C 
ATOM     24  N   LIG    1      -24.282  80.082  14.937  0.00  0.00    -0.310 N 
ATOM     25  H   LIG    1      -24.214  81.084  14.767  0.00  0.00    +0.149 HD
ATOM     26  O   LIG    1      -23.148  78.210  15.589  0.00  0.00    -0.270 OA
BRANCH  24  27
ATOM     27  C   LIG    1      -25.552  79.400  14.794  0.00  0.00    +0.123 C 
BRANCH  27  28
ATOM     28  C   LIG    1      -25.611  78.459  13.589  0.00  0.00    +0.128 C 
BRANCH  28  29
ATOM     29  N   LIG    1      -26.962  78.126  13.179  0.00  0.00    -0.283 N 
ATOM     30  C   LIG    1      -27.729  77.111  13.727  0.00  0.00    +0.302 C 
ATOM     31  O   LIG    1      -27.430  76.395  14.671  0.00  0.00    -0.253 OA
ATOM     32  N   LIG    1      -28.913  77.035  13.012  0.00  0.00    -0.298 N 
ATOM     33  H   LIG    1      -29.662  76.442  13.341  0.00  0.00    +0.150 HD
ATOM     34  C   LIG    1      -29.037  78.158  12.124  0.00  0.00    +0.124 C 
ATOM     35  C   LIG    1      -27.610  78.679  12.006  0.00  0.00    +0.128 C 
ENDBRANCH  28  29
ENDBRANCH  27  28
ENDBRANCH  24  27
ENDBRANCH   4  23
TORSDOF 6
ENDMDL
MODEL 7
REMARK VINA RESULT:      -5.5      4.772      7.495
REMARK  Name = pdb/CHEMBL3671152.pdb
REMARK                            x       y       z     vdW  Elec       q    Type
REMARK                         _______ _______ _______ _____ _____    ______ ____
ROOT
ATOM      1  C   LIG    1      -24.125  78.844  34.513  0.00  0.00    +0.126 A 
ATOM      2  N   LIG    1      -24.627  79.853  35.200  0.00  0.00    -0.212 NA
ATOM      3  C   LIG    1      -23.781  80.827  35.658  0.00  0.00    +0.170 A 
ATOM      4  C   LIG    1      -24.003  82.021  36.319  0.00  0.00    +0.100 A 
ATOM      5  C   LIG    1      -22.715  82.572  36.483  0.00  0.00    +0.150 A 
ATOM      6  N   LIG    1      -21.744  81.799  36.000  0.00  0.00    -0.173 NA
ATOM      7  N   LIG    1      -22.403  80.746  35.464  0.00  0.00    -0.221 N 
ATOM      8  C   LIG    1      -21.853  79.683  34.773  0.00  0.00    +0.118 A 
ATOM      9  C   LIG    1      -22.640  78.730  34.267  0.00  0.00    +0.063 A 
ENDROOT
BRANCH   1  11
ATOM     10  C   LIG    1      -25.420  77.726  32.626  0.00  0.00    +0.108 C 
ATOM     11  N   LIG    1      -24.990  77.865  34.033  0.00  0.00    -0.308 N 
ATOM     12  C   LIG    1      -25.974  77.236  34.925  0.00  0.00    +0.107 C 
ATOM     13  C   LIG    1      -27.230  77.114  34.079  0.00  0.00    +0.021 C 
ATOM     14  C   LIG    1      -26.668  76.825  32.699  0.00  0.00    +0.029 C 
BRANCH  10  18
ATOM     15  F   LIG    1      -22.026  74.350  31.477  0.00  0.00    -0.205 F 
ATOM     16  C   LIG    1      -22.698  75.461  31.150  0.00  0.00    +0.124 A 
ATOM     17  C   LIG    1      -23.670  75.955  32.019  0.00  0.00    +0.046 A 
ATOM     18  C   LIG    1      -24.368  77.134  31.708  0.00  0.00    +0.011 A 
ATOM     19  C   LIG    1      -24.055  77.777  30.501  0.00  0.00    +0.129 A 
ATOM     20  F   LIG    1      -24.676  78.920  30.174  0.00  0.00    -0.205 F 
ATOM     21  C   LIG    1      -23.089  77.274  29.626  0.00  0.00    +0.041 A 
ATOM     22  C   LIG    1      -22.407  76.105  29.952  0.00  0.00    +0.041 A 
ENDBRANCH  10  18
ENDBRANCH   1  11
BRANCH   4  23
ATOM     23  C   LIG    1      -25.243  82.623  36.766  0.00  0.00    +0.249 C 
ATOM     24  N   LIG    1      -26.119  81.761  37.392  0.00  0.00    -0.310 N 
ATOM     25  H   LIG    1      -25.902  80.766  37.398  0.00  0.00    +0.149 HD
ATOM     26  O   LIG    1      -25.454  83.821  36.660  0.00  0.00    -0.270 OA
BRANCH  24  27
ATOM     27  C   LIG    1      -27.327  82.252  38.025  0.00  0.00    +0.123 C 
BRANCH  27  28
ATOM     28  C   LIG    1      -28.576  82.113  37.152  0.00  0.00    +0.128 C 
BRANCH  28  29
ATOM     29  N   LIG    1      -29.314  83.352  36.998  0.00  0.00    -0.283 N 
ATOM     30  C   LIG    1      -29.083  84.295  36.009  0.00  0.00    +0.302 C 
ATOM     31  O   LIG    1      -28.290  84.206  35.084  0.00  0.00    -0.253 OA
ATOM     32  N   LIG    1      -29.912  85.378  36.248  0.00  0.00    -0.298 N 
ATOM     33  H   LIG    1      -29.987  86.116  35.562  0.00  0.00    +0.150 HD
ATOM     34  C   LIG    1      -30.868  85.063  37.273  0.00  0.00    +0.124 C 
ATOM     35  C   LIG    1      -30.253  83.861  37.978  0.00  0.00    +0.128 C 
ENDBRANCH  28  29
ENDBRANCH  27  28
ENDBRANCH  24  27
ENDBRANCH   4  23
TORSDOF 6
ENDMDL
MODEL 8
REMARK VINA RESULT:      -5.5     12.684     17.399
REMARK  Name = pdb/CHEMBL3671152.pdb
REMARK                            x       y       z     vdW  Elec       q    Type
REMARK                         _______ _______ _______ _____ _____    ______ ____
ROOT
ATOM      1  C   LIG    1      -38.356  74.800  27.081  0.00  0.00    +0.126 A 
ATOM      2  N   LIG    1      -37.070  74.942  27.339  0.00  0.00    -0.212 NA
ATOM      3  C   LIG    1      -36.464  74.056  28.190  0.00  0.00    +0.170 A 
ATOM      4  C   LIG    1      -35.150  73.892  28.586  0.00  0.00    +0.100 A 
ATOM      5  C   LIG    1      -35.185  72.782  29.457  0.00  0.00    +0.150 A 
ATOM      6  N   LIG    1      -36.410  72.289  29.633  0.00  0.00    -0.173 NA
ATOM      7  N   LIG    1      -37.187  73.048  28.828  0.00  0.00    -0.221 N 
ATOM      8  C   LIG    1      -38.541  72.901  28.596  0.00  0.00    +0.118 A 
ATOM      9  C   LIG    1      -39.169  73.711  27.739  0.00  0.00    +0.063 A 
ENDROOT
BRANCH   1  11
ATOM     10  C   LIG    1      -38.962  75.569  24.730  0.00  0.00    +0.108 C 
ATOM     11  N   LIG    1      -38.965  75.691  26.203  0.00  0.00    -0.308 N 
ATOM     12  C   LIG    1      -39.183  77.092  26.591  0.00  0.00    +0.107 C 
ATOM     13  C   LIG    1      -38.857  77.888  25.339  0.00  0.00    +0.021 C 
ATOM     14  C   LIG    1      -39.350  76.975  24.232  0.00  0.00    +0.029 C 
BRANCH  10  18
ATOM     15  F   LIG    1      -43.262  74.125  22.816  0.00  0.00    -0.205 F 
ATOM     16  C   LIG    1      -42.032  73.813  23.242  0.00  0.00    +0.124 A 
ATOM     17  C   LIG    1      -41.192  74.823  23.713  0.00  0.00    +0.046 A 
ATOM     18  C   LIG    1      -39.907  74.513  24.190  0.00  0.00    +0.011 A 
ATOM     19  C   LIG    1      -39.510  73.168  24.165  0.00  0.00    +0.129 A 
ATOM     20  F   LIG    1      -38.302  72.821  24.635  0.00  0.00    -0.205 F 
ATOM     21  C   LIG    1      -40.348  72.160  23.682  0.00  0.00    +0.041 A 
ATOM     22  C   LIG    1      -41.618  72.485  23.215  0.00  0.00    +0.041 A 
ENDBRANCH  10  18
ENDBRANCH   1  11
BRANCH   4  23
ATOM     23  C   LIG    1      -33.967  74.646  28.227  0.00  0.00    +0.249 C 
ATOM     24  N   LIG    1      -34.191  75.726  27.397  0.00  0.00    -0.310 N 
ATOM     25  H   LIG    1      -35.123  75.853  27.006  0.00  0.00    +0.149 HD
ATOM     26  O   LIG    1      -32.868  74.385  28.690  0.00  0.00    -0.270 OA
BRANCH  24  27
ATOM     27  C   LIG    1      -33.129  76.659  27.080  0.00  0.00    +0.123 C 
BRANCH  27  28
ATOM     28  C   LIG    1      -32.892  77.710  28.166  0.00  0.00    +0.128 C 
BRANCH  28  29
ATOM     29  N   LIG    1      -33.875  78.777  28.163  0.00  0.00    -0.283 N 
ATOM     30  C   LIG    1      -35.139  78.691  28.722  0.00  0.00    +0.302 C 
ATOM     31  O   LIG    1      -35.597  77.753  29.358  0.00  0.00    -0.253 OA
ATOM     32  N   LIG    1      -35.816  79.864  28.432  0.00  0.00    -0.298 N 
ATOM     33  H   LIG    1      -36.710  80.049  28.865  0.00  0.00    +0.150 HD
ATOM     34  C   LIG    1      -34.920  80.836  27.870  0.00  0.00    +0.124 C 
ATOM     35  C   LIG    1      -33.738  80.000  27.397  0.00  0.00    +0.128 C 
ENDBRANCH  28  29
ENDBRANCH  27  28
ENDBRANCH  24  27
ENDBRANCH   4  23
TORSDOF 6
ENDMDL
MODEL 9
REMARK VINA RESULT:      -5.4     16.423     18.430
REMARK  Name = pdb/CHEMBL3671152.pdb
REMARK                            x       y       z     vdW  Elec       q    Type
REMARK                         _______ _______ _______ _____ _____    ______ ____
ROOT
ATOM      1  C   LIG    1      -23.741  76.451  14.395  0.00  0.00    +0.126 A 
ATOM      2  N   LIG    1      -23.863  75.318  15.062  0.00  0.00    -0.212 NA
ATOM      3  C   LIG    1      -22.765  74.805  15.699  0.00  0.00    +0.170 A 
ATOM      4  C   LIG    1      -22.593  73.710  16.526  0.00  0.00    +0.100 A 
ATOM      5  C   LIG    1      -21.225  73.747  16.871  0.00  0.00    +0.150 A 
ATOM      6  N   LIG    1      -20.564  74.753  16.301  0.00  0.00    -0.173 NA
ATOM      7  N   LIG    1      -21.517  75.421  15.611  0.00  0.00    -0.221 N 
ATOM      8  C   LIG    1      -21.361  76.590  14.893  0.00  0.00    +0.118 A 
ATOM      9  C   LIG    1      -22.410  77.156  14.291  0.00  0.00    +0.063 A 
ENDROOT
BRANCH   1  11
ATOM     10  C   LIG    1      -25.731  78.037  14.317  0.00  0.00    +0.108 C 
ATOM     11  N   LIG    1      -24.863  76.979  13.762  0.00  0.00    -0.308 N 
ATOM     12  C   LIG    1      -25.605  76.185  12.772  0.00  0.00    +0.107 C 
ATOM     13  C   LIG    1      -27.065  76.485  13.064  0.00  0.00    +0.021 C 
ATOM     14  C   LIG    1      -27.024  77.942  13.483  0.00  0.00    +0.029 C 
BRANCH  10  18
ATOM     15  F   LIG    1      -24.875  82.318  12.042  0.00  0.00    -0.205 F 
ATOM     16  C   LIG    1      -24.722  81.541  13.120  0.00  0.00    +0.124 A 
ATOM     17  C   LIG    1      -25.306  80.274  13.140  0.00  0.00    +0.046 A 
ATOM     18  C   LIG    1      -25.136  79.431  14.251  0.00  0.00    +0.011 A 
ATOM     19  C   LIG    1      -24.373  79.915  15.325  0.00  0.00    +0.129 A 
ATOM     20  F   LIG    1      -24.161  79.135  16.396  0.00  0.00    -0.205 F 
ATOM     21  C   LIG    1      -23.800  81.188  15.308  0.00  0.00    +0.041 A 
ATOM     22  C   LIG    1      -23.978  82.009  14.198  0.00  0.00    +0.041 A 
ENDBRANCH  10  18
ENDBRANCH   1  11
BRANCH   4  23
ATOM     23  C   LIG    1      -23.551  72.720  16.974  0.00  0.00    +0.249 C 
ATOM     24  N   LIG    1      -24.531  72.399  16.058  0.00  0.00    -0.310 N 
ATOM     25  H   LIG    1      -24.591  72.943  15.199  0.00  0.00    +0.149 HD
ATOM     26  O   LIG    1      -23.445  72.161  18.054  0.00  0.00    -0.270 OA
BRANCH  24  27
ATOM     27  C   LIG    1      -25.463  71.318  16.308  0.00  0.00    +0.123 C 
BRANCH  27  28
ATOM     28  C   LIG    1      -26.859  71.793  16.713  0.00  0.00    +0.128 C 
BRANCH  28  29
ATOM     29  N   LIG    1      -27.374  71.134  17.899  0.00  0.00    -0.283 N 
ATOM     30  C   LIG    1      -28.572  71.443  18.521  0.00  0.00    +0.302 C 
ATOM     31  O   LIG    1      -29.408  72.250  18.141  0.00  0.00    -0.253 OA
ATOM     32  N   LIG    1      -28.669  70.676  19.670  0.00  0.00    -0.298 N 
ATOM     33  H   LIG    1      -29.533  70.661  20.193  0.00  0.00    +0.150 HD
ATOM     34  C   LIG    1      -27.634  69.680  19.698  0.00  0.00    +0.124 C 
ATOM     35  C   LIG    1      -26.605  70.206  18.705  0.00  0.00    +0.128 C 
ENDBRANCH  28  29
ENDBRANCH  27  28
ENDBRANCH  24  27
ENDBRANCH   4  23
TORSDOF 6
ENDMDL
