MODEL 1
REMARK VINA RESULT:      -5.7      0.000      0.000
REMARK  Name = pdb/CHEMBL3675966.pdb
REMARK                            x       y       z     vdW  Elec       q    Type
REMARK                         _______ _______ _______ _____ _____    ______ ____
ROOT
ATOM      1  C   LIG    1      -20.354  77.239  30.734  0.00  0.00    +0.100 A 
ATOM      2  C   LIG    1      -19.757  77.803  31.849  0.00  0.00    +0.170 A 
ATOM      3  N   LIG    1      -20.253  78.470  32.947  0.00  0.00    -0.212 NA
ATOM      4  C   LIG    1      -19.402  78.856  33.880  0.00  0.00    +0.126 A 
ATOM      5  C   LIG    1      -17.923  78.549  33.782  0.00  0.00    +0.063 A 
ATOM      6  C   LIG    1      -17.490  77.927  32.683  0.00  0.00    +0.118 A 
ATOM      7  N   LIG    1      -18.385  77.561  31.699  0.00  0.00    -0.221 N 
ATOM      8  N   LIG    1      -18.090  76.948  30.532  0.00  0.00    -0.173 NA
ATOM      9  C   LIG    1      -19.276  76.761  29.957  0.00  0.00    +0.150 A 
ENDROOT
BRANCH   4  10
ATOM     10  N   LIG    1      -19.870  79.572  34.974  0.00  0.00    -0.308 N 
ATOM     11  C   LIG    1      -21.105  80.360  35.015  0.00  0.00    +0.107 C 
ATOM     12  C   LIG    1      -20.922  81.277  36.233  0.00  0.00    +0.029 C 
ATOM     13  C   LIG    1      -20.056  80.449  37.166  0.00  0.00    +0.021 C 
ATOM     14  C   LIG    1      -19.098  79.747  36.206  0.00  0.00    +0.107 C 
BRANCH  11  15
ATOM     15  C   LIG    1      -22.341  79.498  35.162  0.00  0.00    -0.006 A 
ATOM     16  C   LIG    1      -22.358  78.291  35.875  0.00  0.00    +0.046 A 
ATOM     17  C   LIG    1      -23.555  77.615  36.049  0.00  0.00    +0.142 A 
ATOM     18  F   LIG    1      -23.591  76.481  36.757  0.00  0.00    -0.204 F 
ATOM     19  C   LIG    1      -24.707  78.142  35.498  0.00  0.00    +0.149 A 
ATOM     20  N   LIG    1      -24.732  79.285  34.772  0.00  0.00    -0.260 NA
ATOM     21  C   LIG    1      -23.553  79.933  34.622  0.00  0.00    +0.116 A 
ENDBRANCH  11  15
ENDBRANCH   4  10
BRANCH   1  24
ATOM     22  N   LIG    1      -22.660  77.302  31.389  0.00  0.00    -0.306 N 
ATOM     23  H   LIG    1      -22.296  77.543  32.307  0.00  0.00    +0.150 HD
ATOM     24  C   LIG    1      -21.755  77.107  30.369  0.00  0.00    +0.250 C 
ATOM     25  O   LIG    1      -22.084  76.822  29.224  0.00  0.00    -0.270 OA
BRANCH  22  27
ATOM     26  C   LIG    1      -24.777  78.257  30.469  0.00  0.00    +0.031 C 
ATOM     27  C   LIG    1      -24.087  77.135  31.210  0.00  0.00    +0.032 C 
ATOM     28  C   LIG    1      -24.640  75.745  30.985  0.00  0.00    +0.027 C 
ATOM     29  C   LIG    1      -24.874  76.432  32.297  0.00  0.00    +0.027 C 
ENDBRANCH  22  27
ENDBRANCH   1  24
TORSDOF 4
ENDMDL
MODEL 2
REMARK VINA RESULT:      -5.6      1.949      5.034
REMARK  Name = pdb/CHEMBL3675966.pdb
REMARK                            x       y       z     vdW  Elec       q    Type
REMARK                         _______ _______ _______ _____ _____    ______ ____
ROOT
ATOM      1  C   LIG    1      -20.782  76.883  30.696  0.00  0.00    +0.100 A 
ATOM      2  C   LIG    1      -22.021  77.187  31.237  0.00  0.00    +0.170 A 
ATOM      3  N   LIG    1      -22.447  77.460  32.517  0.00  0.00    -0.212 NA
ATOM      4  C   LIG    1      -23.721  77.758  32.699  0.00  0.00    +0.126 A 
ATOM      5  C   LIG    1      -24.691  77.841  31.541  0.00  0.00    +0.063 A 
ATOM      6  C   LIG    1      -24.233  77.538  30.325  0.00  0.00    +0.118 A 
ATOM      7  N   LIG    1      -22.908  77.192  30.152  0.00  0.00    -0.221 N 
ATOM      8  N   LIG    1      -22.313  76.843  28.991  0.00  0.00    -0.173 NA
ATOM      9  C   LIG    1      -21.039  76.656  29.326  0.00  0.00    +0.150 A 
ENDROOT
BRANCH   4  10
ATOM     10  N   LIG    1      -24.187  77.991  33.987  0.00  0.00    -0.308 N 
ATOM     11  C   LIG    1      -23.359  78.083  35.192  0.00  0.00    +0.107 C 
ATOM     12  C   LIG    1      -24.356  77.890  36.345  0.00  0.00    +0.029 C 
ATOM     13  C   LIG    1      -25.646  78.469  35.790  0.00  0.00    +0.021 C 
ATOM     14  C   LIG    1      -25.611  78.034  34.326  0.00  0.00    +0.107 C 
BRANCH  11  15
ATOM     15  C   LIG    1      -22.643  79.412  35.306  0.00  0.00    -0.006 A 
ATOM     16  C   LIG    1      -23.308  80.633  35.482  0.00  0.00    +0.046 A 
ATOM     17  C   LIG    1      -22.575  81.791  35.681  0.00  0.00    +0.142 A 
ATOM     18  F   LIG    1      -23.198  82.958  35.884  0.00  0.00    -0.204 F 
ATOM     19  C   LIG    1      -21.195  81.716  35.686  0.00  0.00    +0.149 A 
ATOM     20  N   LIG    1      -20.509  80.566  35.486  0.00  0.00    -0.260 NA
ATOM     21  C   LIG    1      -21.247  79.446  35.302  0.00  0.00    +0.116 A 
ENDBRANCH  11  15
ENDBRANCH   4  10
BRANCH   1  24
ATOM     22  N   LIG    1      -19.387  77.262  32.609  0.00  0.00    -0.306 N 
ATOM     23  H   LIG    1      -20.242  77.592  33.050  0.00  0.00    +0.150 HD
ATOM     24  C   LIG    1      -19.467  76.808  31.311  0.00  0.00    +0.250 C 
ATOM     25  O   LIG    1      -18.503  76.379  30.688  0.00  0.00    -0.270 OA
BRANCH  22  27
ATOM     26  C   LIG    1      -17.650  76.003  33.889  0.00  0.00    +0.031 C 
ATOM     27  C   LIG    1      -18.139  77.323  33.340  0.00  0.00    +0.032 C 
ATOM     28  C   LIG    1      -17.073  78.296  32.888  0.00  0.00    +0.027 C 
ATOM     29  C   LIG    1      -17.837  78.568  34.149  0.00  0.00    +0.027 C 
ENDBRANCH  22  27
ENDBRANCH   1  24
TORSDOF 4
ENDMDL
MODEL 3
REMARK VINA RESULT:      -5.6      2.213      3.473
REMARK  Name = pdb/CHEMBL3675966.pdb
REMARK                            x       y       z     vdW  Elec       q    Type
REMARK                         _______ _______ _______ _____ _____    ______ ____
ROOT
ATOM      1  C   LIG    1      -24.238  77.330  31.121  0.00  0.00    +0.100 A 
ATOM      2  C   LIG    1      -22.952  77.577  31.573  0.00  0.00    +0.170 A 
ATOM      3  N   LIG    1      -22.422  77.814  32.821  0.00  0.00    -0.212 NA
ATOM      4  C   LIG    1      -21.116  77.976  32.924  0.00  0.00    +0.126 A 
ATOM      5  C   LIG    1      -20.205  77.868  31.720  0.00  0.00    +0.063 A 
ATOM      6  C   LIG    1      -20.772  77.666  30.529  0.00  0.00    +0.118 A 
ATOM      7  N   LIG    1      -22.142  77.535  30.430  0.00  0.00    -0.221 N 
ATOM      8  N   LIG    1      -22.852  77.349  29.296  0.00  0.00    -0.173 NA
ATOM      9  C   LIG    1      -24.109  77.230  29.719  0.00  0.00    +0.150 A 
ENDROOT
BRANCH   4  10
ATOM     10  N   LIG    1      -20.561  78.265  34.164  0.00  0.00    -0.308 N 
ATOM     11  C   LIG    1      -20.229  79.603  34.662  0.00  0.00    +0.107 C 
ATOM     12  C   LIG    1      -19.263  79.338  35.826  0.00  0.00    +0.029 C 
ATOM     13  C   LIG    1      -19.726  77.995  36.364  0.00  0.00    +0.021 C 
ATOM     14  C   LIG    1      -20.099  77.232  35.094  0.00  0.00    +0.107 C 
BRANCH  11  15
ATOM     15  C   LIG    1      -21.447  80.370  35.126  0.00  0.00    -0.006 A 
ATOM     16  C   LIG    1      -22.750  79.853  35.076  0.00  0.00    +0.046 A 
ATOM     17  C   LIG    1      -23.798  80.581  35.617  0.00  0.00    +0.142 A 
ATOM     18  F   LIG    1      -25.039  80.083  35.607  0.00  0.00    -0.204 F 
ATOM     19  C   LIG    1      -23.534  81.814  36.183  0.00  0.00    +0.149 A 
ATOM     20  N   LIG    1      -22.299  82.368  36.222  0.00  0.00    -0.260 NA
ATOM     21  C   LIG    1      -21.290  81.635  35.695  0.00  0.00    +0.116 A 
ENDBRANCH  11  15
ENDBRANCH   4  10
BRANCH   1  24
ATOM     22  N   LIG    1      -25.397  76.551  33.070  0.00  0.00    -0.306 N 
ATOM     23  H   LIG    1      -24.475  76.265  33.390  0.00  0.00    +0.150 HD
ATOM     24  C   LIG    1      -25.489  77.176  31.846  0.00  0.00    +0.250 C 
ATOM     25  O   LIG    1      -26.546  77.570  31.370  0.00  0.00    -0.270 OA
BRANCH  22  27
ATOM     26  C   LIG    1      -27.148  77.438  34.616  0.00  0.00    +0.031 C 
ATOM     27  C   LIG    1      -26.557  76.255  33.885  0.00  0.00    +0.032 C 
ATOM     28  C   LIG    1      -27.536  75.204  33.411  0.00  0.00    +0.027 C 
ATOM     29  C   LIG    1      -26.633  74.906  34.569  0.00  0.00    +0.027 C 
ENDBRANCH  22  27
ENDBRANCH   1  24
TORSDOF 4
ENDMDL
MODEL 4
REMARK VINA RESULT:      -5.5     18.378     20.843
REMARK  Name = pdb/CHEMBL3675966.pdb
REMARK                            x       y       z     vdW  Elec       q    Type
REMARK                         _______ _______ _______ _____ _____    ______ ____
ROOT
ATOM      1  C   LIG    1      -18.813  85.744  13.215  0.00  0.00    +0.100 A 
ATOM      2  C   LIG    1      -18.958  84.424  13.608  0.00  0.00    +0.170 A 
ATOM      3  N   LIG    1      -19.954  83.744  14.272  0.00  0.00    -0.212 NA
ATOM      4  C   LIG    1      -19.803  82.446  14.462  0.00  0.00    +0.126 A 
ATOM      5  C   LIG    1      -18.594  81.701  13.938  0.00  0.00    +0.063 A 
ATOM      6  C   LIG    1      -17.644  82.413  13.328  0.00  0.00    +0.118 A 
ATOM      7  N   LIG    1      -17.797  83.775  13.167  0.00  0.00    -0.221 N 
ATOM      8  N   LIG    1      -16.916  84.621  12.592  0.00  0.00    -0.173 NA
ATOM      9  C   LIG    1      -17.530  85.800  12.627  0.00  0.00    +0.150 A 
ENDROOT
BRANCH   4  10
ATOM     10  N   LIG    1      -20.770  81.745  15.171  0.00  0.00    -0.308 N 
ATOM     11  C   LIG    1      -22.042  82.292  15.652  0.00  0.00    +0.107 C 
ATOM     12  C   LIG    1      -22.500  81.288  16.720  0.00  0.00    +0.029 C 
ATOM     13  C   LIG    1      -21.930  79.969  16.225  0.00  0.00    +0.021 C 
ATOM     14  C   LIG    1      -20.572  80.378  15.659  0.00  0.00    +0.107 C 
BRANCH  11  15
ATOM     15  C   LIG    1      -23.072  82.426  14.551  0.00  0.00    -0.006 A 
ATOM     16  C   LIG    1      -22.963  83.349  13.502  0.00  0.00    +0.046 A 
ATOM     17  C   LIG    1      -23.897  83.336  12.478  0.00  0.00    +0.142 A 
ATOM     18  F   LIG    1      -23.784  84.189  11.453  0.00  0.00    -0.204 F 
ATOM     19  C   LIG    1      -24.928  82.418  12.525  0.00  0.00    +0.149 A 
ATOM     20  N   LIG    1      -25.094  81.532  13.535  0.00  0.00    -0.260 NA
ATOM     21  C   LIG    1      -24.165  81.557  14.520  0.00  0.00    +0.116 A 
ENDBRANCH  11  15
ENDBRANCH   4  10
BRANCH   1  24
ATOM     22  N   LIG    1      -21.060  86.564  13.382  0.00  0.00    -0.306 N 
ATOM     23  H   LIG    1      -21.321  85.581  13.367  0.00  0.00    +0.150 HD
ATOM     24  C   LIG    1      -19.719  86.876  13.325  0.00  0.00    +0.250 C 
ATOM     25  O   LIG    1      -19.294  88.024  13.345  0.00  0.00    -0.270 OA
BRANCH  22  27
ATOM     26  C   LIG    1      -22.396  88.137  14.789  0.00  0.00    +0.031 C 
ATOM     27  C   LIG    1      -22.096  87.575  13.419  0.00  0.00    +0.032 C 
ATOM     28  C   LIG    1      -22.223  88.536  12.258  0.00  0.00    +0.027 C 
ATOM     29  C   LIG    1      -23.251  87.461  12.445  0.00  0.00    +0.027 C 
ENDBRANCH  22  27
ENDBRANCH   1  24
TORSDOF 4
ENDMDL
MODEL 5
REMARK VINA RESULT:      -5.4      2.091      5.261
REMARK  Name = pdb/CHEMBL3675966.pdb
REMARK                            x       y       z     vdW  Elec       q    Type
REMARK                         _______ _______ _______ _____ _____    ______ ____
ROOT
ATOM      1  C   LIG    1      -18.985  78.689  33.831  0.00  0.00    +0.100 A 
ATOM      2  C   LIG    1      -19.711  78.143  32.785  0.00  0.00    +0.170 A 
ATOM      3  N   LIG    1      -21.059  77.982  32.558  0.00  0.00    -0.212 NA
ATOM      4  C   LIG    1      -21.440  77.447  31.413  0.00  0.00    +0.126 A 
ATOM      5  C   LIG    1      -20.438  77.050  30.349  0.00  0.00    +0.063 A 
ATOM      6  C   LIG    1      -19.142  77.200  30.632  0.00  0.00    +0.118 A 
ATOM      7  N   LIG    1      -18.756  77.727  31.847  0.00  0.00    -0.221 N 
ATOM      8  N   LIG    1      -17.490  77.916  32.277  0.00  0.00    -0.173 NA
ATOM      9  C   LIG    1      -17.635  78.490  33.468  0.00  0.00    +0.150 A 
ENDROOT
BRANCH   4  10
ATOM     10  N   LIG    1      -22.791  77.229  31.179  0.00  0.00    -0.308 N 
ATOM     11  C   LIG    1      -23.661  76.339  31.954  0.00  0.00    +0.107 C 
ATOM     12  C   LIG    1      -24.875  76.117  31.040  0.00  0.00    +0.029 C 
ATOM     13  C   LIG    1      -24.965  77.415  30.258  0.00  0.00    +0.021 C 
ATOM     14  C   LIG    1      -23.499  77.767  30.015  0.00  0.00    +0.107 C 
BRANCH  11  15
ATOM     15  C   LIG    1      -24.077  76.941  33.279  0.00  0.00    -0.006 A 
ATOM     16  C   LIG    1      -24.104  78.321  33.524  0.00  0.00    +0.046 A 
ATOM     17  C   LIG    1      -24.596  78.794  34.729  0.00  0.00    +0.142 A 
ATOM     18  F   LIG    1      -24.660  80.110  34.962  0.00  0.00    -0.204 F 
ATOM     19  C   LIG    1      -25.038  77.886  35.674  0.00  0.00    +0.149 A 
ATOM     20  N   LIG    1      -24.998  76.545  35.495  0.00  0.00    -0.260 NA
ATOM     21  C   LIG    1      -24.520  76.107  34.306  0.00  0.00    +0.116 A 
ENDBRANCH  11  15
ENDBRANCH   4  10
BRANCH   1  24
ATOM     22  N   LIG    1      -20.712  79.829  35.041  0.00  0.00    -0.306 N 
ATOM     23  H   LIG    1      -21.272  79.673  34.206  0.00  0.00    +0.150 HD
ATOM     24  C   LIG    1      -19.422  79.349  35.051  0.00  0.00    +0.250 C 
ATOM     25  O   LIG    1      -18.665  79.472  36.006  0.00  0.00    -0.270 OA
BRANCH  22  27
ATOM     26  C   LIG    1      -21.773  79.734  37.301  0.00  0.00    +0.031 C 
ATOM     27  C   LIG    1      -21.277  80.574  36.147  0.00  0.00    +0.032 C 
ATOM     28  C   LIG    1      -20.681  81.918  36.505  0.00  0.00    +0.027 C 
ATOM     29  C   LIG    1      -22.026  81.856  35.846  0.00  0.00    +0.027 C 
ENDBRANCH  22  27
ENDBRANCH   1  24
TORSDOF 4
ENDMDL
MODEL 6
REMARK VINA RESULT:      -5.4      1.993      4.877
REMARK  Name = pdb/CHEMBL3675966.pdb
REMARK                            x       y       z     vdW  Elec       q    Type
REMARK                         _______ _______ _______ _____ _____    ______ ____
ROOT
ATOM      1  C   LIG    1      -24.576  77.663  32.096  0.00  0.00    +0.100 A 
ATOM      2  C   LIG    1      -23.292  77.484  31.607  0.00  0.00    +0.170 A 
ATOM      3  N   LIG    1      -22.045  77.558  32.187  0.00  0.00    -0.212 NA
ATOM      4  C   LIG    1      -20.992  77.285  31.438  0.00  0.00    +0.126 A 
ATOM      5  C   LIG    1      -21.133  76.862  29.992  0.00  0.00    +0.063 A 
ATOM      6  C   LIG    1      -22.362  76.835  29.471  0.00  0.00    +0.118 A 
ATOM      7  N   LIG    1      -23.452  77.157  30.254  0.00  0.00    -0.221 N 
ATOM      8  N   LIG    1      -24.743  77.193  29.860  0.00  0.00    -0.173 NA
ATOM      9  C   LIG    1      -25.410  77.500  30.969  0.00  0.00    +0.150 A 
ENDROOT
BRANCH   4  10
ATOM     10  N   LIG    1      -19.720  77.400  31.985  0.00  0.00    -0.308 N 
ATOM     11  C   LIG    1      -19.102  78.642  32.458  0.00  0.00    +0.107 C 
ATOM     12  C   LIG    1      -17.604  78.309  32.525  0.00  0.00    +0.029 C 
ATOM     13  C   LIG    1      -17.590  76.825  32.845  0.00  0.00    +0.021 C 
ATOM     14  C   LIG    1      -18.765  76.291  32.028  0.00  0.00    +0.107 C 
BRANCH  11  15
ATOM     15  C   LIG    1      -19.626  79.075  33.810  0.00  0.00    -0.006 A 
ATOM     16  C   LIG    1      -20.625  80.045  33.975  0.00  0.00    +0.046 A 
ATOM     17  C   LIG    1      -21.121  80.310  35.240  0.00  0.00    +0.142 A 
ATOM     18  F   LIG    1      -22.099  81.208  35.407  0.00  0.00    -0.204 F 
ATOM     19  C   LIG    1      -20.605  79.617  36.320  0.00  0.00    +0.149 A 
ATOM     20  N   LIG    1      -19.616  78.698  36.213  0.00  0.00    -0.260 NA
ATOM     21  C   LIG    1      -19.153  78.450  34.965  0.00  0.00    +0.116 A 
ENDBRANCH  11  15
ENDBRANCH   4  10
BRANCH   1  24
ATOM     22  N   LIG    1      -24.076  78.170  34.386  0.00  0.00    -0.306 N 
ATOM     23  H   LIG    1      -23.106  78.153  34.081  0.00  0.00    +0.150 HD
ATOM     24  C   LIG    1      -25.052  77.940  33.441  0.00  0.00    +0.250 C 
ATOM     25  O   LIG    1      -26.250  77.947  33.697  0.00  0.00    -0.270 OA
BRANCH  22  27
ATOM     26  C   LIG    1      -24.887  79.771  36.123  0.00  0.00    +0.031 C 
ATOM     27  C   LIG    1      -24.378  78.389  35.785  0.00  0.00    +0.032 C 
ATOM     28  C   LIG    1      -24.948  77.248  36.598  0.00  0.00    +0.027 C 
ATOM     29  C   LIG    1      -23.532  77.685  36.825  0.00  0.00    +0.027 C 
ENDBRANCH  22  27
ENDBRANCH   1  24
TORSDOF 4
ENDMDL
MODEL 7
REMARK VINA RESULT:      -5.3     16.060     20.224
REMARK  Name = pdb/CHEMBL3675966.pdb
REMARK                            x       y       z     vdW  Elec       q    Type
REMARK                         _______ _______ _______ _____ _____    ______ ____
ROOT
ATOM      1  C   LIG    1      -37.816  75.930  25.563  0.00  0.00    +0.100 A 
ATOM      2  C   LIG    1      -38.199  74.656  25.175  0.00  0.00    +0.170 A 
ATOM      3  N   LIG    1      -37.672  73.404  25.401  0.00  0.00    -0.212 NA
ATOM      4  C   LIG    1      -38.314  72.359  24.913  0.00  0.00    +0.126 A 
ATOM      5  C   LIG    1      -39.617  72.509  24.157  0.00  0.00    +0.063 A 
ATOM      6  C   LIG    1      -40.068  73.747  23.939  0.00  0.00    +0.118 A 
ATOM      7  N   LIG    1      -39.368  74.833  24.423  0.00  0.00    -0.221 N 
ATOM      8  N   LIG    1      -39.691  76.134  24.263  0.00  0.00    -0.173 NA
ATOM      9  C   LIG    1      -38.754  76.786  24.946  0.00  0.00    +0.150 A 
ENDROOT
BRANCH   4  10
ATOM     10  N   LIG    1      -37.779  71.089  25.087  0.00  0.00    -0.308 N 
ATOM     11  C   LIG    1      -38.520  69.829  24.988  0.00  0.00    +0.107 C 
ATOM     12  C   LIG    1      -37.613  68.808  25.691  0.00  0.00    +0.029 C 
ATOM     13  C   LIG    1      -36.216  69.343  25.427  0.00  0.00    +0.021 C 
ATOM     14  C   LIG    1      -36.406  70.854  25.538  0.00  0.00    +0.107 C 
BRANCH  11  15
ATOM     15  C   LIG    1      -38.791  69.423  23.556  0.00  0.00    -0.006 A 
ATOM     16  C   LIG    1      -37.815  69.449  22.549  0.00  0.00    +0.046 A 
ATOM     17  C   LIG    1      -38.118  68.964  21.287  0.00  0.00    +0.142 A 
ATOM     18  F   LIG    1      -37.186  68.951  20.328  0.00  0.00    -0.204 F 
ATOM     19  C   LIG    1      -39.389  68.476  21.046  0.00  0.00    +0.149 A 
ATOM     20  N   LIG    1      -40.373  68.464  21.976  0.00  0.00    -0.260 NA
ATOM     21  C   LIG    1      -40.051  68.935  23.203  0.00  0.00    +0.116 A 
ENDBRANCH  11  15
ENDBRANCH   4  10
BRANCH   1  24
ATOM     22  N   LIG    1      -35.819  75.410  26.785  0.00  0.00    -0.306 N 
ATOM     23  H   LIG    1      -35.955  74.468  26.424  0.00  0.00    +0.150 HD
ATOM     24  C   LIG    1      -36.727  76.378  26.416  0.00  0.00    +0.250 C 
ATOM     25  O   LIG    1      -36.654  77.543  26.784  0.00  0.00    -0.270 OA
BRANCH  22  27
ATOM     26  C   LIG    1      -33.642  76.582  27.143  0.00  0.00    +0.031 C 
ATOM     27  C   LIG    1      -34.719  75.674  27.689  0.00  0.00    +0.032 C 
ATOM     28  C   LIG    1      -35.001  75.785  29.171  0.00  0.00    +0.027 C 
ATOM     29  C   LIG    1      -34.289  74.577  28.641  0.00  0.00    +0.027 C 
ENDBRANCH  22  27
ENDBRANCH   1  24
TORSDOF 4
ENDMDL
MODEL 8
REMARK VINA RESULT:      -5.3     14.041     17.629
REMARK  Name = pdb/CHEMBL3675966.pdb
REMARK                            x       y       z     vdW  Elec       q    Type
REMARK                         _______ _______ _______ _____ _____    ______ ____
ROOT
ATOM      1  C   LIG    1      -39.274  74.073  24.673  0.00  0.00    +0.100 A 
ATOM      2  C   LIG    1      -38.532  74.943  25.455  0.00  0.00    +0.170 A 
ATOM      3  N   LIG    1      -37.533  74.756  26.384  0.00  0.00    -0.212 NA
ATOM      4  C   LIG    1      -36.988  75.823  26.938  0.00  0.00    +0.126 A 
ATOM      5  C   LIG    1      -37.407  77.224  26.546  0.00  0.00    +0.063 A 
ATOM      6  C   LIG    1      -38.400  77.349  25.662  0.00  0.00    +0.118 A 
ATOM      7  N   LIG    1      -38.987  76.226  25.118  0.00  0.00    -0.221 N 
ATOM      8  N   LIG    1      -40.008  76.199  24.234  0.00  0.00    -0.173 NA
ATOM      9  C   LIG    1      -40.176  74.905  23.975  0.00  0.00    +0.150 A 
ENDROOT
BRANCH   4  10
ATOM     10  N   LIG    1      -36.012  75.661  27.913  0.00  0.00    -0.308 N 
ATOM     11  C   LIG    1      -34.570  75.558  27.671  0.00  0.00    +0.107 C 
ATOM     12  C   LIG    1      -34.017  74.950  28.968  0.00  0.00    +0.029 C 
ATOM     13  C   LIG    1      -34.970  75.472  30.031  0.00  0.00    +0.021 C 
ATOM     14  C   LIG    1      -36.323  75.426  29.324  0.00  0.00    +0.107 C 
BRANCH  11  15
ATOM     15  C   LIG    1      -33.932  76.899  27.381  0.00  0.00    -0.006 A 
ATOM     16  C   LIG    1      -34.298  78.085  28.033  0.00  0.00    +0.046 A 
ATOM     17  C   LIG    1      -33.594  79.251  27.783  0.00  0.00    +0.142 A 
ATOM     18  F   LIG    1      -33.911  80.381  28.425  0.00  0.00    -0.204 F 
ATOM     19  C   LIG    1      -32.548  79.220  26.879  0.00  0.00    +0.149 A 
ATOM     20  N   LIG    1      -32.182  78.108  26.199  0.00  0.00    -0.260 NA
ATOM     21  C   LIG    1      -32.880  76.978  26.466  0.00  0.00    +0.116 A 
ENDBRANCH  11  15
ENDBRANCH   4  10
BRANCH   1  24
ATOM     22  N   LIG    1      -38.193  72.006  25.227  0.00  0.00    -0.306 N 
ATOM     23  H   LIG    1      -37.590  72.584  25.807  0.00  0.00    +0.150 HD
ATOM     24  C   LIG    1      -39.202  72.628  24.526  0.00  0.00    +0.250 C 
ATOM     25  O   LIG    1      -39.990  72.028  23.806  0.00  0.00    -0.270 OA
BRANCH  22  27
ATOM     26  C   LIG    1      -38.900  69.706  25.900  0.00  0.00    +0.031 C 
ATOM     27  C   LIG    1      -37.939  70.583  25.132  0.00  0.00    +0.032 C 
ATOM     28  C   LIG    1      -37.410  70.019  23.832  0.00  0.00    +0.027 C 
ATOM     29  C   LIG    1      -36.503  70.112  25.022  0.00  0.00    +0.027 C 
ENDBRANCH  22  27
ENDBRANCH   1  24
TORSDOF 4
ENDMDL
MODEL 9
REMARK VINA RESULT:      -5.3     19.049     21.528
REMARK  Name = pdb/CHEMBL3675966.pdb
REMARK                            x       y       z     vdW  Elec       q    Type
REMARK                         _______ _______ _______ _____ _____    ______ ____
ROOT
ATOM      1  C   LIG    1      -23.904  81.847  12.049  0.00  0.00    +0.100 A 
ATOM      2  C   LIG    1      -23.712  83.217  11.984  0.00  0.00    +0.170 A 
ATOM      3  N   LIG    1      -23.172  84.135  12.858  0.00  0.00    -0.212 NA
ATOM      4  C   LIG    1      -23.096  85.395  12.470  0.00  0.00    +0.126 A 
ATOM      5  C   LIG    1      -23.548  85.832  11.093  0.00  0.00    +0.063 A 
ATOM      6  C   LIG    1      -24.091  84.908  10.297  0.00  0.00    +0.118 A 
ATOM      7  N   LIG    1      -24.199  83.602  10.727  0.00  0.00    -0.221 N 
ATOM      8  N   LIG    1      -24.741  82.572  10.043  0.00  0.00    -0.173 NA
ATOM      9  C   LIG    1      -24.563  81.523  10.843  0.00  0.00    +0.150 A 
ENDROOT
BRANCH   4  10
ATOM     10  N   LIG    1      -22.600  86.348  13.350  0.00  0.00    -0.308 N 
ATOM     11  C   LIG    1      -21.623  86.103  14.415  0.00  0.00    +0.107 C 
ATOM     12  C   LIG    1      -21.766  87.320  15.340  0.00  0.00    +0.029 C 
ATOM     13  C   LIG    1      -22.176  88.433  14.390  0.00  0.00    +0.021 C 
ATOM     14  C   LIG    1      -23.110  87.720  13.414  0.00  0.00    +0.107 C 
BRANCH  11  15
ATOM     15  C   LIG    1      -20.209  85.979  13.890  0.00  0.00    -0.006 A 
ATOM     16  C   LIG    1      -19.616  84.754  13.552  0.00  0.00    +0.046 A 
ATOM     17  C   LIG    1      -18.354  84.738  12.982  0.00  0.00    +0.142 A 
ATOM     18  F   LIG    1      -17.792  83.578  12.623  0.00  0.00    -0.204 F 
ATOM     19  C   LIG    1      -17.699  85.937  12.772  0.00  0.00    +0.149 A 
ATOM     20  N   LIG    1      -18.217  87.140  13.114  0.00  0.00    -0.260 NA
ATOM     21  C   LIG    1      -19.455  87.132  13.662  0.00  0.00    +0.116 A 
ENDBRANCH  11  15
ENDBRANCH   4  10
BRANCH   1  24
ATOM     22  N   LIG    1      -23.660  81.309  14.373  0.00  0.00    -0.306 N 
ATOM     23  H   LIG    1      -24.021  82.247  14.532  0.00  0.00    +0.150 HD
ATOM     24  C   LIG    1      -23.533  80.881  13.070  0.00  0.00    +0.250 C 
ATOM     25  O   LIG    1      -23.119  79.769  12.765  0.00  0.00    -0.270 OA
BRANCH  22  27
ATOM     26  C   LIG    1      -24.203  79.362  15.840  0.00  0.00    +0.031 C 
ATOM     27  C   LIG    1      -23.265  80.497  15.504  0.00  0.00    +0.032 C 
ATOM     28  C   LIG    1      -21.793  80.242  15.744  0.00  0.00    +0.027 C 
ATOM     29  C   LIG    1      -22.542  81.166  16.655  0.00  0.00    +0.027 C 
ENDBRANCH  22  27
ENDBRANCH   1  24
TORSDOF 4
ENDMDL
