MODEL 1
REMARK VINA RESULT:      -5.8      0.000      0.000
REMARK  Name = pdb/CHEMBL3676051.pdb
REMARK                            x       y       z     vdW  Elec       q    Type
REMARK                         _______ _______ _______ _____ _____    ______ ____
ROOT
ATOM      1  C   LIG    1      -22.655  85.777  12.222  0.00  0.00    +0.126 A 
ATOM      2  N   LIG    1      -22.903  84.690  12.919  0.00  0.00    -0.212 NA
ATOM      3  C   LIG    1      -23.628  83.690  12.332  0.00  0.00    +0.170 A 
ATOM      4  C   LIG    1      -24.026  82.454  12.806  0.00  0.00    +0.100 A 
ATOM      5  C   LIG    1      -24.691  81.868  11.711  0.00  0.00    +0.150 A 
ATOM      6  N   LIG    1      -24.756  82.668  10.642  0.00  0.00    -0.173 NA
ATOM      7  N   LIG    1      -24.112  83.794  11.030  0.00  0.00    -0.221 N 
ATOM      8  C   LIG    1      -23.902  84.956  10.301  0.00  0.00    +0.118 A 
ATOM      9  C   LIG    1      -23.202  85.970  10.828  0.00  0.00    +0.063 A 
ENDROOT
BRANCH   1  11
ATOM     10  C   LIG    1      -20.777  86.372  13.732  0.00  0.00    +0.107 C 
ATOM     11  N   LIG    1      -21.868  86.775  12.794  0.00  0.00    -0.308 N 
ATOM     12  C   LIG    1      -22.529  87.975  13.340  0.00  0.00    +0.107 C 
ATOM     13  C   LIG    1      -22.366  87.834  14.839  0.00  0.00    +0.021 C 
ATOM     14  C   LIG    1      -20.945  87.304  14.953  0.00  0.00    +0.029 C 
BRANCH  10  17
ATOM     15  C   LIG    1      -18.742  84.069  13.619  0.00  0.00    +0.066 C 
ATOM     16  C   LIG    1      -18.474  85.433  13.049  0.00  0.00    +0.043 A 
ATOM     17  C   LIG    1      -19.400  86.493  13.096  0.00  0.00    -0.003 A 
ATOM     18  C   LIG    1      -18.981  87.719  12.545  0.00  0.00    +0.047 A 
ATOM     19  C   LIG    1      -17.723  87.843  11.975  0.00  0.00    +0.142 A 
ATOM     20  F   LIG    1      -17.329  89.010  11.451  0.00  0.00    -0.204 F 
ATOM     21  C   LIG    1      -16.890  86.749  11.963  0.00  0.00    +0.149 A 
ATOM     22  N   LIG    1      -17.238  85.555  12.487  0.00  0.00    -0.257 NA
ENDBRANCH  10  17
ENDBRANCH   1  11
BRANCH   4  23
ATOM     23  C   LIG    1      -23.801  81.882  14.126  0.00  0.00    +0.250 C 
ATOM     24  N   LIG    1      -22.484  81.924  14.540  0.00  0.00    -0.306 N 
ATOM     25  H   LIG    1      -21.831  82.327  13.870  0.00  0.00    +0.150 HD
ATOM     26  O   LIG    1      -24.713  81.412  14.786  0.00  0.00    -0.270 OA
BRANCH  24  27
ATOM     27  C   LIG    1      -21.956  81.426  15.812  0.00  0.00    +0.026 C 
ATOM     28  C   LIG    1      -22.324  79.950  16.020  0.00  0.00    +0.031 C 
ATOM     29  C   LIG    1      -22.467  82.266  16.994  0.00  0.00    +0.031 C 
ATOM     30  C   LIG    1      -20.419  81.543  15.765  0.00  0.00    +0.031 C 
ENDBRANCH  24  27
ENDBRANCH   4  23
TORSDOF 4
ENDMDL
MODEL 2
REMARK VINA RESULT:      -5.8     14.685     17.139
REMARK  Name = pdb/CHEMBL3676051.pdb
REMARK                            x       y       z     vdW  Elec       q    Type
REMARK                         _______ _______ _______ _____ _____    ______ ____
ROOT
ATOM      1  C   LIG    1      -32.987  92.866  20.627  0.00  0.00    +0.126 A 
ATOM      2  N   LIG    1      -33.082  92.969  21.934  0.00  0.00    -0.212 NA
ATOM      3  C   LIG    1      -32.100  93.641  22.609  0.00  0.00    +0.170 A 
ATOM      4  C   LIG    1      -31.943  93.914  23.954  0.00  0.00    +0.100 A 
ATOM      5  C   LIG    1      -30.767  94.690  24.008  0.00  0.00    +0.150 A 
ATOM      6  N   LIG    1      -30.195  94.865  22.814  0.00  0.00    -0.173 NA
ATOM      7  N   LIG    1      -31.010  94.209  21.954  0.00  0.00    -0.221 N 
ATOM      8  C   LIG    1      -30.870  94.064  20.581  0.00  0.00    +0.118 A 
ATOM      9  C   LIG    1      -31.800  93.411  19.870  0.00  0.00    +0.063 A 
ENDROOT
BRANCH   1  11
ATOM     10  C   LIG    1      -34.129  92.473  18.458  0.00  0.00    +0.107 C 
ATOM     11  N   LIG    1      -34.013  92.232  19.928  0.00  0.00    -0.308 N 
ATOM     12  C   LIG    1      -35.370  92.230  20.505  0.00  0.00    +0.107 C 
ATOM     13  C   LIG    1      -36.154  93.161  19.603  0.00  0.00    +0.021 C 
ATOM     14  C   LIG    1      -35.623  92.787  18.227  0.00  0.00    +0.029 C 
BRANCH  10  17
ATOM     15  C   LIG    1      -32.547  92.721  15.832  0.00  0.00    +0.066 C 
ATOM     16  C   LIG    1      -32.930  91.402  16.440  0.00  0.00    +0.043 A 
ATOM     17  C   LIG    1      -33.654  91.279  17.642  0.00  0.00    -0.003 A 
ATOM     18  C   LIG    1      -33.962  89.971  18.060  0.00  0.00    +0.047 A 
ATOM     19  C   LIG    1      -33.547  88.876  17.316  0.00  0.00    +0.142 A 
ATOM     20  F   LIG    1      -33.841  87.634  17.718  0.00  0.00    -0.204 F 
ATOM     21  C   LIG    1      -32.833  89.093  16.161  0.00  0.00    +0.149 A 
ATOM     22  N   LIG    1      -32.520  90.326  15.710  0.00  0.00    -0.257 NA
ENDBRANCH  10  17
ENDBRANCH   1  11
BRANCH   4  23
ATOM     23  C   LIG    1      -32.796  93.507  25.061  0.00  0.00    +0.250 C 
ATOM     24  N   LIG    1      -34.056  93.092  24.677  0.00  0.00    -0.306 N 
ATOM     25  H   LIG    1      -34.243  93.141  23.677  0.00  0.00    +0.150 HD
ATOM     26  O   LIG    1      -32.408  93.539  26.217  0.00  0.00    -0.270 OA
BRANCH  24  27
ATOM     27  C   LIG    1      -35.128  92.630  25.562  0.00  0.00    +0.026 C 
ATOM     28  C   LIG    1      -35.582  93.751  26.507  0.00  0.00    +0.031 C 
ATOM     29  C   LIG    1      -34.686  91.403  26.376  0.00  0.00    +0.031 C 
ATOM     30  C   LIG    1      -36.325  92.220  24.682  0.00  0.00    +0.031 C 
ENDBRANCH  24  27
ENDBRANCH   4  23
TORSDOF 4
ENDMDL
MODEL 3
REMARK VINA RESULT:      -5.7      3.469      7.155
REMARK  Name = pdb/CHEMBL3676051.pdb
REMARK                            x       y       z     vdW  Elec       q    Type
REMARK                         _______ _______ _______ _____ _____    ______ ____
ROOT
ATOM      1  C   LIG    1      -23.277  82.174  13.389  0.00  0.00    +0.126 A 
ATOM      2  N   LIG    1      -23.109  83.472  13.264  0.00  0.00    -0.212 NA
ATOM      3  C   LIG    1      -23.872  84.143  12.348  0.00  0.00    +0.170 A 
ATOM      4  C   LIG    1      -23.923  85.482  12.011  0.00  0.00    +0.100 A 
ATOM      5  C   LIG    1      -24.948  85.551  11.046  0.00  0.00    +0.150 A 
ATOM      6  N   LIG    1      -25.480  84.360  10.754  0.00  0.00    -0.173 NA
ATOM      7  N   LIG    1      -24.809  83.493  11.548  0.00  0.00    -0.221 N 
ATOM      8  C   LIG    1      -24.960  82.115  11.633  0.00  0.00    +0.118 A 
ATOM      9  C   LIG    1      -24.235  81.407  12.510  0.00  0.00    +0.063 A 
ENDROOT
BRANCH   1  11
ATOM     10  C   LIG    1      -23.285  80.773  15.438  0.00  0.00    +0.107 C 
ATOM     11  N   LIG    1      -22.544  81.494  14.360  0.00  0.00    -0.308 N 
ATOM     12  C   LIG    1      -21.378  82.163  14.968  0.00  0.00    +0.107 C 
ATOM     13  C   LIG    1      -21.824  82.462  16.384  0.00  0.00    +0.021 C 
ATOM     14  C   LIG    1      -22.586  81.198  16.748  0.00  0.00    +0.029 C 
BRANCH  10  17
ATOM     15  C   LIG    1      -25.825  79.052  15.219  0.00  0.00    +0.066 C 
ATOM     16  C   LIG    1      -24.437  78.484  15.136  0.00  0.00    +0.043 A 
ATOM     17  C   LIG    1      -23.269  79.264  15.235  0.00  0.00    -0.003 A 
ATOM     18  C   LIG    1      -22.044  78.574  15.170  0.00  0.00    +0.047 A 
ATOM     19  C   LIG    1      -22.017  77.197  14.999  0.00  0.00    +0.142 A 
ATOM     20  F   LIG    1      -20.851  76.545  14.936  0.00  0.00    -0.204 F 
ATOM     21  C   LIG    1      -23.210  76.520  14.899  0.00  0.00    +0.149 A 
ATOM     22  N   LIG    1      -24.411  77.132  14.966  0.00  0.00    -0.257 NA
ENDBRANCH  10  17
ENDBRANCH   1  11
BRANCH   4  23
ATOM     23  C   LIG    1      -23.116  86.574  12.536  0.00  0.00    +0.250 C 
ATOM     24  N   LIG    1      -22.768  86.426  13.864  0.00  0.00    -0.306 N 
ATOM     25  H   LIG    1      -23.132  85.590  14.318  0.00  0.00    +0.150 HD
ATOM     26  O   LIG    1      -22.791  87.523  11.843  0.00  0.00    -0.270 OA
BRANCH  24  27
ATOM     27  C   LIG    1      -21.967  87.358  14.662  0.00  0.00    +0.026 C 
ATOM     28  C   LIG    1      -22.635  88.738  14.729  0.00  0.00    +0.031 C 
ATOM     29  C   LIG    1      -20.543  87.490  14.099  0.00  0.00    +0.031 C 
ATOM     30  C   LIG    1      -21.870  86.793  16.093  0.00  0.00    +0.031 C 
ENDBRANCH  24  27
ENDBRANCH   4  23
TORSDOF 4
ENDMDL
MODEL 4
REMARK VINA RESULT:      -5.7     21.042     24.005
REMARK  Name = pdb/CHEMBL3676051.pdb
REMARK                            x       y       z     vdW  Elec       q    Type
REMARK                         _______ _______ _______ _____ _____    ______ ____
ROOT
ATOM      1  C   LIG    1      -38.253  73.203  24.993  0.00  0.00    +0.126 A 
ATOM      2  N   LIG    1      -37.588  74.157  25.605  0.00  0.00    -0.212 NA
ATOM      3  C   LIG    1      -38.098  75.426  25.580  0.00  0.00    +0.170 A 
ATOM      4  C   LIG    1      -37.635  76.605  26.133  0.00  0.00    +0.100 A 
ATOM      5  C   LIG    1      -38.632  77.547  25.808  0.00  0.00    +0.150 A 
ATOM      6  N   LIG    1      -39.625  77.035  25.076  0.00  0.00    -0.173 NA
ATOM      7  N   LIG    1      -39.289  75.731  24.926  0.00  0.00    -0.221 N 
ATOM      8  C   LIG    1      -39.975  74.743  24.234  0.00  0.00    +0.118 A 
ATOM      9  C   LIG    1      -39.519  73.483  24.220  0.00  0.00    +0.063 A 
ENDROOT
BRANCH   1  11
ATOM     10  C   LIG    1      -38.744  70.769  24.976  0.00  0.00    +0.107 C 
ATOM     11  N   LIG    1      -37.768  71.898  25.063  0.00  0.00    -0.308 N 
ATOM     12  C   LIG    1      -36.767  71.566  26.094  0.00  0.00    +0.107 C 
ATOM     13  C   LIG    1      -37.523  70.689  27.071  0.00  0.00    +0.021 C 
ATOM     14  C   LIG    1      -38.360  69.827  26.139  0.00  0.00    +0.029 C 
BRANCH  10  17
ATOM     15  C   LIG    1      -41.166  70.511  23.098  0.00  0.00    +0.066 C 
ATOM     16  C   LIG    1      -39.808  69.958  22.771  0.00  0.00    +0.043 A 
ATOM     17  C   LIG    1      -38.694  70.071  23.624  0.00  0.00    -0.003 A 
ATOM     18  C   LIG    1      -37.500  69.468  23.184  0.00  0.00    +0.047 A 
ATOM     19  C   LIG    1      -37.448  68.818  21.960  0.00  0.00    +0.142 A 
ATOM     20  F   LIG    1      -36.311  68.247  21.545  0.00  0.00    -0.204 F 
ATOM     21  C   LIG    1      -38.584  68.768  21.187  0.00  0.00    +0.149 A 
ATOM     22  N   LIG    1      -39.756  69.320  21.567  0.00  0.00    -0.257 NA
ENDBRANCH  10  17
ENDBRANCH   1  11
BRANCH   4  23
ATOM     23  C   LIG    1      -36.410  76.825  26.888  0.00  0.00    +0.250 C 
ATOM     24  N   LIG    1      -35.714  75.669  27.179  0.00  0.00    -0.306 N 
ATOM     25  H   LIG    1      -36.148  74.807  26.853  0.00  0.00    +0.150 HD
ATOM     26  O   LIG    1      -36.053  77.943  27.220  0.00  0.00    -0.270 OA
BRANCH  24  27
ATOM     27  C   LIG    1      -34.454  75.575  27.921  0.00  0.00    +0.026 C 
ATOM     28  C   LIG    1      -34.627  76.078  29.362  0.00  0.00    +0.031 C 
ATOM     29  C   LIG    1      -33.336  76.362  27.220  0.00  0.00    +0.031 C 
ATOM     30  C   LIG    1      -34.043  74.090  27.970  0.00  0.00    +0.031 C 
ENDBRANCH  24  27
ENDBRANCH   4  23
TORSDOF 4
ENDMDL
MODEL 5
REMARK VINA RESULT:      -5.6     18.821     22.032
REMARK  Name = pdb/CHEMBL3676051.pdb
REMARK                            x       y       z     vdW  Elec       q    Type
REMARK                         _______ _______ _______ _____ _____    ______ ____
ROOT
ATOM      1  C   LIG    1      -20.988  78.229  33.415  0.00  0.00    +0.126 A 
ATOM      2  N   LIG    1      -22.045  77.768  32.784  0.00  0.00    -0.212 NA
ATOM      3  C   LIG    1      -21.911  77.395  31.475  0.00  0.00    +0.170 A 
ATOM      4  C   LIG    1      -22.825  76.875  30.578  0.00  0.00    +0.100 A 
ATOM      5  C   LIG    1      -22.066  76.645  29.414  0.00  0.00    +0.150 A 
ATOM      6  N   LIG    1      -20.789  77.022  29.532  0.00  0.00    -0.173 NA
ATOM      7  N   LIG    1      -20.698  77.494  30.798  0.00  0.00    -0.221 N 
ATOM      8  C   LIG    1      -19.587  78.027  31.437  0.00  0.00    +0.118 A 
ATOM      9  C   LIG    1      -19.662  78.414  32.718  0.00  0.00    +0.063 A 
ENDROOT
BRANCH   1  11
ATOM     10  C   LIG    1      -21.560  79.934  35.127  0.00  0.00    +0.107 C 
ATOM     11  N   LIG    1      -21.104  78.557  34.765  0.00  0.00    -0.308 N 
ATOM     12  C   LIG    1      -20.018  78.173  35.686  0.00  0.00    +0.107 C 
ATOM     13  C   LIG    1      -19.360  79.489  36.048  0.00  0.00    +0.021 C 
ATOM     14  C   LIG    1      -20.562  80.408  36.206  0.00  0.00    +0.029 C 
BRANCH  10  17
ATOM     15  C   LIG    1      -23.095  82.503  35.835  0.00  0.00    +0.066 C 
ATOM     16  C   LIG    1      -23.694  81.130  35.945  0.00  0.00    +0.043 A 
ATOM     17  C   LIG    1      -22.999  79.948  35.623  0.00  0.00    -0.003 A 
ATOM     18  C   LIG    1      -23.694  78.738  35.812  0.00  0.00    +0.047 A 
ATOM     19  C   LIG    1      -25.001  78.740  36.276  0.00  0.00    +0.142 A 
ATOM     20  F   LIG    1      -25.658  77.588  36.453  0.00  0.00    -0.204 F 
ATOM     21  C   LIG    1      -25.604  79.945  36.553  0.00  0.00    +0.149 A 
ATOM     22  N   LIG    1      -24.980  81.132  36.399  0.00  0.00    -0.257 NA
ENDBRANCH  10  17
ENDBRANCH   1  11
BRANCH   4  23
ATOM     23  C   LIG    1      -24.242  76.612  30.788  0.00  0.00    +0.250 C 
ATOM     24  N   LIG    1      -24.532  76.029  32.005  0.00  0.00    -0.306 N 
ATOM     25  H   LIG    1      -23.725  75.834  32.596  0.00  0.00    +0.150 HD
ATOM     26  O   LIG    1      -25.078  76.893  29.945  0.00  0.00    -0.270 OA
BRANCH  24  27
ATOM     27  C   LIG    1      -25.859  75.649  32.494  0.00  0.00    +0.026 C 
ATOM     28  C   LIG    1      -26.895  76.736  32.174  0.00  0.00    +0.031 C 
ATOM     29  C   LIG    1      -25.837  75.374  34.006  0.00  0.00    +0.031 C 
ATOM     30  C   LIG    1      -26.276  74.352  31.772  0.00  0.00    +0.031 C 
ENDBRANCH  24  27
ENDBRANCH   4  23
TORSDOF 4
ENDMDL
MODEL 6
REMARK VINA RESULT:      -5.5     23.434     25.016
REMARK  Name = pdb/CHEMBL3676051.pdb
REMARK                            x       y       z     vdW  Elec       q    Type
REMARK                         _______ _______ _______ _____ _____    ______ ____
ROOT
ATOM      1  C   LIG    1      -38.820  69.145  22.196  0.00  0.00    +0.126 A 
ATOM      2  N   LIG    1      -37.813  68.923  23.011  0.00  0.00    -0.212 NA
ATOM      3  C   LIG    1      -36.750  68.194  22.551  0.00  0.00    +0.170 A 
ATOM      4  C   LIG    1      -35.570  67.819  23.164  0.00  0.00    +0.100 A 
ATOM      5  C   LIG    1      -34.865  67.135  22.153  0.00  0.00    +0.150 A 
ATOM      6  N   LIG    1      -35.545  67.039  21.007  0.00  0.00    -0.173 NA
ATOM      7  N   LIG    1      -36.710  67.681  21.257  0.00  0.00    -0.221 N 
ATOM      8  C   LIG    1      -37.789  67.865  20.403  0.00  0.00    +0.118 A 
ATOM      9  C   LIG    1      -38.858  68.567  20.802  0.00  0.00    +0.063 A 
ENDROOT
BRANCH   1  11
ATOM     10  C   LIG    1      -39.901  70.358  24.073  0.00  0.00    +0.107 C 
ATOM     11  N   LIG    1      -39.879  69.935  22.640  0.00  0.00    -0.308 N 
ATOM     12  C   LIG    1      -41.252  69.570  22.244  0.00  0.00    +0.107 C 
ATOM     13  C   LIG    1      -41.884  69.071  23.528  0.00  0.00    +0.021 C 
ATOM     14  C   LIG    1      -41.338  70.056  24.550  0.00  0.00    +0.029 C 
BRANCH  10  17
ATOM     15  C   LIG    1      -37.275  71.316  25.356  0.00  0.00    +0.066 C 
ATOM     16  C   LIG    1      -38.324  72.254  24.832  0.00  0.00    +0.043 A 
ATOM     17  C   LIG    1      -39.529  71.825  24.243  0.00  0.00    -0.003 A 
ATOM     18  C   LIG    1      -40.423  72.832  23.833  0.00  0.00    +0.047 A 
ATOM     19  C   LIG    1      -40.101  74.171  23.996  0.00  0.00    +0.142 A 
ATOM     20  F   LIG    1      -40.953  75.125  23.604  0.00  0.00    -0.204 F 
ATOM     21  C   LIG    1      -38.894  74.496  24.571  0.00  0.00    +0.149 A 
ATOM     22  N   LIG    1      -38.007  73.570  24.991  0.00  0.00    -0.257 NA
ENDBRANCH  10  17
ENDBRANCH   1  11
BRANCH   4  23
ATOM     23  C   LIG    1      -35.144  68.078  24.531  0.00  0.00    +0.250 C 
ATOM     24  N   LIG    1      -35.644  67.183  25.456  0.00  0.00    -0.306 N 
ATOM     25  H   LIG    1      -36.263  66.468  25.077  0.00  0.00    +0.150 HD
ATOM     26  O   LIG    1      -34.408  69.011  24.809  0.00  0.00    -0.270 OA
BRANCH  24  27
ATOM     27  C   LIG    1      -35.392  67.190  26.899  0.00  0.00    +0.026 C 
ATOM     28  C   LIG    1      -35.761  68.547  27.514  0.00  0.00    +0.031 C 
ATOM     29  C   LIG    1      -33.924  66.854  27.209  0.00  0.00    +0.031 C 
ATOM     30  C   LIG    1      -36.281  66.106  27.540  0.00  0.00    +0.031 C 
ENDBRANCH  24  27
ENDBRANCH   4  23
TORSDOF 4
ENDMDL
MODEL 7
REMARK VINA RESULT:      -5.5     19.273     22.022
REMARK  Name = pdb/CHEMBL3676051.pdb
REMARK                            x       y       z     vdW  Elec       q    Type
REMARK                         _______ _______ _______ _____ _____    ______ ____
ROOT
ATOM      1  C   LIG    1      -23.588  79.858  35.253  0.00  0.00    +0.126 A 
ATOM      2  N   LIG    1      -23.892  79.073  34.244  0.00  0.00    -0.212 NA
ATOM      3  C   LIG    1      -25.075  78.388  34.284  0.00  0.00    +0.170 A 
ATOM      4  C   LIG    1      -25.655  77.516  33.382  0.00  0.00    +0.100 A 
ATOM      5  C   LIG    1      -26.896  77.195  33.969  0.00  0.00    +0.150 A 
ATOM      6  N   LIG    1      -27.082  77.771  35.160  0.00  0.00    -0.173 NA
ATOM      7  N   LIG    1      -25.955  78.496  35.358  0.00  0.00    -0.221 N 
ATOM      8  C   LIG    1      -25.623  79.282  36.453  0.00  0.00    +0.118 A 
ATOM      9  C   LIG    1      -24.474  79.971  36.469  0.00  0.00    +0.063 A 
ENDROOT
BRANCH   1  11
ATOM     10  C   LIG    1      -21.232  80.137  35.983  0.00  0.00    +0.107 C 
ATOM     11  N   LIG    1      -22.410  80.602  35.191  0.00  0.00    -0.308 N 
ATOM     12  C   LIG    1      -22.491  82.070  35.300  0.00  0.00    +0.107 C 
ATOM     13  C   LIG    1      -21.893  82.372  36.658  0.00  0.00    +0.021 C 
ATOM     14  C   LIG    1      -20.722  81.402  36.709  0.00  0.00    +0.029 C 
BRANCH  10  17
ATOM     15  C   LIG    1      -18.568  79.037  37.058  0.00  0.00    +0.066 C 
ATOM     16  C   LIG    1      -18.946  79.002  35.605  0.00  0.00    +0.043 A 
ATOM     17  C   LIG    1      -20.163  79.503  35.104  0.00  0.00    -0.003 A 
ATOM     18  C   LIG    1      -20.350  79.425  33.711  0.00  0.00    +0.047 A 
ATOM     19  C   LIG    1      -19.377  78.862  32.898  0.00  0.00    +0.142 A 
ATOM     20  F   LIG    1      -19.560  78.788  31.575  0.00  0.00    -0.204 F 
ATOM     21  C   LIG    1      -18.225  78.387  33.478  0.00  0.00    +0.149 A 
ATOM     22  N   LIG    1      -17.990  78.447  34.806  0.00  0.00    -0.257 NA
ENDBRANCH  10  17
ENDBRANCH   1  11
BRANCH   4  23
ATOM     23  C   LIG    1      -25.118  77.046  32.114  0.00  0.00    +0.250 C 
ATOM     24  N   LIG    1      -23.777  76.720  32.156  0.00  0.00    -0.306 N 
ATOM     25  H   LIG    1      -23.323  76.868  33.056  0.00  0.00    +0.150 HD
ATOM     26  O   LIG    1      -25.814  76.956  31.116  0.00  0.00    -0.270 OA
BRANCH  24  27
ATOM     27  C   LIG    1      -22.966  76.223  31.042  0.00  0.00    +0.026 C 
ATOM     28  C   LIG    1      -23.008  77.196  29.855  0.00  0.00    +0.031 C 
ATOM     29  C   LIG    1      -23.431  74.828  30.595  0.00  0.00    +0.031 C 
ATOM     30  C   LIG    1      -21.508  76.113  31.530  0.00  0.00    +0.031 C 
ENDBRANCH  24  27
ENDBRANCH   4  23
TORSDOF 4
ENDMDL
MODEL 8
REMARK VINA RESULT:      -5.5     21.201     24.229
REMARK  Name = pdb/CHEMBL3676051.pdb
REMARK                            x       y       z     vdW  Elec       q    Type
REMARK                         _______ _______ _______ _____ _____    ______ ____
ROOT
ATOM      1  C   LIG    1      -38.283  72.262  25.693  0.00  0.00    +0.126 A 
ATOM      2  N   LIG    1      -37.655  73.354  26.067  0.00  0.00    -0.212 NA
ATOM      3  C   LIG    1      -38.041  74.548  25.521  0.00  0.00    +0.170 A 
ATOM      4  C   LIG    1      -37.581  75.835  25.727  0.00  0.00    +0.100 A 
ATOM      5  C   LIG    1      -38.420  76.628  24.919  0.00  0.00    +0.150 A 
ATOM      6  N   LIG    1      -39.310  75.916  24.222  0.00  0.00    -0.173 NA
ATOM      7  N   LIG    1      -39.067  74.634  24.584  0.00  0.00    -0.221 N 
ATOM      8  C   LIG    1      -39.704  73.483  24.142  0.00  0.00    +0.118 A 
ATOM      9  C   LIG    1      -39.364  72.286  24.640  0.00  0.00    +0.063 A 
ENDROOT
BRANCH   1  11
ATOM     10  C   LIG    1      -38.336  69.781  25.611  0.00  0.00    +0.107 C 
ATOM     11  N   LIG    1      -37.933  71.051  26.288  0.00  0.00    -0.308 N 
ATOM     12  C   LIG    1      -38.137  70.887  27.739  0.00  0.00    +0.107 C 
ATOM     13  C   LIG    1      -39.287  69.906  27.840  0.00  0.00    +0.021 C 
ATOM     14  C   LIG    1      -38.956  68.918  26.732  0.00  0.00    +0.029 C 
BRANCH  10  17
ATOM     15  C   LIG    1      -38.131  69.352  22.573  0.00  0.00    +0.066 C 
ATOM     16  C   LIG    1      -37.075  68.902  23.540  0.00  0.00    +0.043 A 
ATOM     17  C   LIG    1      -37.160  69.094  24.933  0.00  0.00    -0.003 A 
ATOM     18  C   LIG    1      -36.099  68.583  25.705  0.00  0.00    +0.047 A 
ATOM     19  C   LIG    1      -35.029  67.942  25.098  0.00  0.00    +0.142 A 
ATOM     20  F   LIG    1      -34.023  67.459  25.836  0.00  0.00    -0.204 F 
ATOM     21  C   LIG    1      -35.026  67.812  23.729  0.00  0.00    +0.149 A 
ATOM     22  N   LIG    1      -36.022  68.274  22.944  0.00  0.00    -0.257 NA
ENDBRANCH  10  17
ENDBRANCH   1  11
BRANCH   4  23
ATOM     23  C   LIG    1      -36.493  76.275  26.588  0.00  0.00    +0.250 C 
ATOM     24  N   LIG    1      -35.671  75.254  27.022  0.00  0.00    -0.306 N 
ATOM     25  H   LIG    1      -35.936  74.321  26.710  0.00  0.00    +0.150 HD
ATOM     26  O   LIG    1      -36.343  77.449  26.883  0.00  0.00    -0.270 OA
BRANCH  24  27
ATOM     27  C   LIG    1      -34.502  75.389  27.895  0.00  0.00    +0.026 C 
ATOM     28  C   LIG    1      -33.501  76.400  27.319  0.00  0.00    +0.031 C 
ATOM     29  C   LIG    1      -33.812  74.032  28.114  0.00  0.00    +0.031 C 
ATOM     30  C   LIG    1      -34.989  75.909  29.262  0.00  0.00    +0.031 C 
ENDBRANCH  24  27
ENDBRANCH   4  23
TORSDOF 4
ENDMDL
MODEL 9
REMARK VINA RESULT:      -5.5     19.012     22.390
REMARK  Name = pdb/CHEMBL3676051.pdb
REMARK                            x       y       z     vdW  Elec       q    Type
REMARK                         _______ _______ _______ _____ _____    ______ ____
ROOT
ATOM      1  C   LIG    1      -21.090  78.447  33.339  0.00  0.00    +0.126 A 
ATOM      2  N   LIG    1      -22.140  77.924  32.746  0.00  0.00    -0.212 NA
ATOM      3  C   LIG    1      -21.999  77.444  31.473  0.00  0.00    +0.170 A 
ATOM      4  C   LIG    1      -22.904  76.842  30.620  0.00  0.00    +0.100 A 
ATOM      5  C   LIG    1      -22.138  76.524  29.480  0.00  0.00    +0.150 A 
ATOM      6  N   LIG    1      -20.866  76.923  29.570  0.00  0.00    -0.173 NA
ATOM      7  N   LIG    1      -20.785  77.501  30.792  0.00  0.00    -0.221 N 
ATOM      8  C   LIG    1      -19.681  78.097  31.387  0.00  0.00    +0.118 A 
ATOM      9  C   LIG    1      -19.764  78.588  32.631  0.00  0.00    +0.063 A 
ENDROOT
BRANCH   1  11
ATOM     10  C   LIG    1      -22.564  79.300  35.146  0.00  0.00    +0.107 C 
ATOM     11  N   LIG    1      -21.214  78.885  34.656  0.00  0.00    -0.308 N 
ATOM     12  C   LIG    1      -20.218  79.834  35.186  0.00  0.00    +0.107 C 
ATOM     13  C   LIG    1      -20.985  81.133  35.324  0.00  0.00    +0.021 C 
ATOM     14  C   LIG    1      -22.327  80.652  35.854  0.00  0.00    +0.029 C 
BRANCH  10  17
ATOM     15  C   LIG    1      -25.595  78.931  35.513  0.00  0.00    +0.066 C 
ATOM     16  C   LIG    1      -24.572  78.099  36.233  0.00  0.00    +0.043 A 
ATOM     17  C   LIG    1      -23.183  78.261  36.071  0.00  0.00    -0.003 A 
ATOM     18  C   LIG    1      -22.357  77.423  36.844  0.00  0.00    +0.047 A 
ATOM     19  C   LIG    1      -22.911  76.482  37.701  0.00  0.00    +0.142 A 
ATOM     20  F   LIG    1      -22.122  75.687  38.433  0.00  0.00    -0.204 F 
ATOM     21  C   LIG    1      -24.280  76.388  37.784  0.00  0.00    +0.149 A 
ATOM     22  N   LIG    1      -25.116  77.174  37.073  0.00  0.00    -0.257 NA
ENDBRANCH  10  17
ENDBRANCH   1  11
BRANCH   4  23
ATOM     23  C   LIG    1      -24.318  76.581  30.847  0.00  0.00    +0.250 C 
ATOM     24  N   LIG    1      -24.594  76.001  32.069  0.00  0.00    -0.306 N 
ATOM     25  H   LIG    1      -23.781  75.805  32.650  0.00  0.00    +0.150 HD
ATOM     26  O   LIG    1      -25.164  76.862  30.015  0.00  0.00    -0.270 OA
BRANCH  24  27
ATOM     27  C   LIG    1      -25.916  75.624  32.575  0.00  0.00    +0.026 C 
ATOM     28  C   LIG    1      -26.453  74.387  31.841  0.00  0.00    +0.031 C 
ATOM     29  C   LIG    1      -26.913  76.786  32.445  0.00  0.00    +0.031 C 
ATOM     30  C   LIG    1      -25.770  75.277  34.070  0.00  0.00    +0.031 C 
ENDBRANCH  24  27
ENDBRANCH   4  23
TORSDOF 4
ENDMDL
