MODEL 1
REMARK VINA RESULT:      -6.6      0.000      0.000
REMARK  Name = pdb/CHEMBL3673489.pdb
REMARK                            x       y       z     vdW  Elec       q    Type
REMARK                         _______ _______ _______ _____ _____    ______ ____
ROOT
ATOM      1  C   LIG    1      -36.257  68.462  23.670  0.00  0.00    +0.162 A 
ATOM      2  C   LIG    1      -37.319  69.359  23.435  0.00  0.00    +0.162 A 
ATOM      3  C   LIG    1      -37.984  69.325  22.206  0.00  0.00    +0.050 A 
ATOM      4  C   LIG    1      -37.655  68.376  21.236  0.00  0.00    +0.009 A 
ATOM      5  C   LIG    1      -36.616  67.466  21.454  0.00  0.00    -0.024 A 
ATOM      6  C   LIG    1      -35.905  67.543  22.666  0.00  0.00    +0.054 A 
ENDROOT
BRANCH   1   8
ATOM      7  C   LIG    1      -34.918  67.395  25.358  0.00  0.00    +0.277 C 
ATOM      8  O   LIG    1      -35.634  68.526  24.886  0.00  0.00    -0.491 OA
ENDBRANCH   1   8
BRANCH   2   9
ATOM      9  O   LIG    1      -37.816  70.316  24.292  0.00  0.00    -0.484 OA
BRANCH   9  10
ATOM     10  C   LIG    1      -39.145  70.769  24.037  0.00  0.00    +0.264 C 
BRANCH  10  11
ATOM     11  C   LIG    1      -39.249  72.261  24.247  0.00  0.00    -0.010 A 
ATOM     12  C   LIG    1      -38.198  72.937  24.882  0.00  0.00    +0.007 A 
ATOM     13  C   LIG    1      -38.274  74.305  25.117  0.00  0.00    +0.010 A 
ATOM     14  C   LIG    1      -39.410  75.024  24.722  0.00  0.00    +0.030 A 
ATOM     15  C   LIG    1      -40.438  74.362  24.033  0.00  0.00    +0.010 A 
ATOM     16  C   LIG    1      -40.360  72.987  23.802  0.00  0.00    +0.007 A 
BRANCH  14  17
ATOM     17  C   LIG    1      -39.527  76.490  25.078  0.00  0.00    +0.367 C 
ATOM     18  F   LIG    1      -38.822  76.782  26.219  0.00  0.00    -0.190 F 
ATOM     19  F   LIG    1      -40.823  76.814  25.405  0.00  0.00    -0.190 F 
BRANCH  17  20
ATOM     20  C   LIG    1      -39.052  77.426  23.932  0.00  0.00    +0.459 C 
ATOM     21  F   LIG    1      -39.021  78.726  24.323  0.00  0.00    -0.165 F 
ATOM     22  F   LIG    1      -39.887  77.370  22.858  0.00  0.00    -0.165 F 
ATOM     23  F   LIG    1      -37.812  77.135  23.465  0.00  0.00    -0.165 F 
ENDBRANCH  17  20
ENDBRANCH  14  17
ENDBRANCH  10  11
ENDBRANCH   9  10
ENDBRANCH   2   9
BRANCH   5  24
ATOM     24  C   LIG    1      -36.314  66.371  20.458  0.00  0.00    +0.161 C 
BRANCH  24  25
ATOM     25  N   LIG    1      -35.523  66.804  19.313  0.00  0.00    -0.293 N 
ATOM     26  C   LIG    1      -34.158  66.751  19.270  0.00  0.00    +0.162 A 
ATOM     27  N   LIG    1      -33.315  66.548  20.292  0.00  0.00    -0.235 NA
ATOM     28  C   LIG    1      -32.024  66.432  19.877  0.00  0.00    +0.121 A 
ATOM     29  C   LIG    1      -31.552  66.552  18.562  0.00  0.00    +0.005 A 
ATOM     30  C   LIG    1      -32.483  66.830  17.550  0.00  0.00    +0.041 A 
ATOM     31  C   LIG    1      -33.839  66.918  17.920  0.00  0.00    +0.110 A 
ATOM     32  N   LIG    1      -34.965  67.105  17.175  0.00  0.00    -0.213 NA
ATOM     33  C   LIG    1      -35.965  67.032  18.032  0.00  0.00    +0.195 A 
BRANCH  29  34
ATOM     34  C   LIG    1      -30.142  66.346  18.283  0.00  0.00    +0.021 A 
ATOM     35  C   LIG    1      -29.220  65.805  19.154  0.00  0.00    +0.116 A 
ATOM     36  N   LIG    1      -28.030  65.769  18.482  0.00  0.00    -0.274 N 
ATOM     37  C   LIG    1      -26.774  65.276  18.992  0.00  0.00    +0.172 C 
ATOM     38  N   LIG    1      -28.109  66.245  17.228  0.00  0.00    -0.179 NA
ATOM     39  C   LIG    1      -29.389  66.599  17.108  0.00  0.00    +0.143 A 
ENDBRANCH  29  34
BRANCH  33  40
ATOM     40  N   LIG    1      -37.275  67.143  17.717  0.00  0.00    -0.329 N 
ATOM     41  H   LIG    1      -37.900  66.801  18.441  0.00  0.00    +0.145 HD
ATOM     42  H   LIG    1      -37.593  66.894  16.791  0.00  0.00    +0.145 HD
ENDBRANCH  33  40
ENDBRANCH  24  25
ENDBRANCH   5  24
TORSDOF 10
ENDMDL
MODEL 2
REMARK VINA RESULT:      -6.5      2.022      2.976
REMARK  Name = pdb/CHEMBL3673489.pdb
REMARK                            x       y       z     vdW  Elec       q    Type
REMARK                         _______ _______ _______ _____ _____    ______ ____
ROOT
ATOM      1  C   LIG    1      -39.903  68.052  20.786  0.00  0.00    +0.162 A 
ATOM      2  C   LIG    1      -39.224  69.029  21.541  0.00  0.00    +0.162 A 
ATOM      3  C   LIG    1      -37.826  69.040  21.548  0.00  0.00    +0.050 A 
ATOM      4  C   LIG    1      -37.095  68.141  20.769  0.00  0.00    +0.009 A 
ATOM      5  C   LIG    1      -37.749  67.173  19.998  0.00  0.00    -0.024 A 
ATOM      6  C   LIG    1      -39.154  67.122  20.043  0.00  0.00    +0.054 A 
ENDROOT
BRANCH   1   8
ATOM      7  C   LIG    1      -41.963  67.341  21.802  0.00  0.00    +0.277 C 
ATOM      8  O   LIG    1      -41.270  68.077  20.804  0.00  0.00    -0.491 OA
ENDBRANCH   1   8
BRANCH   2   9
ATOM      9  O   LIG    1      -39.776  70.025  22.317  0.00  0.00    -0.484 OA
BRANCH   9  10
ATOM     10  C   LIG    1      -39.254  70.166  23.638  0.00  0.00    +0.264 C 
BRANCH  10  11
ATOM     11  C   LIG    1      -39.244  71.617  24.055  0.00  0.00    -0.010 A 
ATOM     12  C   LIG    1      -38.132  72.123  24.744  0.00  0.00    +0.007 A 
ATOM     13  C   LIG    1      -38.103  73.446  25.168  0.00  0.00    +0.010 A 
ATOM     14  C   LIG    1      -39.190  74.290  24.912  0.00  0.00    +0.030 A 
ATOM     15  C   LIG    1      -40.279  73.804  24.171  0.00  0.00    +0.010 A 
ATOM     16  C   LIG    1      -40.308  72.473  23.750  0.00  0.00    +0.007 A 
BRANCH  14  17
ATOM     17  C   LIG    1      -39.192  75.697  25.470  0.00  0.00    +0.367 C 
ATOM     18  F   LIG    1      -38.543  75.752  26.679  0.00  0.00    -0.190 F 
ATOM     19  F   LIG    1      -40.470  76.105  25.770  0.00  0.00    -0.190 F 
BRANCH  17  20
ATOM     20  C   LIG    1      -38.553  76.728  24.500  0.00  0.00    +0.459 C 
ATOM     21  F   LIG    1      -39.265  76.848  23.349  0.00  0.00    -0.165 F 
ATOM     22  F   LIG    1      -37.295  76.362  24.134  0.00  0.00    -0.165 F 
ATOM     23  F   LIG    1      -38.449  77.978  25.019  0.00  0.00    -0.165 F 
ENDBRANCH  17  20
ENDBRANCH  14  17
ENDBRANCH  10  11
ENDBRANCH   9  10
ENDBRANCH   2   9
BRANCH   5  24
ATOM     24  C   LIG    1      -36.978  66.259  19.075  0.00  0.00    +0.161 C 
BRANCH  24  25
ATOM     25  N   LIG    1      -35.652  65.899  19.558  0.00  0.00    -0.293 N 
ATOM     26  C   LIG    1      -34.495  66.458  19.089  0.00  0.00    +0.162 A 
ATOM     27  N   LIG    1      -34.337  67.208  17.990  0.00  0.00    -0.235 NA
ATOM     28  C   LIG    1      -33.075  67.705  17.885  0.00  0.00    +0.121 A 
ATOM     29  C   LIG    1      -32.003  67.461  18.755  0.00  0.00    +0.005 A 
ATOM     30  C   LIG    1      -32.222  66.613  19.851  0.00  0.00    +0.041 A 
ATOM     31  C   LIG    1      -33.525  66.105  20.029  0.00  0.00    +0.110 A 
ATOM     32  N   LIG    1      -34.061  65.329  21.013  0.00  0.00    -0.213 NA
ATOM     33  C   LIG    1      -35.339  65.218  20.710  0.00  0.00    +0.195 A 
BRANCH  29  34
ATOM     34  C   LIG    1      -30.727  68.117  18.526  0.00  0.00    +0.021 A 
ATOM     35  C   LIG    1      -30.507  69.477  18.550  0.00  0.00    +0.116 A 
ATOM     36  N   LIG    1      -29.172  69.656  18.314  0.00  0.00    -0.274 N 
ATOM     37  C   LIG    1      -28.475  70.918  18.249  0.00  0.00    +0.172 C 
ATOM     38  N   LIG    1      -28.501  68.505  18.141  0.00  0.00    -0.179 NA
ATOM     39  C   LIG    1      -29.445  67.571  18.266  0.00  0.00    +0.143 A 
ENDBRANCH  29  34
BRANCH  33  40
ATOM     40  N   LIG    1      -36.259  64.542  21.435  0.00  0.00    -0.329 N 
ATOM     41  H   LIG    1      -36.020  63.568  21.592  0.00  0.00    +0.145 HD
ATOM     42  H   LIG    1      -37.242  64.667  21.242  0.00  0.00    +0.145 HD
ENDBRANCH  33  40
ENDBRANCH  24  25
ENDBRANCH   5  24
TORSDOF 10
ENDMDL
MODEL 3
REMARK VINA RESULT:      -6.4      8.794     11.239
REMARK  Name = pdb/CHEMBL3673489.pdb
REMARK                            x       y       z     vdW  Elec       q    Type
REMARK                         _______ _______ _______ _____ _____    ______ ____
ROOT
ATOM      1  C   LIG    1      -38.673  77.907  25.984  0.00  0.00    +0.162 A 
ATOM      2  C   LIG    1      -38.270  76.659  25.467  0.00  0.00    +0.162 A 
ATOM      3  C   LIG    1      -37.110  76.055  25.961  0.00  0.00    +0.050 A 
ATOM      4  C   LIG    1      -36.383  76.638  27.001  0.00  0.00    +0.009 A 
ATOM      5  C   LIG    1      -36.774  77.868  27.541  0.00  0.00    -0.024 A 
ATOM      6  C   LIG    1      -37.904  78.506  26.998  0.00  0.00    +0.054 A 
ENDROOT
BRANCH   1   8
ATOM      7  C   LIG    1      -39.718  79.370  24.388  0.00  0.00    +0.277 C 
ATOM      8  O   LIG    1      -39.815  78.462  25.475  0.00  0.00    -0.491 OA
ENDBRANCH   1   8
BRANCH   2   9
ATOM      9  O   LIG    1      -38.892  75.914  24.490  0.00  0.00    -0.484 OA
BRANCH   9  10
ATOM     10  C   LIG    1      -38.808  74.495  24.621  0.00  0.00    +0.264 C 
BRANCH  10  11
ATOM     11  C   LIG    1      -40.035  73.832  24.041  0.00  0.00    -0.010 A 
ATOM     12  C   LIG    1      -40.047  72.440  23.876  0.00  0.00    +0.007 A 
ATOM     13  C   LIG    1      -41.148  71.802  23.318  0.00  0.00    +0.010 A 
ATOM     14  C   LIG    1      -42.262  72.548  22.912  0.00  0.00    +0.030 A 
ATOM     15  C   LIG    1      -42.278  73.934  23.131  0.00  0.00    +0.010 A 
ATOM     16  C   LIG    1      -41.168  74.574  23.687  0.00  0.00    +0.007 A 
BRANCH  14  17
ATOM     17  C   LIG    1      -43.409  71.855  22.210  0.00  0.00    +0.367 C 
ATOM     18  F   LIG    1      -44.620  72.325  22.658  0.00  0.00    -0.190 F 
ATOM     19  F   LIG    1      -43.444  70.517  22.525  0.00  0.00    -0.190 F 
BRANCH  17  20
ATOM     20  C   LIG    1      -43.345  72.003  20.665  0.00  0.00    +0.459 C 
ATOM     21  F   LIG    1      -42.101  71.743  20.184  0.00  0.00    -0.165 F 
ATOM     22  F   LIG    1      -43.652  73.267  20.267  0.00  0.00    -0.165 F 
ATOM     23  F   LIG    1      -44.193  71.178  20.000  0.00  0.00    -0.165 F 
ENDBRANCH  17  20
ENDBRANCH  14  17
ENDBRANCH  10  11
ENDBRANCH   9  10
ENDBRANCH   2   9
BRANCH   5  24
ATOM     24  C   LIG    1      -36.057  78.463  28.730  0.00  0.00    +0.161 C 
BRANCH  24  25
ATOM     25  N   LIG    1      -34.608  78.305  28.697  0.00  0.00    -0.293 N 
ATOM     26  C   LIG    1      -33.949  77.239  29.244  0.00  0.00    +0.162 A 
ATOM     27  N   LIG    1      -34.439  76.318  30.085  0.00  0.00    -0.235 NA
ATOM     28  C   LIG    1      -33.544  75.324  30.337  0.00  0.00    +0.121 A 
ATOM     29  C   LIG    1      -32.231  75.236  29.851  0.00  0.00    +0.005 A 
ATOM     30  C   LIG    1      -31.762  76.269  29.026  0.00  0.00    +0.041 A 
ATOM     31  C   LIG    1      -32.664  77.302  28.700  0.00  0.00    +0.110 A 
ATOM     32  N   LIG    1      -32.533  78.386  27.885  0.00  0.00    -0.213 NA
ATOM     33  C   LIG    1      -33.713  78.974  27.898  0.00  0.00    +0.195 A 
BRANCH  29  34
ATOM     34  C   LIG    1      -31.422  74.075  30.174  0.00  0.00    +0.021 A 
ATOM     35  C   LIG    1      -31.553  72.821  29.615  0.00  0.00    +0.116 A 
ATOM     36  N   LIG    1      -30.582  72.043  30.180  0.00  0.00    -0.274 N 
ATOM     37  C   LIG    1      -30.329  70.650  29.899  0.00  0.00    +0.172 C 
ATOM     38  N   LIG    1      -29.819  72.701  31.069  0.00  0.00    -0.179 NA
ATOM     39  C   LIG    1      -30.331  73.932  31.069  0.00  0.00    +0.143 A 
ENDBRANCH  29  34
BRANCH  33  40
ATOM     40  N   LIG    1      -34.041  80.086  27.203  0.00  0.00    -0.329 N 
ATOM     41  H   LIG    1      -33.874  80.950  27.712  0.00  0.00    +0.145 HD
ATOM     42  H   LIG    1      -34.901  80.116  26.675  0.00  0.00    +0.145 HD
ENDBRANCH  33  40
ENDBRANCH  24  25
ENDBRANCH   5  24
TORSDOF 10
ENDMDL
MODEL 4
REMARK VINA RESULT:      -6.4      4.044      6.644
REMARK  Name = pdb/CHEMBL3673489.pdb
REMARK                            x       y       z     vdW  Elec       q    Type
REMARK                         _______ _______ _______ _____ _____    ______ ____
ROOT
ATOM      1  C   LIG    1      -40.269  74.182  23.967  0.00  0.00    +0.162 A 
ATOM      2  C   LIG    1      -39.050  74.505  24.596  0.00  0.00    +0.162 A 
ATOM      3  C   LIG    1      -38.259  73.480  25.124  0.00  0.00    +0.050 A 
ATOM      4  C   LIG    1      -38.627  72.141  24.981  0.00  0.00    +0.009 A 
ATOM      5  C   LIG    1      -39.826  71.796  24.346  0.00  0.00    -0.024 A 
ATOM      6  C   LIG    1      -40.651  72.832  23.873  0.00  0.00    +0.054 A 
ENDROOT
BRANCH   1   8
ATOM      7  C   LIG    1      -42.389  75.007  23.190  0.00  0.00    +0.277 C 
ATOM      8  O   LIG    1      -41.012  75.214  23.462  0.00  0.00    -0.491 OA
ENDBRANCH   1   8
BRANCH   2   9
ATOM      9  O   LIG    1      -38.502  75.757  24.774  0.00  0.00    -0.484 OA
BRANCH   9  10
ATOM     10  C   LIG    1      -38.757  76.391  26.027  0.00  0.00    +0.264 C 
BRANCH  10  11
ATOM     11  C   LIG    1      -37.471  76.871  26.654  0.00  0.00    -0.010 A 
ATOM     12  C   LIG    1      -36.358  76.019  26.672  0.00  0.00    +0.007 A 
ATOM     13  C   LIG    1      -35.167  76.419  27.267  0.00  0.00    +0.010 A 
ATOM     14  C   LIG    1      -35.069  77.684  27.860  0.00  0.00    +0.030 A 
ATOM     15  C   LIG    1      -36.161  78.563  27.792  0.00  0.00    +0.010 A 
ATOM     16  C   LIG    1      -37.357  78.157  27.197  0.00  0.00    +0.007 A 
BRANCH  14  17
ATOM     17  C   LIG    1      -33.804  78.067  28.597  0.00  0.00    +0.367 C 
ATOM     18  F   LIG    1      -33.604  77.263  29.692  0.00  0.00    -0.190 F 
ATOM     19  F   LIG    1      -33.911  79.328  29.136  0.00  0.00    -0.190 F 
BRANCH  17  20
ATOM     20  C   LIG    1      -32.542  78.017  27.691  0.00  0.00    +0.459 C 
ATOM     21  F   LIG    1      -31.638  78.972  28.032  0.00  0.00    -0.165 F 
ATOM     22  F   LIG    1      -32.853  78.233  26.384  0.00  0.00    -0.165 F 
ATOM     23  F   LIG    1      -31.883  76.832  27.735  0.00  0.00    -0.165 F 
ENDBRANCH  17  20
ENDBRANCH  14  17
ENDBRANCH  10  11
ENDBRANCH   9  10
ENDBRANCH   2   9
BRANCH   5  24
ATOM     24  C   LIG    1      -40.189  70.352  24.096  0.00  0.00    +0.161 C 
BRANCH  24  25
ATOM     25  N   LIG    1      -39.819  69.860  22.775  0.00  0.00    -0.293 N 
ATOM     26  C   LIG    1      -38.626  69.253  22.498  0.00  0.00    +0.162 A 
ATOM     27  N   LIG    1      -37.528  69.218  23.266  0.00  0.00    -0.235 NA
ATOM     28  C   LIG    1      -36.558  68.421  22.741  0.00  0.00    +0.121 A 
ATOM     29  C   LIG    1      -36.611  67.731  21.521  0.00  0.00    +0.005 A 
ATOM     30  C   LIG    1      -37.766  67.864  20.736  0.00  0.00    +0.041 A 
ATOM     31  C   LIG    1      -38.818  68.645  21.255  0.00  0.00    +0.110 A 
ATOM     32  N   LIG    1      -40.067  68.905  20.775  0.00  0.00    -0.213 NA
ATOM     33  C   LIG    1      -40.650  69.636  21.704  0.00  0.00    +0.195 A 
BRANCH  29  34
ATOM     34  C   LIG    1      -35.504  66.877  21.131  0.00  0.00    +0.021 A 
ATOM     35  C   LIG    1      -35.510  65.981  20.082  0.00  0.00    +0.116 A 
ATOM     36  N   LIG    1      -34.267  65.412  20.054  0.00  0.00    -0.274 N 
ATOM     37  C   LIG    1      -33.803  64.415  19.120  0.00  0.00    +0.172 C 
ATOM     38  N   LIG    1      -33.444  65.876  21.009  0.00  0.00    -0.179 NA
ATOM     39  C   LIG    1      -34.196  66.762  21.665  0.00  0.00    +0.143 A 
ENDBRANCH  29  34
BRANCH  33  40
ATOM     40  N   LIG    1      -41.918  70.105  21.649  0.00  0.00    -0.329 N 
ATOM     41  H   LIG    1      -42.029  70.913  21.044  0.00  0.00    +0.145 HD
ATOM     42  H   LIG    1      -42.462  70.186  22.496  0.00  0.00    +0.145 HD
ENDBRANCH  33  40
ENDBRANCH  24  25
ENDBRANCH   5  24
TORSDOF 10
ENDMDL
MODEL 5
REMARK VINA RESULT:      -6.3     19.035     22.822
REMARK  Name = pdb/CHEMBL3673489.pdb
REMARK                            x       y       z     vdW  Elec       q    Type
REMARK                         _______ _______ _______ _____ _____    ______ ____
ROOT
ATOM      1  C   LIG    1      -18.708  80.975  14.996  0.00  0.00    +0.162 A 
ATOM      2  C   LIG    1      -18.910  79.875  15.852  0.00  0.00    +0.162 A 
ATOM      3  C   LIG    1      -20.181  79.648  16.388  0.00  0.00    +0.050 A 
ATOM      4  C   LIG    1      -21.265  80.457  16.037  0.00  0.00    +0.009 A 
ATOM      5  C   LIG    1      -21.090  81.545  15.175  0.00  0.00    -0.024 A 
ATOM      6  C   LIG    1      -19.797  81.810  14.688  0.00  0.00    +0.054 A 
ENDROOT
BRANCH   1   8
ATOM      7  C   LIG    1      -17.267  82.044  13.395  0.00  0.00    +0.277 C 
ATOM      8  O   LIG    1      -17.450  81.160  14.491  0.00  0.00    -0.491 OA
ENDBRANCH   1   8
BRANCH   2   9
ATOM      9  O   LIG    1      -17.980  78.943  16.258  0.00  0.00    -0.484 OA
BRANCH   9  10
ATOM     10  C   LIG    1      -17.887  77.754  15.475  0.00  0.00    +0.264 C 
BRANCH  10  11
ATOM     11  C   LIG    1      -18.093  76.531  16.335  0.00  0.00    -0.010 A 
ATOM     12  C   LIG    1      -18.571  75.352  15.747  0.00  0.00    +0.007 A 
ATOM     13  C   LIG    1      -18.800  74.217  16.516  0.00  0.00    +0.010 A 
ATOM     14  C   LIG    1      -18.557  74.242  17.894  0.00  0.00    +0.030 A 
ATOM     15  C   LIG    1      -18.022  75.401  18.478  0.00  0.00    +0.010 A 
ATOM     16  C   LIG    1      -17.797  76.541  17.704  0.00  0.00    +0.007 A 
BRANCH  14  17
ATOM     17  C   LIG    1      -18.910  73.036  18.737  0.00  0.00    +0.367 C 
ATOM     18  F   LIG    1      -18.656  73.268  20.067  0.00  0.00    -0.190 F 
ATOM     19  F   LIG    1      -18.097  71.968  18.434  0.00  0.00    -0.190 F 
BRANCH  17  20
ATOM     20  C   LIG    1      -20.391  72.599  18.570  0.00  0.00    +0.459 C 
ATOM     21  F   LIG    1      -20.882  72.034  19.705  0.00  0.00    -0.165 F 
ATOM     22  F   LIG    1      -20.533  71.668  17.588  0.00  0.00    -0.165 F 
ATOM     23  F   LIG    1      -21.231  73.617  18.255  0.00  0.00    -0.165 F 
ENDBRANCH  17  20
ENDBRANCH  14  17
ENDBRANCH  10  11
ENDBRANCH   9  10
ENDBRANCH   2   9
BRANCH   5  24
ATOM     24  C   LIG    1      -22.268  82.368  14.708  0.00  0.00    +0.161 C 
BRANCH  24  25
ATOM     25  N   LIG    1      -22.228  83.763  15.125  0.00  0.00    -0.293 N 
ATOM     26  C   LIG    1      -22.158  84.814  14.254  0.00  0.00    +0.162 A 
ATOM     27  N   LIG    1      -21.872  84.774  12.945  0.00  0.00    -0.235 NA
ATOM     28  C   LIG    1      -22.009  85.991  12.351  0.00  0.00    +0.121 A 
ATOM     29  C   LIG    1      -22.353  87.196  12.980  0.00  0.00    +0.005 A 
ATOM     30  C   LIG    1      -22.575  87.178  14.365  0.00  0.00    +0.041 A 
ATOM     31  C   LIG    1      -22.487  85.934  15.022  0.00  0.00    +0.110 A 
ATOM     32  N   LIG    1      -22.710  85.584  16.320  0.00  0.00    -0.213 NA
ATOM     33  C   LIG    1      -22.549  84.276  16.359  0.00  0.00    +0.195 A 
BRANCH  29  34
ATOM     34  C   LIG    1      -22.509  88.402  12.187  0.00  0.00    +0.021 A 
ATOM     35  C   LIG    1      -23.705  89.022  11.893  0.00  0.00    +0.116 A 
ATOM     36  N   LIG    1      -23.394  90.128  11.153  0.00  0.00    -0.274 N 
ATOM     37  C   LIG    1      -24.327  91.092  10.619  0.00  0.00    +0.172 C 
ATOM     38  N   LIG    1      -22.075  90.279  10.943  0.00  0.00    -0.179 NA
ATOM     39  C   LIG    1      -21.539  89.229  11.567  0.00  0.00    +0.143 A 
ENDBRANCH  29  34
BRANCH  33  40
ATOM     40  N   LIG    1      -22.698  83.502  17.458  0.00  0.00    -0.329 N 
ATOM     41  H   LIG    1      -22.010  82.758  17.530  0.00  0.00    +0.145 HD
ATOM     42  H   LIG    1      -23.618  83.197  17.739  0.00  0.00    +0.145 HD
ENDBRANCH  33  40
ENDBRANCH  24  25
ENDBRANCH   5  24
TORSDOF 10
ENDMDL
MODEL 6
REMARK VINA RESULT:      -6.3     20.852     24.962
REMARK  Name = pdb/CHEMBL3673489.pdb
REMARK                            x       y       z     vdW  Elec       q    Type
REMARK                         _______ _______ _______ _____ _____    ______ ____
ROOT
ATOM      1  C   LIG    1      -27.425  87.354  35.093  0.00  0.00    +0.162 A 
ATOM      2  C   LIG    1      -26.968  88.632  35.472  0.00  0.00    +0.162 A 
ATOM      3  C   LIG    1      -27.687  89.762  35.073  0.00  0.00    +0.050 A 
ATOM      4  C   LIG    1      -28.882  89.640  34.360  0.00  0.00    +0.009 A 
ATOM      5  C   LIG    1      -29.363  88.380  33.987  0.00  0.00    -0.024 A 
ATOM      6  C   LIG    1      -28.604  87.247  34.334  0.00  0.00    +0.054 A 
ENDROOT
BRANCH   1   8
ATOM      7  C   LIG    1      -27.369  85.081  35.876  0.00  0.00    +0.277 C 
ATOM      8  O   LIG    1      -26.693  86.274  35.506  0.00  0.00    -0.491 OA
ENDBRANCH   1   8
BRANCH   2   9
ATOM      9  O   LIG    1      -25.852  88.938  36.219  0.00  0.00    -0.484 OA
BRANCH   9  10
ATOM     10  C   LIG    1      -25.725  90.294  36.647  0.00  0.00    +0.264 C 
BRANCH  10  11
ATOM     11  C   LIG    1      -24.318  90.794  36.425  0.00  0.00    -0.010 A 
ATOM     12  C   LIG    1      -24.010  92.128  36.725  0.00  0.00    +0.007 A 
ATOM     13  C   LIG    1      -22.731  92.627  36.505  0.00  0.00    +0.010 A 
ATOM     14  C   LIG    1      -21.735  91.799  35.976  0.00  0.00    +0.030 A 
ATOM     15  C   LIG    1      -22.022  90.447  35.730  0.00  0.00    +0.010 A 
ATOM     16  C   LIG    1      -23.308  89.949  35.948  0.00  0.00    +0.007 A 
BRANCH  14  17
ATOM     17  C   LIG    1      -20.378  92.380  35.642  0.00  0.00    +0.367 C 
ATOM     18  F   LIG    1      -20.501  93.597  35.016  0.00  0.00    -0.190 F 
ATOM     19  F   LIG    1      -19.724  91.604  34.714  0.00  0.00    -0.190 F 
BRANCH  17  20
ATOM     20  C   LIG    1      -19.468  92.539  36.891  0.00  0.00    +0.459 C 
ATOM     21  F   LIG    1      -19.606  93.763  37.464  0.00  0.00    -0.165 F 
ATOM     22  F   LIG    1      -18.151  92.412  36.573  0.00  0.00    -0.165 F 
ATOM     23  F   LIG    1      -19.714  91.629  37.867  0.00  0.00    -0.165 F 
ENDBRANCH  17  20
ENDBRANCH  14  17
ENDBRANCH  10  11
ENDBRANCH   9  10
ENDBRANCH   2   9
BRANCH   5  24
ATOM     24  C   LIG    1      -30.701  88.225  33.304  0.00  0.00    +0.161 C 
BRANCH  24  25
ATOM     25  N   LIG    1      -30.713  87.250  32.222  0.00  0.00    -0.293 N 
ATOM     26  C   LIG    1      -31.688  86.304  32.064  0.00  0.00    +0.162 A 
ATOM     27  N   LIG    1      -32.626  85.940  32.949  0.00  0.00    -0.235 NA
ATOM     28  C   LIG    1      -33.516  85.056  32.421  0.00  0.00    +0.121 A 
ATOM     29  C   LIG    1      -33.487  84.508  31.131  0.00  0.00    +0.005 A 
ATOM     30  C   LIG    1      -32.439  84.885  30.277  0.00  0.00    +0.041 A 
ATOM     31  C   LIG    1      -31.514  85.831  30.761  0.00  0.00    +0.110 A 
ATOM     32  N   LIG    1      -30.449  86.436  30.163  0.00  0.00    -0.213 NA
ATOM     33  C   LIG    1      -29.984  87.284  31.059  0.00  0.00    +0.195 A 
BRANCH  29  34
ATOM     34  C   LIG    1      -34.549  83.614  30.706  0.00  0.00    +0.021 A 
ATOM     35  C   LIG    1      -35.186  83.646  29.483  0.00  0.00    +0.116 A 
ATOM     36  N   LIG    1      -36.091  82.622  29.493  0.00  0.00    -0.274 N 
ATOM     37  C   LIG    1      -36.989  82.261  28.422  0.00  0.00    +0.172 C 
ATOM     38  N   LIG    1      -36.088  81.916  30.637  0.00  0.00    -0.179 NA
ATOM     39  C   LIG    1      -35.155  82.521  31.374  0.00  0.00    +0.143 A 
ENDBRANCH  29  34
BRANCH  33  40
ATOM     40  N   LIG    1      -28.933  88.115  30.877  0.00  0.00    -0.329 N 
ATOM     41  H   LIG    1      -28.809  88.412  29.913  0.00  0.00    +0.145 HD
ATOM     42  H   LIG    1      -28.053  87.922  31.332  0.00  0.00    +0.145 HD
ENDBRANCH  33  40
ENDBRANCH  24  25
ENDBRANCH   5  24
TORSDOF 10
ENDMDL
MODEL 7
REMARK VINA RESULT:      -6.3      6.525     10.238
REMARK  Name = pdb/CHEMBL3673489.pdb
REMARK                            x       y       z     vdW  Elec       q    Type
REMARK                         _______ _______ _______ _____ _____    ______ ____
ROOT
ATOM      1  C   LIG    1      -39.529  76.503  27.874  0.00  0.00    +0.162 A 
ATOM      2  C   LIG    1      -39.321  77.116  26.623  0.00  0.00    +0.162 A 
ATOM      3  C   LIG    1      -38.168  77.879  26.417  0.00  0.00    +0.050 A 
ATOM      4  C   LIG    1      -37.191  77.988  27.409  0.00  0.00    +0.009 A 
ATOM      5  C   LIG    1      -37.369  77.374  28.653  0.00  0.00    -0.024 A 
ATOM      6  C   LIG    1      -38.560  76.661  28.881  0.00  0.00    +0.054 A 
ENDROOT
BRANCH   1   8
ATOM      7  C   LIG    1      -40.621  74.362  27.816  0.00  0.00    +0.277 C 
ATOM      8  O   LIG    1      -40.669  75.764  28.034  0.00  0.00    -0.491 OA
ENDBRANCH   1   8
BRANCH   2   9
ATOM      9  O   LIG    1      -40.141  77.069  25.517  0.00  0.00    -0.484 OA
BRANCH   9  10
ATOM     10  C   LIG    1      -39.565  76.545  24.320  0.00  0.00    +0.264 C 
BRANCH  10  11
ATOM     11  C   LIG    1      -39.367  75.053  24.432  0.00  0.00    -0.010 A 
ATOM     12  C   LIG    1      -40.389  74.193  24.005  0.00  0.00    +0.007 A 
ATOM     13  C   LIG    1      -40.250  72.815  24.120  0.00  0.00    +0.010 A 
ATOM     14  C   LIG    1      -39.084  72.270  24.671  0.00  0.00    +0.030 A 
ATOM     15  C   LIG    1      -38.034  73.124  25.044  0.00  0.00    +0.010 A 
ATOM     16  C   LIG    1      -38.178  74.508  24.930  0.00  0.00    +0.007 A 
BRANCH  14  17
ATOM     17  C   LIG    1      -38.988  70.775  24.889  0.00  0.00    +0.367 C 
ATOM     18  F   LIG    1      -40.215  70.240  25.200  0.00  0.00    -0.190 F 
ATOM     19  F   LIG    1      -38.220  70.488  25.993  0.00  0.00    -0.190 F 
BRANCH  17  20
ATOM     20  C   LIG    1      -38.400  70.025  23.662  0.00  0.00    +0.459 C 
ATOM     21  F   LIG    1      -39.208  70.126  22.574  0.00  0.00    -0.165 F 
ATOM     22  F   LIG    1      -38.256  68.695  23.908  0.00  0.00    -0.165 F 
ATOM     23  F   LIG    1      -37.180  70.476  23.277  0.00  0.00    -0.165 F 
ENDBRANCH  17  20
ENDBRANCH  14  17
ENDBRANCH  10  11
ENDBRANCH   9  10
ENDBRANCH   2   9
BRANCH   5  24
ATOM     24  C   LIG    1      -36.279  77.399  29.700  0.00  0.00    +0.161 C 
BRANCH  24  25
ATOM     25  N   LIG    1      -35.081  76.654  29.336  0.00  0.00    -0.293 N 
ATOM     26  C   LIG    1      -35.073  75.311  29.079  0.00  0.00    +0.162 A 
ATOM     27  N   LIG    1      -36.041  74.421  29.341  0.00  0.00    -0.235 NA
ATOM     28  C   LIG    1      -35.753  73.188  28.842  0.00  0.00    +0.121 A 
ATOM     29  C   LIG    1      -34.582  72.807  28.171  0.00  0.00    +0.005 A 
ATOM     30  C   LIG    1      -33.582  73.774  27.989  0.00  0.00    +0.041 A 
ATOM     31  C   LIG    1      -33.847  75.079  28.450  0.00  0.00    +0.110 A 
ATOM     32  N   LIG    1      -33.121  76.229  28.362  0.00  0.00    -0.213 NA
ATOM     33  C   LIG    1      -33.882  77.162  28.900  0.00  0.00    +0.195 A 
BRANCH  29  34
ATOM     34  C   LIG    1      -34.457  71.456  27.654  0.00  0.00    +0.021 A 
ATOM     35  C   LIG    1      -34.954  71.007  26.449  0.00  0.00    +0.116 A 
ATOM     36  N   LIG    1      -34.591  69.693  26.347  0.00  0.00    -0.274 N 
ATOM     37  C   LIG    1      -34.887  68.805  25.250  0.00  0.00    +0.172 C 
ATOM     38  N   LIG    1      -33.885  69.250  27.402  0.00  0.00    -0.179 NA
ATOM     39  C   LIG    1      -33.807  70.319  28.197  0.00  0.00    +0.143 A 
ENDBRANCH  29  34
BRANCH  33  40
ATOM     40  N   LIG    1      -33.559  78.470  29.005  0.00  0.00    -0.329 N 
ATOM     41  H   LIG    1      -32.801  78.653  29.656  0.00  0.00    +0.145 HD
ATOM     42  H   LIG    1      -34.288  79.166  29.065  0.00  0.00    +0.145 HD
ENDBRANCH  33  40
ENDBRANCH  24  25
ENDBRANCH   5  24
TORSDOF 10
ENDMDL
MODEL 8
REMARK VINA RESULT:      -6.1     15.075     17.977
REMARK  Name = pdb/CHEMBL3673489.pdb
REMARK                            x       y       z     vdW  Elec       q    Type
REMARK                         _______ _______ _______ _____ _____    ______ ____
ROOT
ATOM      1  C   LIG    1      -21.248  78.942  15.124  0.00  0.00    +0.162 A 
ATOM      2  C   LIG    1      -22.556  79.348  15.458  0.00  0.00    +0.162 A 
ATOM      3  C   LIG    1      -23.586  78.403  15.462  0.00  0.00    +0.050 A 
ATOM      4  C   LIG    1      -23.328  77.055  15.203  0.00  0.00    +0.009 A 
ATOM      5  C   LIG    1      -22.034  76.627  14.885  0.00  0.00    -0.024 A 
ATOM      6  C   LIG    1      -21.011  77.590  14.818  0.00  0.00    +0.054 A 
ENDROOT
BRANCH   1   8
ATOM      7  C   LIG    1      -19.535  80.124  16.328  0.00  0.00    +0.277 C 
ATOM      8  O   LIG    1      -20.269  79.897  15.134  0.00  0.00    -0.491 OA
ENDBRANCH   1   8
BRANCH   2   9
ATOM      9  O   LIG    1      -22.982  80.613  15.797  0.00  0.00    -0.484 OA
BRANCH   9  10
ATOM     10  C   LIG    1      -23.721  81.324  14.803  0.00  0.00    +0.264 C 
BRANCH  10  11
ATOM     11  C   LIG    1      -23.240  82.751  14.701  0.00  0.00    -0.010 A 
ATOM     12  C   LIG    1      -22.877  83.436  15.869  0.00  0.00    +0.007 A 
ATOM     13  C   LIG    1      -22.459  84.761  15.813  0.00  0.00    +0.010 A 
ATOM     14  C   LIG    1      -22.398  85.427  14.584  0.00  0.00    +0.030 A 
ATOM     15  C   LIG    1      -22.703  84.727  13.406  0.00  0.00    +0.010 A 
ATOM     16  C   LIG    1      -23.128  83.398  13.465  0.00  0.00    +0.007 A 
BRANCH  14  17
ATOM     17  C   LIG    1      -22.044  86.898  14.547  0.00  0.00    +0.367 C 
ATOM     18  F   LIG    1      -22.098  87.453  15.802  0.00  0.00    -0.190 F 
ATOM     19  F   LIG    1      -22.979  87.612  13.836  0.00  0.00    -0.190 F 
BRANCH  17  20
ATOM     20  C   LIG    1      -20.641  87.163  13.933  0.00  0.00    +0.459 C 
ATOM     21  F   LIG    1      -20.261  88.459  14.083  0.00  0.00    -0.165 F 
ATOM     22  F   LIG    1      -20.622  86.912  12.596  0.00  0.00    -0.165 F 
ATOM     23  F   LIG    1      -19.654  86.408  14.476  0.00  0.00    -0.165 F 
ENDBRANCH  17  20
ENDBRANCH  14  17
ENDBRANCH  10  11
ENDBRANCH   9  10
ENDBRANCH   2   9
BRANCH   5  24
ATOM     24  C   LIG    1      -21.720  75.162  14.700  0.00  0.00    +0.161 C 
BRANCH  24  25
ATOM     25  N   LIG    1      -21.842  74.365  15.914  0.00  0.00    -0.293 N 
ATOM     26  C   LIG    1      -22.917  73.568  16.193  0.00  0.00    +0.162 A 
ATOM     27  N   LIG    1      -24.108  73.555  15.578  0.00  0.00    -0.235 NA
ATOM     28  C   LIG    1      -24.908  72.551  16.028  0.00  0.00    +0.121 A 
ATOM     29  C   LIG    1      -24.610  71.635  17.048  0.00  0.00    +0.005 A 
ATOM     30  C   LIG    1      -23.370  71.747  17.694  0.00  0.00    +0.041 A 
ATOM     31  C   LIG    1      -22.486  72.744  17.236  0.00  0.00    +0.110 A 
ATOM     32  N   LIG    1      -21.211  73.054  17.604  0.00  0.00    -0.213 NA
ATOM     33  C   LIG    1      -20.844  74.030  16.797  0.00  0.00    +0.195 A 
BRANCH  29  34
ATOM     34  C   LIG    1      -25.560  70.586  17.371  0.00  0.00    +0.021 A 
ATOM     35  C   LIG    1      -26.218  70.440  18.574  0.00  0.00    +0.116 A 
ATOM     36  N   LIG    1      -27.030  69.348  18.440  0.00  0.00    -0.274 N 
ATOM     37  C   LIG    1      -27.916  68.811  19.444  0.00  0.00    +0.172 C 
ATOM     38  N   LIG    1      -26.953  68.770  17.229  0.00  0.00    -0.179 NA
ATOM     39  C   LIG    1      -26.059  69.519  16.582  0.00  0.00    +0.143 A 
ENDBRANCH  29  34
BRANCH  33  40
ATOM     40  N   LIG    1      -19.633  74.632  16.798  0.00  0.00    -0.329 N 
ATOM     41  H   LIG    1      -18.856  73.987  16.690  0.00  0.00    +0.145 HD
ATOM     42  H   LIG    1      -19.434  75.360  17.468  0.00  0.00    +0.145 HD
ENDBRANCH  33  40
ENDBRANCH  24  25
ENDBRANCH   5  24
TORSDOF 10
ENDMDL
MODEL 9
REMARK VINA RESULT:      -6.1     12.966     16.761
REMARK  Name = pdb/CHEMBL3673489.pdb
REMARK                            x       y       z     vdW  Elec       q    Type
REMARK                         _______ _______ _______ _____ _____    ______ ____
ROOT
ATOM      1  C   LIG    1      -31.213  76.045  32.626  0.00  0.00    +0.162 A 
ATOM      2  C   LIG    1      -30.125  76.215  31.747  0.00  0.00    +0.162 A 
ATOM      3  C   LIG    1      -30.350  76.202  30.368  0.00  0.00    +0.050 A 
ATOM      4  C   LIG    1      -31.642  76.087  29.850  0.00  0.00    +0.009 A 
ATOM      5  C   LIG    1      -32.739  75.934  30.705  0.00  0.00    -0.024 A 
ATOM      6  C   LIG    1      -32.503  75.883  32.091  0.00  0.00    +0.054 A 
ENDROOT
BRANCH   1   8
ATOM      7  C   LIG    1      -30.783  74.839  34.661  0.00  0.00    +0.277 C 
ATOM      8  O   LIG    1      -30.950  76.067  33.968  0.00  0.00    -0.491 OA
ENDBRANCH   1   8
BRANCH   2   9
ATOM      9  O   LIG    1      -28.800  76.400  32.076  0.00  0.00    -0.484 OA
BRANCH   9  10
ATOM     10  C   LIG    1      -27.964  75.244  32.026  0.00  0.00    +0.264 C 
BRANCH  10  11
ATOM     11  C   LIG    1      -26.511  75.640  31.918  0.00  0.00    -0.010 A 
ATOM     12  C   LIG    1      -26.150  76.979  32.124  0.00  0.00    +0.007 A 
ATOM     13  C   LIG    1      -24.825  77.382  32.004  0.00  0.00    +0.010 A 
ATOM     14  C   LIG    1      -23.834  76.451  31.671  0.00  0.00    +0.030 A 
ATOM     15  C   LIG    1      -24.183  75.099  31.523  0.00  0.00    +0.010 A 
ATOM     16  C   LIG    1      -25.515  74.697  31.640  0.00  0.00    +0.007 A 
BRANCH  14  17
ATOM     17  C   LIG    1      -22.415  76.920  31.439  0.00  0.00    +0.367 C 
ATOM     18  F   LIG    1      -21.506  75.974  31.847  0.00  0.00    -0.190 F 
ATOM     19  F   LIG    1      -22.123  78.011  32.225  0.00  0.00    -0.190 F 
BRANCH  17  20
ATOM     20  C   LIG    1      -22.138  77.286  29.955  0.00  0.00    +0.459 C 
ATOM     21  F   LIG    1      -20.970  77.965  29.812  0.00  0.00    -0.165 F 
ATOM     22  F   LIG    1      -23.112  78.088  29.445  0.00  0.00    -0.165 F 
ATOM     23  F   LIG    1      -22.060  76.211  29.131  0.00  0.00    -0.165 F 
ENDBRANCH  17  20
ENDBRANCH  14  17
ENDBRANCH  10  11
ENDBRANCH   9  10
ENDBRANCH   2   9
BRANCH   5  24
ATOM     24  C   LIG    1      -34.151  75.909  30.166  0.00  0.00    +0.161 C 
BRANCH  24  25
ATOM     25  N   LIG    1      -34.410  76.887  29.119  0.00  0.00    -0.293 N 
ATOM     26  C   LIG    1      -34.629  78.216  29.359  0.00  0.00    +0.162 A 
ATOM     27  N   LIG    1      -34.887  78.803  30.536  0.00  0.00    -0.235 NA
ATOM     28  C   LIG    1      -34.930  80.159  30.435  0.00  0.00    +0.121 A 
ATOM     29  C   LIG    1      -34.784  80.917  29.264  0.00  0.00    +0.005 A 
ATOM     30  C   LIG    1      -34.581  80.233  28.056  0.00  0.00    +0.041 A 
ATOM     31  C   LIG    1      -34.486  78.829  28.112  0.00  0.00    +0.110 A 
ATOM     32  N   LIG    1      -34.229  77.905  27.143  0.00  0.00    -0.213 NA
ATOM     33  C   LIG    1      -34.188  76.746  27.770  0.00  0.00    +0.195 A 
BRANCH  29  34
ATOM     34  C   LIG    1      -34.804  82.367  29.340  0.00  0.00    +0.021 A 
ATOM     35  C   LIG    1      -35.576  83.202  28.560  0.00  0.00    +0.116 A 
ATOM     36  N   LIG    1      -35.307  84.476  28.977  0.00  0.00    -0.274 N 
ATOM     37  C   LIG    1      -35.887  85.689  28.453  0.00  0.00    +0.172 C 
ATOM     38  N   LIG    1      -34.415  84.534  29.980  0.00  0.00    -0.179 NA
ATOM     39  C   LIG    1      -34.106  83.254  30.197  0.00  0.00    +0.143 A 
ENDBRANCH  29  34
BRANCH  33  40
ATOM     40  N   LIG    1      -33.937  75.551  27.190  0.00  0.00    -0.329 N 
ATOM     41  H   LIG    1      -34.656  75.257  26.535  0.00  0.00    +0.145 HD
ATOM     42  H   LIG    1      -33.593  74.783  27.747  0.00  0.00    +0.145 HD
ENDBRANCH  33  40
ENDBRANCH  24  25
ENDBRANCH   5  24
TORSDOF 10
ENDMDL
