MODEL 1
REMARK VINA RESULT:      -6.2      0.000      0.000
REMARK  Name = pdb/CHEMBL3671406.pdb
REMARK                            x       y       z     vdW  Elec       q    Type
REMARK                         _______ _______ _______ _____ _____    ______ ____
ROOT
ATOM      1  C   LIG    1      -20.536  77.013  30.588  0.00  0.00    +0.042 A 
ATOM      2  C   LIG    1      -20.689  77.950  31.626  0.00  0.00    +0.038 A 
ATOM      3  C   LIG    1      -19.593  78.358  32.403  0.00  0.00    +0.052 A 
ATOM      4  C   LIG    1      -18.351  77.823  32.072  0.00  0.00    +0.134 A 
ATOM      5  N   LIG    1      -18.158  76.926  31.070  0.00  0.00    -0.261 NA
ATOM      6  C   LIG    1      -19.251  76.525  30.371  0.00  0.00    +0.122 A 
ENDROOT
BRANCH   3   7
ATOM      7  N   LIG    1      -19.826  79.256  33.476  0.00  0.00    -0.284 N 
ATOM      8  H   LIG    1      -20.026  80.220  33.230  0.00  0.00    +0.155 HD
ATOM      9  C   LIG    1      -19.932  78.922  34.819  0.00  0.00    +0.223 C 
ATOM     10  O   LIG    1      -19.839  77.788  35.283  0.00  0.00    -0.275 OA
BRANCH   9  11
ATOM     11  C   LIG    1      -20.167  80.104  35.743  0.00  0.00    +0.151 C 
BRANCH  11  12
ATOM     12  C   LIG    1      -21.628  80.303  36.042  0.00  0.00    +0.050 A 
ATOM     13  N   LIG    1      -22.497  80.066  35.026  0.00  0.00    -0.258 NA
ATOM     14  C   LIG    1      -23.822  80.202  35.297  0.00  0.00    +0.129 A 
ATOM     15  C   LIG    1      -24.330  80.558  36.537  0.00  0.00    +0.070 A 
ATOM     16  C   LIG    1      -23.422  80.815  37.562  0.00  0.00    +0.022 A 
ATOM     17  C   LIG    1      -22.054  80.688  37.314  0.00  0.00    +0.025 A 
BRANCH  15  18
ATOM     18  C   LIG    1      -25.735  80.634  36.753  0.00  0.00    +0.101 C 
ATOM     19  N   LIG    1      -26.888  80.704  36.925  0.00  0.00    -0.191 NA
ENDBRANCH  15  18
ENDBRANCH  11  12
ENDBRANCH   9  11
ENDBRANCH   3   7
BRANCH   1  20
ATOM     20  C   LIG    1      -21.694  76.453  29.810  0.00  0.00    +0.197 C 
ATOM     21  O   LIG    1      -21.622  76.440  28.584  0.00  0.00    -0.287 OA
BRANCH  20  29
ATOM     22  N   LIG    1      -24.157  74.337  31.539  0.00  0.00    -0.326 N 
ATOM     23  C   LIG    1      -24.938  75.453  31.333  0.00  0.00    +0.147 A 
ATOM     24  N   LIG    1      -26.244  75.557  31.635  0.00  0.00    -0.197 NA
ATOM     25  C   LIG    1      -26.745  76.776  31.429  0.00  0.00    +0.214 A 
ATOM     26  N   LIG    1      -26.072  77.834  30.957  0.00  0.00    -0.222 NA
ATOM     27  C   LIG    1      -24.758  77.692  30.641  0.00  0.00    +0.126 A 
ATOM     28  C   LIG    1      -24.135  76.454  30.793  0.00  0.00    +0.048 A 
ATOM     29  C   LIG    1      -22.850  75.875  30.516  0.00  0.00    +0.051 A 
ATOM     30  C   LIG    1      -22.877  74.630  31.121  0.00  0.00    +0.100 A 
BRANCH  22  32
ATOM     31  C   LIG    1      -25.065  73.293  33.606  0.00  0.00    +0.034 C 
ATOM     32  C   LIG    1      -24.602  73.065  32.152  0.00  0.00    +0.039 C 
ATOM     33  C   LIG    1      -25.757  72.429  31.350  0.00  0.00    +0.034 C 
ATOM     34  C   LIG    1      -23.453  72.027  32.183  0.00  0.00    +0.034 C 
ENDBRANCH  22  32
BRANCH  25  35
ATOM     35  N   LIG    1      -28.092  76.950  31.689  0.00  0.00    -0.327 N 
ATOM     36  H   LIG    1      -28.218  77.602  32.450  0.00  0.00    +0.145 HD
ATOM     37  H   LIG    1      -28.540  76.048  31.774  0.00  0.00    +0.145 HD
ENDBRANCH  25  35
ENDBRANCH  20  29
ENDBRANCH   1  20
TORSDOF 8
ENDMDL
MODEL 2
REMARK VINA RESULT:      -5.8     16.904     20.746
REMARK  Name = pdb/CHEMBL3671406.pdb
REMARK                            x       y       z     vdW  Elec       q    Type
REMARK                         _______ _______ _______ _____ _____    ______ ____
ROOT
ATOM      1  C   LIG    1      -40.268  82.023  23.007  0.00  0.00    +0.042 A 
ATOM      2  C   LIG    1      -39.586  80.795  23.096  0.00  0.00    +0.038 A 
ATOM      3  C   LIG    1      -40.036  79.775  23.950  0.00  0.00    +0.052 A 
ATOM      4  C   LIG    1      -41.204  80.023  24.667  0.00  0.00    +0.134 A 
ATOM      5  N   LIG    1      -41.899  81.188  24.600  0.00  0.00    -0.261 NA
ATOM      6  C   LIG    1      -41.405  82.165  23.795  0.00  0.00    +0.122 A 
ENDROOT
BRANCH   3   7
ATOM      7  N   LIG    1      -39.267  78.588  24.043  0.00  0.00    -0.284 N 
ATOM      8  H   LIG    1      -38.880  78.225  23.177  0.00  0.00    +0.155 HD
ATOM      9  C   LIG    1      -38.887  77.943  25.211  0.00  0.00    +0.223 C 
ATOM     10  O   LIG    1      -39.163  78.310  26.352  0.00  0.00    -0.275 OA
BRANCH   9  11
ATOM     11  C   LIG    1      -38.078  76.676  24.996  0.00  0.00    +0.151 C 
BRANCH  11  12
ATOM     12  C   LIG    1      -38.950  75.508  24.623  0.00  0.00    +0.050 A 
ATOM     13  N   LIG    1      -40.166  75.798  24.094  0.00  0.00    -0.258 NA
ATOM     14  C   LIG    1      -40.945  74.751  23.714  0.00  0.00    +0.129 A 
ATOM     15  C   LIG    1      -40.570  73.420  23.829  0.00  0.00    +0.070 A 
ATOM     16  C   LIG    1      -39.326  73.143  24.392  0.00  0.00    +0.022 A 
ATOM     17  C   LIG    1      -38.505  74.197  24.796  0.00  0.00    +0.025 A 
BRANCH  15  18
ATOM     18  C   LIG    1      -41.424  72.381  23.365  0.00  0.00    +0.101 C 
ATOM     19  N   LIG    1      -42.125  71.532  22.975  0.00  0.00    -0.191 NA
ENDBRANCH  15  18
ENDBRANCH  11  12
ENDBRANCH   9  11
ENDBRANCH   3   7
BRANCH   1  20
ATOM     20  C   LIG    1      -39.760  83.188  22.203  0.00  0.00    +0.197 C 
ATOM     21  O   LIG    1      -39.964  83.196  20.993  0.00  0.00    -0.287 OA
BRANCH  20  29
ATOM     22  N   LIG    1      -38.532  86.450  23.381  0.00  0.00    -0.326 N 
ATOM     23  C   LIG    1      -37.631  85.633  24.029  0.00  0.00    +0.147 A 
ATOM     24  N   LIG    1      -36.586  86.053  24.762  0.00  0.00    -0.197 NA
ATOM     25  C   LIG    1      -35.924  85.065  25.366  0.00  0.00    +0.214 A 
ATOM     26  N   LIG    1      -36.211  83.759  25.280  0.00  0.00    -0.222 NA
ATOM     27  C   LIG    1      -37.261  83.363  24.514  0.00  0.00    +0.126 A 
ATOM     28  C   LIG    1      -38.010  84.310  23.817  0.00  0.00    +0.048 A 
ATOM     29  C   LIG    1      -39.096  84.317  22.876  0.00  0.00    +0.051 A 
ATOM     30  C   LIG    1      -39.463  85.647  22.758  0.00  0.00    +0.100 A 
BRANCH  22  32
ATOM     31  C   LIG    1      -38.819  88.459  24.818  0.00  0.00    +0.034 C 
ATOM     32  C   LIG    1      -38.533  87.930  23.397  0.00  0.00    +0.039 C 
ATOM     33  C   LIG    1      -37.183  88.497  22.911  0.00  0.00    +0.034 C 
ATOM     34  C   LIG    1      -39.623  88.499  22.457  0.00  0.00    +0.034 C 
ENDBRANCH  22  32
BRANCH  25  35
ATOM     35  N   LIG    1      -34.817  85.420  26.115  0.00  0.00    -0.327 N 
ATOM     36  H   LIG    1      -35.104  85.741  27.028  0.00  0.00    +0.145 HD
ATOM     37  H   LIG    1      -34.225  86.034  25.573  0.00  0.00    +0.145 HD
ENDBRANCH  25  35
ENDBRANCH  20  29
ENDBRANCH   1  20
TORSDOF 8
ENDMDL
MODEL 3
REMARK VINA RESULT:      -5.7     11.504     16.515
REMARK  Name = pdb/CHEMBL3671406.pdb
REMARK                            x       y       z     vdW  Elec       q    Type
REMARK                         _______ _______ _______ _____ _____    ______ ____
ROOT
ATOM      1  C   LIG    1      -33.818  72.030  28.744  0.00  0.00    +0.042 A 
ATOM      2  C   LIG    1      -34.668  71.788  27.650  0.00  0.00    +0.038 A 
ATOM      3  C   LIG    1      -34.640  70.560  26.967  0.00  0.00    +0.052 A 
ATOM      4  C   LIG    1      -33.767  69.590  27.450  0.00  0.00    +0.134 A 
ATOM      5  N   LIG    1      -32.940  69.778  28.511  0.00  0.00    -0.261 NA
ATOM      6  C   LIG    1      -32.965  70.995  29.116  0.00  0.00    +0.122 A 
ENDROOT
BRANCH   3   7
ATOM      7  N   LIG    1      -35.475  70.404  25.832  0.00  0.00    -0.284 N 
ATOM      8  H   LIG    1      -35.089  70.689  24.937  0.00  0.00    +0.155 HD
ATOM      9  C   LIG    1      -36.718  69.787  25.803  0.00  0.00    +0.223 C 
ATOM     10  O   LIG    1      -37.285  69.278  26.768  0.00  0.00    -0.275 OA
BRANCH   9  11
ATOM     11  C   LIG    1      -37.388  69.787  24.441  0.00  0.00    +0.151 C 
BRANCH  11  12
ATOM     12  C   LIG    1      -38.363  70.924  24.293  0.00  0.00    +0.050 A 
ATOM     13  N   LIG    1      -37.941  72.147  24.704  0.00  0.00    -0.258 NA
ATOM     14  C   LIG    1      -38.798  73.189  24.536  0.00  0.00    +0.129 A 
ATOM     15  C   LIG    1      -40.059  73.076  23.970  0.00  0.00    +0.070 A 
ATOM     16  C   LIG    1      -40.481  71.809  23.571  0.00  0.00    +0.022 A 
ATOM     17  C   LIG    1      -39.626  70.718  23.735  0.00  0.00    +0.025 A 
BRANCH  15  18
ATOM     18  C   LIG    1      -40.879  74.224  23.785  0.00  0.00    +0.101 C 
ATOM     19  N   LIG    1      -41.549  75.167  23.624  0.00  0.00    -0.191 NA
ENDBRANCH  15  18
ENDBRANCH  11  12
ENDBRANCH   9  11
ENDBRANCH   3   7
BRANCH   1  20
ATOM     20  C   LIG    1      -33.721  73.365  29.429  0.00  0.00    +0.197 C 
ATOM     21  O   LIG    1      -33.155  73.424  30.517  0.00  0.00    -0.287 OA
BRANCH  20  29
ATOM     22  N   LIG    1      -35.696  75.985  27.765  0.00  0.00    -0.326 N 
ATOM     23  C   LIG    1      -34.437  76.513  27.580  0.00  0.00    +0.147 A 
ATOM     24  N   LIG    1      -34.154  77.622  26.876  0.00  0.00    -0.197 NA
ATOM     25  C   LIG    1      -32.869  77.977  26.931  0.00  0.00    +0.214 A 
ATOM     26  N   LIG    1      -31.901  77.328  27.592  0.00  0.00    -0.222 NA
ATOM     27  C   LIG    1      -32.215  76.197  28.278  0.00  0.00    +0.126 A 
ATOM     28  C   LIG    1      -33.525  75.719  28.269  0.00  0.00    +0.048 A 
ATOM     29  C   LIG    1      -34.237  74.575  28.768  0.00  0.00    +0.051 A 
ATOM     30  C   LIG    1      -35.575  74.862  28.556  0.00  0.00    +0.100 A 
BRANCH  22  32
ATOM     31  C   LIG    1      -38.176  75.876  27.923  0.00  0.00    +0.034 C 
ATOM     32  C   LIG    1      -36.963  76.554  27.252  0.00  0.00    +0.039 C 
ATOM     33  C   LIG    1      -37.036  78.075  27.501  0.00  0.00    +0.034 C 
ATOM     34  C   LIG    1      -37.093  76.342  25.724  0.00  0.00    +0.034 C 
ENDBRANCH  22  32
BRANCH  25  35
ATOM     35  N   LIG    1      -32.497  79.094  26.205  0.00  0.00    -0.327 N 
ATOM     36  H   LIG    1      -32.042  79.764  26.808  0.00  0.00    +0.145 HD
ATOM     37  H   LIG    1      -33.283  79.421  25.660  0.00  0.00    +0.145 HD
ENDBRANCH  25  35
ENDBRANCH  20  29
ENDBRANCH   1  20
TORSDOF 8
ENDMDL
MODEL 4
REMARK VINA RESULT:      -5.7     12.048     16.218
REMARK  Name = pdb/CHEMBL3671406.pdb
REMARK                            x       y       z     vdW  Elec       q    Type
REMARK                         _______ _______ _______ _____ _____    ______ ____
ROOT
ATOM      1  C   LIG    1      -38.942  74.069  24.683  0.00  0.00    +0.042 A 
ATOM      2  C   LIG    1      -37.759  74.572  25.254  0.00  0.00    +0.038 A 
ATOM      3  C   LIG    1      -37.537  75.955  25.364  0.00  0.00    +0.052 A 
ATOM      4  C   LIG    1      -38.556  76.794  24.920  0.00  0.00    +0.134 A 
ATOM      5  N   LIG    1      -39.718  76.349  24.376  0.00  0.00    -0.261 NA
ATOM      6  C   LIG    1      -39.874  75.006  24.247  0.00  0.00    +0.122 A 
ENDROOT
BRANCH   3   7
ATOM      7  N   LIG    1      -36.296  76.397  25.888  0.00  0.00    -0.284 N 
ATOM      8  H   LIG    1      -35.598  76.702  25.217  0.00  0.00    +0.155 HD
ATOM      9  C   LIG    1      -35.985  76.571  27.230  0.00  0.00    +0.223 C 
ATOM     10  O   LIG    1      -36.748  76.367  28.172  0.00  0.00    -0.275 OA
BRANCH   9  11
ATOM     11  C   LIG    1      -34.565  77.039  27.490  0.00  0.00    +0.151 C 
BRANCH  11  12
ATOM     12  C   LIG    1      -33.716  75.953  28.094  0.00  0.00    +0.050 A 
ATOM     13  N   LIG    1      -32.644  76.352  28.826  0.00  0.00    -0.258 NA
ATOM     14  C   LIG    1      -31.895  75.380  29.411  0.00  0.00    +0.129 A 
ATOM     15  C   LIG    1      -32.163  74.023  29.309  0.00  0.00    +0.070 A 
ATOM     16  C   LIG    1      -33.257  73.634  28.539  0.00  0.00    +0.022 A 
ATOM     17  C   LIG    1      -34.043  74.608  27.921  0.00  0.00    +0.025 A 
BRANCH  15  18
ATOM     18  C   LIG    1      -31.358  73.069  29.991  0.00  0.00    +0.101 C 
ATOM     19  N   LIG    1      -30.693  72.293  30.558  0.00  0.00    -0.191 NA
ENDBRANCH  15  18
ENDBRANCH  11  12
ENDBRANCH   9  11
ENDBRANCH   3   7
BRANCH   1  20
ATOM     20  C   LIG    1      -39.174  72.605  24.430  0.00  0.00    +0.197 C 
ATOM     21  O   LIG    1      -40.164  72.274  23.784  0.00  0.00    -0.287 OA
BRANCH  20  29
ATOM     22  N   LIG    1      -36.699  70.573  26.240  0.00  0.00    -0.326 N 
ATOM     23  C   LIG    1      -36.590  69.989  24.997  0.00  0.00    +0.147 A 
ATOM     24  N   LIG    1      -35.710  69.031  24.661  0.00  0.00    -0.197 NA
ATOM     25  C   LIG    1      -35.875  68.563  23.423  0.00  0.00    +0.214 A 
ATOM     26  N   LIG    1      -36.799  68.973  22.544  0.00  0.00    -0.222 NA
ATOM     27  C   LIG    1      -37.663  69.958  22.906  0.00  0.00    +0.126 A 
ATOM     28  C   LIG    1      -37.566  70.539  24.170  0.00  0.00    +0.048 A 
ATOM     29  C   LIG    1      -38.193  71.610  24.893  0.00  0.00    +0.051 A 
ATOM     30  C   LIG    1      -37.726  71.491  26.191  0.00  0.00    +0.100 A 
BRANCH  22  32
ATOM     31  C   LIG    1      -36.194  68.800  27.910  0.00  0.00    +0.034 C 
ATOM     32  C   LIG    1      -35.891  70.236  27.434  0.00  0.00    +0.039 C 
ATOM     33  C   LIG    1      -34.380  70.361  27.143  0.00  0.00    +0.034 C 
ATOM     34  C   LIG    1      -36.202  71.195  28.609  0.00  0.00    +0.034 C 
ENDBRANCH  22  32
BRANCH  25  35
ATOM     35  N   LIG    1      -34.984  67.595  22.997  0.00  0.00    -0.327 N 
ATOM     36  H   LIG    1      -35.447  66.946  22.377  0.00  0.00    +0.145 HD
ATOM     37  H   LIG    1      -34.498  67.208  23.793  0.00  0.00    +0.145 HD
ENDBRANCH  25  35
ENDBRANCH  20  29
ENDBRANCH   1  20
TORSDOF 8
ENDMDL
MODEL 5
REMARK VINA RESULT:      -5.6     20.654     23.425
REMARK  Name = pdb/CHEMBL3671406.pdb
REMARK                            x       y       z     vdW  Elec       q    Type
REMARK                         _______ _______ _______ _____ _____    ______ ____
ROOT
ATOM      1  C   LIG    1      -23.152  87.433  13.022  0.00  0.00    +0.042 A 
ATOM      2  C   LIG    1      -22.932  86.110  13.446  0.00  0.00    +0.038 A 
ATOM      3  C   LIG    1      -22.350  85.835  14.694  0.00  0.00    +0.052 A 
ATOM      4  C   LIG    1      -22.041  86.927  15.500  0.00  0.00    +0.134 A 
ATOM      5  N   LIG    1      -22.250  88.219  15.135  0.00  0.00    -0.261 NA
ATOM      6  C   LIG    1      -22.774  88.443  13.901  0.00  0.00    +0.122 A 
ENDROOT
BRANCH   3   7
ATOM      7  N   LIG    1      -22.095  84.482  15.034  0.00  0.00    -0.284 N 
ATOM      8  H   LIG    1      -21.480  83.962  14.414  0.00  0.00    +0.155 HD
ATOM      9  C   LIG    1      -22.500  83.834  16.192  0.00  0.00    +0.223 C 
ATOM     10  O   LIG    1      -23.146  84.342  17.107  0.00  0.00    -0.275 OA
BRANCH   9  11
ATOM     11  C   LIG    1      -22.094  82.373  16.271  0.00  0.00    +0.151 C 
BRANCH  11  12
ATOM     12  C   LIG    1      -23.159  81.463  15.722  0.00  0.00    +0.050 A 
ATOM     13  N   LIG    1      -23.937  81.962  14.728  0.00  0.00    -0.258 NA
ATOM     14  C   LIG    1      -24.874  81.134  14.197  0.00  0.00    +0.129 A 
ATOM     15  C   LIG    1      -25.074  79.822  14.602  0.00  0.00    +0.070 A 
ATOM     16  C   LIG    1      -24.278  79.335  15.636  0.00  0.00    +0.022 A 
ATOM     17  C   LIG    1      -23.310  80.162  16.206  0.00  0.00    +0.025 A 
BRANCH  15  18
ATOM     18  C   LIG    1      -26.046  79.004  13.962  0.00  0.00    +0.101 C 
ATOM     19  N   LIG    1      -26.840  78.323  13.440  0.00  0.00    -0.191 NA
ENDBRANCH  15  18
ENDBRANCH  11  12
ENDBRANCH   9  11
ENDBRANCH   3   7
BRANCH   1  20
ATOM     20  C   LIG    1      -23.657  87.782  11.649  0.00  0.00    +0.197 C 
ATOM     21  O   LIG    1      -24.255  86.921  11.011  0.00  0.00    -0.287 OA
BRANCH  20  29
ATOM     22  N   LIG    1      -22.534  90.922  10.096  0.00  0.00    -0.326 N 
ATOM     23  C   LIG    1      -23.641  91.395  10.765  0.00  0.00    +0.147 A 
ATOM     24  N   LIG    1      -24.020  92.683  10.830  0.00  0.00    -0.197 NA
ATOM     25  C   LIG    1      -25.183  92.868  11.457  0.00  0.00    +0.214 A 
ATOM     26  N   LIG    1      -25.942  91.910  12.003  0.00  0.00    -0.222 NA
ATOM     27  C   LIG    1      -25.523  90.618  11.940  0.00  0.00    +0.126 A 
ATOM     28  C   LIG    1      -24.308  90.311  11.328  0.00  0.00    +0.048 A 
ATOM     29  C   LIG    1      -23.491  89.147  11.125  0.00  0.00    +0.051 A 
ATOM     30  C   LIG    1      -22.498  89.552  10.248  0.00  0.00    +0.100 A 
BRANCH  22  32
ATOM     31  C   LIG    1      -22.183  92.105   7.937  0.00  0.00    +0.034 C 
ATOM     32  C   LIG    1      -21.579  91.734   9.307  0.00  0.00    +0.039 C 
ATOM     33  C   LIG    1      -21.193  93.028  10.054  0.00  0.00    +0.034 C 
ATOM     34  C   LIG    1      -20.266  90.957   9.046  0.00  0.00    +0.034 C 
ENDBRANCH  22  32
BRANCH  25  35
ATOM     35  N   LIG    1      -25.621  94.173  11.588  0.00  0.00    -0.327 N 
ATOM     36  H   LIG    1      -26.625  94.193  11.696  0.00  0.00    +0.145 HD
ATOM     37  H   LIG    1      -25.223  94.740  10.853  0.00  0.00    +0.145 HD
ENDBRANCH  25  35
ENDBRANCH  20  29
ENDBRANCH   1  20
TORSDOF 8
ENDMDL
MODEL 6
REMARK VINA RESULT:      -5.6     13.208     17.241
REMARK  Name = pdb/CHEMBL3671406.pdb
REMARK                            x       y       z     vdW  Elec       q    Type
REMARK                         _______ _______ _______ _____ _____    ______ ____
ROOT
ATOM      1  C   LIG    1      -39.299  74.328  25.127  0.00  0.00    +0.042 A 
ATOM      2  C   LIG    1      -38.074  74.727  25.692  0.00  0.00    +0.038 A 
ATOM      3  C   LIG    1      -37.506  75.975  25.387  0.00  0.00    +0.052 A 
ATOM      4  C   LIG    1      -38.230  76.806  24.538  0.00  0.00    +0.134 A 
ATOM      5  N   LIG    1      -39.422  76.466  23.982  0.00  0.00    -0.261 NA
ATOM      6  C   LIG    1      -39.915  75.233  24.267  0.00  0.00    +0.122 A 
ENDROOT
BRANCH   3   7
ATOM      7  N   LIG    1      -36.237  76.288  25.938  0.00  0.00    -0.284 N 
ATOM      8  H   LIG    1      -35.448  76.290  25.299  0.00  0.00    +0.155 HD
ATOM      9  C   LIG    1      -35.986  76.712  27.235  0.00  0.00    +0.223 C 
ATOM     10  O   LIG    1      -36.834  76.883  28.109  0.00  0.00    -0.275 OA
BRANCH   9  11
ATOM     11  C   LIG    1      -34.519  76.955  27.544  0.00  0.00    +0.151 C 
BRANCH  11  12
ATOM     12  C   LIG    1      -33.862  75.742  28.144  0.00  0.00    +0.050 A 
ATOM     13  N   LIG    1      -34.421  74.539  27.856  0.00  0.00    -0.258 NA
ATOM     14  C   LIG    1      -33.811  73.434  28.358  0.00  0.00    +0.129 A 
ATOM     15  C   LIG    1      -32.660  73.463  29.133  0.00  0.00    +0.070 A 
ATOM     16  C   LIG    1      -32.112  74.709  29.433  0.00  0.00    +0.022 A 
ATOM     17  C   LIG    1      -32.718  75.863  28.935  0.00  0.00    +0.025 A 
BRANCH  15  18
ATOM     18  C   LIG    1      -32.054  72.257  29.582  0.00  0.00    +0.101 C 
ATOM     19  N   LIG    1      -31.562  71.266  29.958  0.00  0.00    -0.191 NA
ENDBRANCH  15  18
ENDBRANCH  11  12
ENDBRANCH   9  11
ENDBRANCH   3   7
BRANCH   1  20
ATOM     20  C   LIG    1      -39.887  72.958  25.323  0.00  0.00    +0.197 C 
ATOM     21  O   LIG    1      -40.816  72.830  26.115  0.00  0.00    -0.287 OA
BRANCH  20  29
ATOM     22  N   LIG    1      -39.410  70.086  23.074  0.00  0.00    -0.326 N 
ATOM     23  C   LIG    1      -38.212  70.030  23.753  0.00  0.00    +0.147 A 
ATOM     24  N   LIG    1      -37.277  69.076  23.606  0.00  0.00    -0.197 NA
ATOM     25  C   LIG    1      -36.165  69.304  24.307  0.00  0.00    +0.214 A 
ATOM     26  N   LIG    1      -35.942  70.354  25.109  0.00  0.00    -0.222 NA
ATOM     27  C   LIG    1      -36.915  71.292  25.254  0.00  0.00    +0.126 A 
ATOM     28  C   LIG    1      -38.131  71.142  24.587  0.00  0.00    +0.048 A 
ATOM     29  C   LIG    1      -39.395  71.822  24.527  0.00  0.00    +0.051 A 
ATOM     30  C   LIG    1      -40.080  71.218  23.486  0.00  0.00    +0.100 A 
BRANCH  22  32
ATOM     31  C   LIG    1      -38.755  68.857  21.014  0.00  0.00    +0.034 C 
ATOM     32  C   LIG    1      -39.871  69.129  22.043  0.00  0.00    +0.039 C 
ATOM     33  C   LIG    1      -40.309  67.791  22.676  0.00  0.00    +0.034 C 
ATOM     34  C   LIG    1      -41.095  69.683  21.273  0.00  0.00    +0.034 C 
ENDBRANCH  22  32
BRANCH  25  35
ATOM     35  N   LIG    1      -35.169  68.348  24.227  0.00  0.00    -0.327 N 
ATOM     36  H   LIG    1      -34.328  68.684  24.673  0.00  0.00    +0.145 HD
ATOM     37  H   LIG    1      -35.089  68.020  23.275  0.00  0.00    +0.145 HD
ENDBRANCH  25  35
ENDBRANCH  20  29
ENDBRANCH   1  20
TORSDOF 8
ENDMDL
MODEL 7
REMARK VINA RESULT:      -5.6     11.067     16.077
REMARK  Name = pdb/CHEMBL3671406.pdb
REMARK                            x       y       z     vdW  Elec       q    Type
REMARK                         _______ _______ _______ _____ _____    ______ ____
ROOT
ATOM      1  C   LIG    1      -34.527  71.002  27.980  0.00  0.00    +0.042 A 
ATOM      2  C   LIG    1      -35.610  71.318  27.140  0.00  0.00    +0.038 A 
ATOM      3  C   LIG    1      -35.795  70.656  25.915  0.00  0.00    +0.052 A 
ATOM      4  C   LIG    1      -34.883  69.654  25.597  0.00  0.00    +0.134 A 
ATOM      5  N   LIG    1      -33.832  69.309  26.385  0.00  0.00    -0.261 NA
ATOM      6  C   LIG    1      -33.664  70.004  27.541  0.00  0.00    +0.122 A 
ENDROOT
BRANCH   3   7
ATOM      7  N   LIG    1      -36.869  71.067  25.085  0.00  0.00    -0.284 N 
ATOM      8  H   LIG    1      -36.625  71.427  24.167  0.00  0.00    +0.155 HD
ATOM      9  C   LIG    1      -38.221  70.911  25.352  0.00  0.00    +0.223 C 
ATOM     10  O   LIG    1      -38.695  70.387  26.358  0.00  0.00    -0.275 OA
BRANCH   9  11
ATOM     11  C   LIG    1      -39.142  71.468  24.281  0.00  0.00    +0.151 C 
BRANCH  11  12
ATOM     12  C   LIG    1      -39.258  72.966  24.361  0.00  0.00    +0.050 A 
ATOM     13  N   LIG    1      -38.192  73.634  24.873  0.00  0.00    -0.258 NA
ATOM     14  C   LIG    1      -38.270  74.990  24.911  0.00  0.00    +0.129 A 
ATOM     15  C   LIG    1      -39.358  75.722  24.458  0.00  0.00    +0.070 A 
ATOM     16  C   LIG    1      -40.448  75.017  23.953  0.00  0.00    +0.022 A 
ATOM     17  C   LIG    1      -40.402  73.623  23.905  0.00  0.00    +0.025 A 
BRANCH  15  18
ATOM     18  C   LIG    1      -39.342  77.144  24.489  0.00  0.00    +0.101 C 
ATOM     19  N   LIG    1      -39.332  78.312  24.524  0.00  0.00    -0.191 NA
ENDBRANCH  15  18
ENDBRANCH  11  12
ENDBRANCH   9  11
ENDBRANCH   3   7
BRANCH   1  20
ATOM     20  C   LIG    1      -34.216  71.764  29.240  0.00  0.00    +0.197 C 
ATOM     21  O   LIG    1      -34.232  71.158  30.307  0.00  0.00    -0.287 OA
BRANCH  20  29
ATOM     22  N   LIG    1      -33.833  75.348  28.508  0.00  0.00    -0.326 N 
ATOM     23  C   LIG    1      -32.705  75.163  29.278  0.00  0.00    +0.147 A 
ATOM     24  N   LIG    1      -31.766  76.093  29.520  0.00  0.00    -0.197 NA
ATOM     25  C   LIG    1      -30.825  75.693  30.376  0.00  0.00    +0.214 A 
ATOM     26  N   LIG    1      -30.756  74.492  30.964  0.00  0.00    -0.222 NA
ATOM     27  C   LIG    1      -31.709  73.565  30.684  0.00  0.00    +0.126 A 
ATOM     28  C   LIG    1      -32.729  73.866  29.782  0.00  0.00    +0.048 A 
ATOM     29  C   LIG    1      -33.836  73.184  29.170  0.00  0.00    +0.051 A 
ATOM     30  C   LIG    1      -34.553  74.173  28.519  0.00  0.00    +0.100 A 
BRANCH  22  32
ATOM     31  C   LIG    1      -35.500  76.390  26.985  0.00  0.00    +0.034 C 
ATOM     32  C   LIG    1      -34.229  76.605  27.833  0.00  0.00    +0.039 C 
ATOM     33  C   LIG    1      -34.491  77.732  28.854  0.00  0.00    +0.034 C 
ATOM     34  C   LIG    1      -33.113  77.108  26.886  0.00  0.00    +0.034 C 
ENDBRANCH  22  32
BRANCH  25  35
ATOM     35  N   LIG    1      -29.807  76.589  30.649  0.00  0.00    -0.327 N 
ATOM     36  H   LIG    1      -29.161  76.189  31.315  0.00  0.00    +0.145 HD
ATOM     37  H   LIG    1      -30.201  77.492  30.872  0.00  0.00    +0.145 HD
ENDBRANCH  25  35
ENDBRANCH  20  29
ENDBRANCH   1  20
TORSDOF 8
ENDMDL
MODEL 8
REMARK VINA RESULT:      -5.5     15.222     20.006
REMARK  Name = pdb/CHEMBL3671406.pdb
REMARK                            x       y       z     vdW  Elec       q    Type
REMARK                         _______ _______ _______ _____ _____    ______ ____
ROOT
ATOM      1  C   LIG    1      -40.063  70.536  23.126  0.00  0.00    +0.042 A 
ATOM      2  C   LIG    1      -38.751  70.090  23.370  0.00  0.00    +0.038 A 
ATOM      3  C   LIG    1      -38.119  69.184  22.502  0.00  0.00    +0.052 A 
ATOM      4  C   LIG    1      -38.834  68.786  21.377  0.00  0.00    +0.134 A 
ATOM      5  N   LIG    1      -40.096  69.203  21.097  0.00  0.00    -0.261 NA
ATOM      6  C   LIG    1      -40.688  70.044  21.985  0.00  0.00    +0.122 A 
ENDROOT
BRANCH   3   7
ATOM      7  N   LIG    1      -36.821  68.723  22.841  0.00  0.00    -0.284 N 
ATOM      8  H   LIG    1      -36.076  69.413  22.843  0.00  0.00    +0.155 HD
ATOM      9  C   LIG    1      -36.491  67.452  23.290  0.00  0.00    +0.223 C 
ATOM     10  O   LIG    1      -37.283  66.528  23.464  0.00  0.00    -0.275 OA
BRANCH   9  11
ATOM     11  C   LIG    1      -35.011  67.244  23.556  0.00  0.00    +0.151 C 
BRANCH  11  12
ATOM     12  C   LIG    1      -34.577  67.880  24.849  0.00  0.00    +0.050 A 
ATOM     13  N   LIG    1      -34.445  69.231  24.851  0.00  0.00    -0.258 NA
ATOM     14  C   LIG    1      -34.095  69.820  26.025  0.00  0.00    +0.129 A 
ATOM     15  C   LIG    1      -33.874  69.129  27.207  0.00  0.00    +0.070 A 
ATOM     16  C   LIG    1      -33.997  67.741  27.180  0.00  0.00    +0.022 A 
ATOM     17  C   LIG    1      -34.351  67.107  25.989  0.00  0.00    +0.025 A 
BRANCH  15  18
ATOM     18  C   LIG    1      -33.556  69.823  28.407  0.00  0.00    +0.101 C 
ATOM     19  N   LIG    1      -33.301  70.389  29.398  0.00  0.00    -0.191 NA
ENDBRANCH  15  18
ENDBRANCH  11  12
ENDBRANCH   9  11
ENDBRANCH   3   7
BRANCH   1  20
ATOM     20  C   LIG    1      -40.827  71.405  24.086  0.00  0.00    +0.197 C 
ATOM     21  O   LIG    1      -41.462  70.863  24.985  0.00  0.00    -0.287 OA
BRANCH  20  29
ATOM     22  N   LIG    1      -40.001  74.984  24.297  0.00  0.00    -0.326 N 
ATOM     23  C   LIG    1      -41.237  75.082  23.695  0.00  0.00    +0.147 A 
ATOM     24  N   LIG    1      -41.881  76.230  23.421  0.00  0.00    -0.197 NA
ATOM     25  C   LIG    1      -43.019  76.056  22.746  0.00  0.00    +0.214 A 
ATOM     26  N   LIG    1      -43.534  74.881  22.361  0.00  0.00    -0.222 NA
ATOM     27  C   LIG    1      -42.870  73.737  22.671  0.00  0.00    +0.126 A 
ATOM     28  C   LIG    1      -41.681  73.797  23.397  0.00  0.00    +0.048 A 
ATOM     29  C   LIG    1      -40.749  72.871  23.979  0.00  0.00    +0.051 A 
ATOM     30  C   LIG    1      -39.676  73.647  24.386  0.00  0.00    +0.100 A 
BRANCH  22  32
ATOM     31  C   LIG    1      -39.671  76.728  26.038  0.00  0.00    +0.034 C 
ATOM     32  C   LIG    1      -39.148  76.116  24.722  0.00  0.00    +0.039 C 
ATOM     33  C   LIG    1      -37.684  75.672  24.922  0.00  0.00    +0.034 C 
ATOM     34  C   LIG    1      -39.135  77.239  23.656  0.00  0.00    +0.034 C 
ENDBRANCH  22  32
BRANCH  25  35
ATOM     35  N   LIG    1      -43.751  77.193  22.454  0.00  0.00    -0.327 N 
ATOM     36  H   LIG    1      -43.314  78.004  22.867  0.00  0.00    +0.145 HD
ATOM     37  H   LIG    1      -44.725  77.032  22.670  0.00  0.00    +0.145 HD
ENDBRANCH  25  35
ENDBRANCH  20  29
ENDBRANCH   1  20
TORSDOF 8
ENDMDL
MODEL 9
REMARK VINA RESULT:      -5.5     11.771     16.162
REMARK  Name = pdb/CHEMBL3671406.pdb
REMARK                            x       y       z     vdW  Elec       q    Type
REMARK                         _______ _______ _______ _____ _____    ______ ____
ROOT
ATOM      1  C   LIG    1      -35.167  73.934  29.948  0.00  0.00    +0.042 A 
ATOM      2  C   LIG    1      -35.831  73.991  28.709  0.00  0.00    +0.038 A 
ATOM      3  C   LIG    1      -36.091  72.824  27.971  0.00  0.00    +0.052 A 
ATOM      4  C   LIG    1      -35.697  71.617  28.542  0.00  0.00    +0.134 A 
ATOM      5  N   LIG    1      -35.066  71.517  29.740  0.00  0.00    -0.261 NA
ATOM      6  C   LIG    1      -34.794  72.673  30.401  0.00  0.00    +0.122 A 
ENDROOT
BRANCH   3   7
ATOM      7  N   LIG    1      -36.705  72.956  26.700  0.00  0.00    -0.284 N 
ATOM      8  H   LIG    1      -36.087  73.095  25.905  0.00  0.00    +0.155 HD
ATOM      9  C   LIG    1      -38.053  72.791  26.416  0.00  0.00    +0.223 C 
ATOM     10  O   LIG    1      -38.925  72.501  27.233  0.00  0.00    -0.275 OA
BRANCH   9  11
ATOM     11  C   LIG    1      -38.421  73.014  24.960  0.00  0.00    +0.151 C 
BRANCH  11  12
ATOM     12  C   LIG    1      -38.747  74.456  24.677  0.00  0.00    +0.050 A 
ATOM     13  N   LIG    1      -37.755  75.359  24.885  0.00  0.00    -0.258 NA
ATOM     14  C   LIG    1      -38.025  76.658  24.592  0.00  0.00    +0.129 A 
ATOM     15  C   LIG    1      -39.240  77.108  24.094  0.00  0.00    +0.070 A 
ATOM     16  C   LIG    1      -40.251  76.168  23.906  0.00  0.00    +0.022 A 
ATOM     17  C   LIG    1      -40.006  74.827  24.201  0.00  0.00    +0.025 A 
BRANCH  15  18
ATOM     18  C   LIG    1      -39.429  78.479  23.768  0.00  0.00    +0.101 C 
ATOM     19  N   LIG    1      -39.593  79.604  23.496  0.00  0.00    -0.191 NA
ENDBRANCH  15  18
ENDBRANCH  11  12
ENDBRANCH   9  11
ENDBRANCH   3   7
BRANCH   1  20
ATOM     20  C   LIG    1      -34.757  75.160  30.717  0.00  0.00    +0.197 C 
ATOM     21  O   LIG    1      -34.407  75.026  31.886  0.00  0.00    -0.287 OA
BRANCH  20  29
ATOM     22  N   LIG    1      -35.332  78.563  29.444  0.00  0.00    -0.326 N 
ATOM     23  C   LIG    1      -34.310  78.187  28.600  0.00  0.00    +0.147 A 
ATOM     24  N   LIG    1      -33.834  78.919  27.578  0.00  0.00    -0.197 NA
ATOM     25  C   LIG    1      -32.777  78.373  26.976  0.00  0.00    +0.214 A 
ATOM     26  N   LIG    1      -32.203  77.206  27.299  0.00  0.00    -0.222 NA
ATOM     27  C   LIG    1      -32.719  76.479  28.325  0.00  0.00    +0.126 A 
ATOM     28  C   LIG    1      -33.842  76.942  29.010  0.00  0.00    +0.048 A 
ATOM     29  C   LIG    1      -34.715  76.472  30.049  0.00  0.00    +0.051 A 
ATOM     30  C   LIG    1      -35.513  77.558  30.369  0.00  0.00    +0.100 A 
BRANCH  22  32
ATOM     31  C   LIG    1      -37.126  79.906  30.522  0.00  0.00    +0.034 C 
ATOM     32  C   LIG    1      -36.071  79.846  29.399  0.00  0.00    +0.039 C 
ATOM     33  C   LIG    1      -35.115  81.049  29.541  0.00  0.00    +0.034 C 
ATOM     34  C   LIG    1      -36.811  80.018  28.050  0.00  0.00    +0.034 C 
ENDBRANCH  22  32
BRANCH  25  35
ATOM     35  N   LIG    1      -32.251  79.056  25.895  0.00  0.00    -0.327 N 
ATOM     36  H   LIG    1      -31.243  79.077  25.953  0.00  0.00    +0.145 HD
ATOM     37  H   LIG    1      -32.727  79.941  25.790  0.00  0.00    +0.145 HD
ENDBRANCH  25  35
ENDBRANCH  20  29
ENDBRANCH   1  20
TORSDOF 8
ENDMDL
