MODEL 1
REMARK VINA RESULT:      -6.0      0.000      0.000
REMARK  Name = pdb/CHEMBL251796.pdb
REMARK                            x       y       z     vdW  Elec       q    Type
REMARK                         _______ _______ _______ _____ _____    ______ ____
ROOT
ATOM      1  C   LIG    1      -38.963  72.300  24.412  0.00  0.00    +0.041 A 
ATOM      2  C   LIG    1      -40.057  71.512  23.975  0.00  0.00    -0.038 A 
ATOM      3  C   LIG    1      -40.051  70.005  23.950  0.00  0.00    +0.044 C 
ATOM      4  C   LIG    1      -41.228  72.168  23.538  0.00  0.00    +0.005 A 
ATOM      5  C   LIG    1      -41.324  73.563  23.545  0.00  0.00    +0.015 A 
ATOM      6  C   LIG    1      -40.250  74.330  23.988  0.00  0.00    +0.014 A 
ATOM      7  C   LIG    1      -39.095  73.690  24.438  0.00  0.00    +0.028 A 
ENDROOT
BRANCH   1  13
ATOM      8  C   LIG    1      -35.459  73.960  28.542  0.00  0.00    +0.232 C 
ATOM      9  N   LIG    1      -36.164  72.843  28.051  0.00  0.00    -0.297 N 
ATOM     10  C   LIG    1      -37.602  73.078  27.842  0.00  0.00    +0.127 C 
ATOM     11  C   LIG    1      -38.376  71.829  27.419  0.00  0.00    +0.127 C 
ATOM     12  N   LIG    1      -37.683  71.196  26.290  0.00  0.00    -0.295 N 
ATOM     13  C   LIG    1      -37.698  71.710  24.964  0.00  0.00    +0.247 C 
ATOM     14  O   LIG    1      -36.724  71.639  24.244  0.00  0.00    -0.270 OA
ATOM     15  C   LIG    1      -36.400  70.665  26.732  0.00  0.00    +0.127 C 
ATOM     16  C   LIG    1      -35.503  71.812  27.218  0.00  0.00    +0.127 C 
ATOM     17  O   LIG    1      -36.033  74.821  29.224  0.00  0.00    -0.274 OA
BRANCH   8  19
ATOM     18  C   LIG    1      -33.629  75.503  27.689  0.00  0.00    +0.033 C 
ATOM     19  C   LIG    1      -33.966  74.087  28.148  0.00  0.00    +0.135 C 
BRANCH  19  20
ATOM     20  N   LIG    1      -33.086  73.686  29.256  0.00  0.00    -0.320 NA
ATOM     21  H   LIG    1      -33.634  73.261  29.999  0.00  0.00    +0.119 HD
ATOM     22  H   LIG    1      -32.436  72.973  28.929  0.00  0.00    +0.119 HD
ENDBRANCH  19  20
ENDBRANCH   8  19
ENDBRANCH   1  13
BRANCH   6  23
ATOM     23  S   LIG    1      -40.287  76.118  23.964  0.00  0.00    -0.081 S 
BRANCH  23  24
ATOM     24  C   LIG    1      -38.910  76.390  25.027  0.00  0.00    +0.071 A 
ATOM     25  S   LIG    1      -39.083  76.865  26.660  0.00  0.00    -0.045 S 
ATOM     26  C   LIG    1      -37.367  76.940  26.847  0.00  0.00    +0.164 A 
ATOM     27  N   LIG    1      -36.702  76.560  25.775  0.00  0.00    -0.232 NA
ATOM     28  C   LIG    1      -37.569  76.271  24.731  0.00  0.00    +0.135 A 
BRANCH  26  29
ATOM     29  N   LIG    1      -36.750  77.276  28.003  0.00  0.00    -0.279 N 
ATOM     30  H   LIG    1      -37.038  76.773  28.836  0.00  0.00    +0.155 HD
BRANCH  29  31
ATOM     31  C   LIG    1      -36.048  78.440  28.330  0.00  0.00    +0.126 A 
ATOM     32  N   LIG    1      -36.386  79.566  27.667  0.00  0.00    -0.225 NA
ATOM     33  C   LIG    1      -35.753  80.717  28.006  0.00  0.00    +0.108 A 
ATOM     34 BR   LIG    1      -36.172  82.279  27.013  0.00  0.00    -0.029 Br
ATOM     35  C   LIG    1      -34.820  80.817  29.024  0.00  0.00    +0.035 A 
ATOM     36  C   LIG    1      -34.497  79.663  29.719  0.00  0.00    +0.006 A 
ATOM     37  C   LIG    1      -35.097  78.462  29.352  0.00  0.00    +0.044 A 
ENDBRANCH  29  31
ENDBRANCH  26  29
ENDBRANCH  23  24
ENDBRANCH   6  23
TORSDOF 7
ENDMDL
MODEL 2
REMARK VINA RESULT:      -5.9     12.886     15.603
REMARK  Name = pdb/CHEMBL251796.pdb
REMARK                            x       y       z     vdW  Elec       q    Type
REMARK                         _______ _______ _______ _____ _____    ______ ____
ROOT
ATOM      1  C   LIG    1      -25.444  68.010  16.469  0.00  0.00    +0.041 A 
ATOM      2  C   LIG    1      -24.062  67.796  16.694  0.00  0.00    -0.038 A 
ATOM      3  C   LIG    1      -23.008  68.862  16.530  0.00  0.00    +0.044 C 
ATOM      4  C   LIG    1      -23.636  66.514  17.101  0.00  0.00    +0.005 A 
ATOM      5  C   LIG    1      -24.548  65.472  17.294  0.00  0.00    +0.015 A 
ATOM      6  C   LIG    1      -25.907  65.694  17.084  0.00  0.00    +0.014 A 
ATOM      7  C   LIG    1      -26.339  66.963  16.699  0.00  0.00    +0.028 A 
ENDROOT
BRANCH   1  13
ATOM      8  C   LIG    1      -30.310  70.577  17.820  0.00  0.00    +0.232 C 
ATOM      9  N   LIG    1      -28.917  70.779  17.752  0.00  0.00    -0.297 N 
ATOM     10  C   LIG    1      -28.122  69.763  18.464  0.00  0.00    +0.127 C 
ATOM     11  C   LIG    1      -26.622  70.055  18.480  0.00  0.00    +0.127 C 
ATOM     12  N   LIG    1      -26.175  70.342  17.111  0.00  0.00    -0.295 N 
ATOM     13  C   LIG    1      -26.017  69.349  16.106  0.00  0.00    +0.247 C 
ATOM     14  O   LIG    1      -26.288  69.571  14.944  0.00  0.00    -0.270 OA
ATOM     15  C   LIG    1      -26.757  71.597  16.654  0.00  0.00    +0.127 C 
ATOM     16  C   LIG    1      -28.287  71.472  16.605  0.00  0.00    +0.127 C 
ATOM     17  O   LIG    1      -30.817  69.980  18.781  0.00  0.00    -0.274 OA
BRANCH   8  19
ATOM     18  C   LIG    1      -31.549  69.936  15.696  0.00  0.00    +0.033 C 
ATOM     19  C   LIG    1      -31.159  71.082  16.627  0.00  0.00    +0.135 C 
BRANCH  19  20
ATOM     20  N   LIG    1      -32.359  71.795  17.089  0.00  0.00    -0.320 NA
ATOM     21  H   LIG    1      -32.091  72.588  17.666  0.00  0.00    +0.119 HD
ATOM     22  H   LIG    1      -32.857  72.174  16.285  0.00  0.00    +0.119 HD
ENDBRANCH  19  20
ENDBRANCH   8  19
ENDBRANCH   1  13
BRANCH   6  23
ATOM     23  S   LIG    1      -27.118  64.389  17.255  0.00  0.00    -0.081 S 
BRANCH  23  24
ATOM     24  C   LIG    1      -28.257  65.265  18.272  0.00  0.00    +0.071 A 
ATOM     25  S   LIG    1      -29.722  65.911  17.673  0.00  0.00    -0.045 S 
ATOM     26  C   LIG    1      -30.093  66.574  19.225  0.00  0.00    +0.164 A 
ATOM     27  N   LIG    1      -29.212  66.268  20.155  0.00  0.00    -0.232 NA
ATOM     28  C   LIG    1      -28.156  65.547  19.617  0.00  0.00    +0.135 A 
BRANCH  26  29
ATOM     29  N   LIG    1      -31.219  67.275  19.493  0.00  0.00    -0.279 N 
ATOM     30  H   LIG    1      -31.097  68.187  19.921  0.00  0.00    +0.155 HD
BRANCH  29  31
ATOM     31  C   LIG    1      -32.536  66.825  19.624  0.00  0.00    +0.126 A 
ATOM     32  N   LIG    1      -33.046  66.774  20.873  0.00  0.00    -0.225 NA
ATOM     33  C   LIG    1      -34.338  66.390  21.016  0.00  0.00    +0.108 A 
ATOM     34 BR   LIG    1      -35.024  66.239  22.780  0.00  0.00    -0.029 Br
ATOM     35  C   LIG    1      -35.182  66.097  19.957  0.00  0.00    +0.035 A 
ATOM     36  C   LIG    1      -34.660  66.177  18.676  0.00  0.00    +0.006 A 
ATOM     37  C   LIG    1      -33.321  66.519  18.511  0.00  0.00    +0.044 A 
ENDBRANCH  29  31
ENDBRANCH  26  29
ENDBRANCH  23  24
ENDBRANCH   6  23
TORSDOF 7
ENDMDL
MODEL 3
REMARK VINA RESULT:      -5.9     19.006     21.431
REMARK  Name = pdb/CHEMBL251796.pdb
REMARK                            x       y       z     vdW  Elec       q    Type
REMARK                         _______ _______ _______ _____ _____    ______ ____
ROOT
ATOM      1  C   LIG    1      -22.720  81.946  14.135  0.00  0.00    +0.041 A 
ATOM      2  C   LIG    1      -22.687  82.197  15.529  0.00  0.00    -0.038 A 
ATOM      3  C   LIG    1      -22.685  83.577  16.136  0.00  0.00    +0.044 C 
ATOM      4  C   LIG    1      -22.658  81.096  16.411  0.00  0.00    +0.005 A 
ATOM      5  C   LIG    1      -22.674  79.782  15.934  0.00  0.00    +0.015 A 
ATOM      6  C   LIG    1      -22.720  79.544  14.562  0.00  0.00    +0.014 A 
ATOM      7  C   LIG    1      -22.767  80.626  13.683  0.00  0.00    +0.028 A 
ENDROOT
BRANCH   1  13
ATOM      8  C   LIG    1      -20.464  87.133  13.830  0.00  0.00    +0.232 C 
ATOM      9  N   LIG    1      -20.668  85.953  13.086  0.00  0.00    -0.297 N 
ATOM     10  C   LIG    1      -20.202  84.728  13.755  0.00  0.00    +0.127 C 
ATOM     11  C   LIG    1      -20.323  83.471  12.893  0.00  0.00    +0.127 C 
ATOM     12  N   LIG    1      -21.683  83.396  12.344  0.00  0.00    -0.295 N 
ATOM     13  C   LIG    1      -22.826  83.038  13.109  0.00  0.00    +0.247 C 
ATOM     14  O   LIG    1      -23.906  83.557  12.921  0.00  0.00    -0.270 OA
ATOM     15  C   LIG    1      -21.891  84.479  11.392  0.00  0.00    +0.127 C 
ATOM     16  C   LIG    1      -21.775  85.832  12.110  0.00  0.00    +0.127 C 
ATOM     17  O   LIG    1      -19.541  87.211  14.653  0.00  0.00    -0.274 OA
BRANCH   8  19
ATOM     18  C   LIG    1      -22.476  88.381  14.754  0.00  0.00    +0.033 C 
ATOM     19  C   LIG    1      -21.468  88.293  13.610  0.00  0.00    +0.135 C 
BRANCH  19  20
ATOM     20  N   LIG    1      -20.773  89.577  13.442  0.00  0.00    -0.320 NA
ATOM     21  H   LIG    1      -21.269  90.310  13.942  0.00  0.00    +0.119 HD
ATOM     22  H   LIG    1      -19.846  89.516  13.859  0.00  0.00    +0.119 HD
ENDBRANCH  19  20
ENDBRANCH   8  19
ENDBRANCH   1  13
BRANCH   6  23
ATOM     23  S   LIG    1      -22.682  77.888  13.885  0.00  0.00    -0.081 S 
BRANCH  23  24
ATOM     24  C   LIG    1      -24.345  77.838  13.308  0.00  0.00    +0.071 A 
ATOM     25  S   LIG    1      -25.688  78.043  14.344  0.00  0.00    -0.045 S 
ATOM     26  C   LIG    1      -26.776  77.795  13.025  0.00  0.00    +0.164 A 
ATOM     27  N   LIG    1      -26.172  77.643  11.864  0.00  0.00    -0.232 NA
ATOM     28  C   LIG    1      -24.793  77.641  12.020  0.00  0.00    +0.135 A 
BRANCH  26  29
ATOM     29  N   LIG    1      -28.123  77.832  13.143  0.00  0.00    -0.279 N 
ATOM     30  H   LIG    1      -28.503  77.676  14.071  0.00  0.00    +0.155 HD
BRANCH  29  31
ATOM     31  C   LIG    1      -29.106  77.685  12.160  0.00  0.00    +0.126 A 
ATOM     32  N   LIG    1      -29.864  78.767  11.885  0.00  0.00    -0.225 NA
ATOM     33  C   LIG    1      -30.788  78.661  10.898  0.00  0.00    +0.108 A 
ATOM     34 BR   LIG    1      -31.908  80.159  10.573  0.00  0.00    -0.029 Br
ATOM     35  C   LIG    1      -30.966  77.528  10.121  0.00  0.00    +0.035 A 
ATOM     36  C   LIG    1      -30.166  76.429  10.391  0.00  0.00    +0.006 A 
ATOM     37  C   LIG    1      -29.247  76.501  11.434  0.00  0.00    +0.044 A 
ENDBRANCH  29  31
ENDBRANCH  26  29
ENDBRANCH  23  24
ENDBRANCH   6  23
TORSDOF 7
ENDMDL
MODEL 4
REMARK VINA RESULT:      -5.6     12.628     16.888
REMARK  Name = pdb/CHEMBL251796.pdb
REMARK                            x       y       z     vdW  Elec       q    Type
REMARK                         _______ _______ _______ _____ _____    ______ ____
ROOT
ATOM      1  C   LIG    1      -21.514  77.896  33.563  0.00  0.00    +0.041 A 
ATOM      2  C   LIG    1      -20.316  78.555  33.189  0.00  0.00    -0.038 A 
ATOM      3  C   LIG    1      -19.502  79.415  34.122  0.00  0.00    +0.044 C 
ATOM      4  C   LIG    1      -19.847  78.400  31.867  0.00  0.00    +0.005 A 
ATOM      5  C   LIG    1      -20.532  77.607  30.941  0.00  0.00    +0.015 A 
ATOM      6  C   LIG    1      -21.700  76.952  31.321  0.00  0.00    +0.014 A 
ATOM      7  C   LIG    1      -22.162  77.085  32.631  0.00  0.00    +0.028 A 
ENDROOT
BRANCH   1  13
ATOM      8  C   LIG    1      -21.742  81.983  37.479  0.00  0.00    +0.232 C 
ATOM      9  N   LIG    1      -22.523  81.002  36.834  0.00  0.00    -0.297 N 
ATOM     10  C   LIG    1      -22.481  81.065  35.364  0.00  0.00    +0.127 C 
ATOM     11  C   LIG    1      -23.420  80.073  34.678  0.00  0.00    +0.127 C 
ATOM     12  N   LIG    1      -23.201  78.736  35.246  0.00  0.00    -0.295 N 
ATOM     13  C   LIG    1      -22.065  77.931  34.959  0.00  0.00    +0.247 C 
ATOM     14  O   LIG    1      -21.554  77.227  35.805  0.00  0.00    -0.270 OA
ATOM     15  C   LIG    1      -23.641  78.712  36.635  0.00  0.00    +0.127 C 
ATOM     16  C   LIG    1      -22.798  79.691  37.464  0.00  0.00    +0.127 C 
ATOM     17  O   LIG    1      -21.511  83.070  36.929  0.00  0.00    -0.274 OA
BRANCH   8  19
ATOM     18  C   LIG    1      -19.641  81.843  38.901  0.00  0.00    +0.033 C 
ATOM     19  C   LIG    1      -21.151  81.622  38.865  0.00  0.00    +0.135 C 
BRANCH  19  20
ATOM     20  N   LIG    1      -21.806  82.384  39.939  0.00  0.00    -0.320 NA
ATOM     21  H   LIG    1      -21.626  81.943  40.837  0.00  0.00    +0.119 HD
ATOM     22  H   LIG    1      -21.400  83.317  39.986  0.00  0.00    +0.119 HD
ENDBRANCH  19  20
ENDBRANCH   8  19
ENDBRANCH   1  13
BRANCH   6  23
ATOM     23  S   LIG    1      -22.656  75.972  30.169  0.00  0.00    -0.081 S 
BRANCH  23  24
ATOM     24  C   LIG    1      -24.253  76.503  30.685  0.00  0.00    +0.071 A 
ATOM     25  S   LIG    1      -25.314  75.505  31.579  0.00  0.00    -0.045 S 
ATOM     26  C   LIG    1      -26.526  76.735  31.562  0.00  0.00    +0.164 A 
ATOM     27  N   LIG    1      -26.136  77.854  30.987  0.00  0.00    -0.232 NA
ATOM     28  C   LIG    1      -24.857  77.722  30.466  0.00  0.00    +0.135 A 
BRANCH  26  29
ATOM     29  N   LIG    1      -27.738  76.605  32.150  0.00  0.00    -0.279 N 
ATOM     30  H   LIG    1      -27.794  76.843  33.135  0.00  0.00    +0.155 HD
BRANCH  29  31
ATOM     31  C   LIG    1      -28.847  75.857  31.744  0.00  0.00    +0.126 A 
ATOM     32  N   LIG    1      -29.632  76.395  30.787  0.00  0.00    -0.225 NA
ATOM     33  C   LIG    1      -30.683  75.663  30.341  0.00  0.00    +0.108 A 
ATOM     34 BR   LIG    1      -31.832  76.459  29.057  0.00  0.00    -0.029 Br
ATOM     35  C   LIG    1      -30.970  74.378  30.771  0.00  0.00    +0.035 A 
ATOM     36  C   LIG    1      -30.145  73.821  31.735  0.00  0.00    +0.006 A 
ATOM     37  C   LIG    1      -29.091  74.576  32.242  0.00  0.00    +0.044 A 
ENDBRANCH  29  31
ENDBRANCH  26  29
ENDBRANCH  23  24
ENDBRANCH   6  23
TORSDOF 7
ENDMDL
MODEL 5
REMARK VINA RESULT:      -5.4      4.931      8.412
REMARK  Name = pdb/CHEMBL251796.pdb
REMARK                            x       y       z     vdW  Elec       q    Type
REMARK                         _______ _______ _______ _____ _____    ______ ____
ROOT
ATOM      1  C   LIG    1      -38.756  71.947  24.539  0.00  0.00    +0.041 A 
ATOM      2  C   LIG    1      -39.114  73.314  24.435  0.00  0.00    -0.038 A 
ATOM      3  C   LIG    1      -38.221  74.452  24.857  0.00  0.00    +0.044 C 
ATOM      4  C   LIG    1      -40.380  73.640  23.901  0.00  0.00    +0.005 A 
ATOM      5  C   LIG    1      -41.264  72.647  23.469  0.00  0.00    +0.015 A 
ATOM      6  C   LIG    1      -40.899  71.307  23.562  0.00  0.00    +0.014 A 
ATOM      7  C   LIG    1      -39.642  70.976  24.072  0.00  0.00    +0.028 A 
ENDROOT
BRANCH   1  13
ATOM      8  C   LIG    1      -35.286  73.877  28.578  0.00  0.00    +0.232 C 
ATOM      9  N   LIG    1      -35.881  72.701  28.079  0.00  0.00    -0.297 N 
ATOM     10  C   LIG    1      -37.345  72.778  27.936  0.00  0.00    +0.127 C 
ATOM     11  C   LIG    1      -37.992  71.462  27.504  0.00  0.00    +0.127 C 
ATOM     12  N   LIG    1      -37.282  70.943  26.328  0.00  0.00    -0.295 N 
ATOM     13  C   LIG    1      -37.410  71.488  25.021  0.00  0.00    +0.247 C 
ATOM     14  O   LIG    1      -36.467  71.548  24.261  0.00  0.00    -0.270 OA
ATOM     15  C   LIG    1      -35.930  70.548  26.702  0.00  0.00    +0.127 C 
ATOM     16  C   LIG    1      -35.146  71.775  27.189  0.00  0.00    +0.127 C 
ATOM     17  O   LIG    1      -35.922  74.648  29.310  0.00  0.00    -0.274 OA
BRANCH   8  19
ATOM     18  C   LIG    1      -33.691  75.624  27.647  0.00  0.00    +0.033 C 
ATOM     19  C   LIG    1      -33.834  74.182  28.130  0.00  0.00    +0.135 C 
BRANCH  19  20
ATOM     20  N   LIG    1      -32.873  73.907  29.209  0.00  0.00    -0.320 NA
ATOM     21  H   LIG    1      -32.049  73.448  28.831  0.00  0.00    +0.119 HD
ATOM     22  H   LIG    1      -32.558  74.788  29.612  0.00  0.00    +0.119 HD
ENDBRANCH  19  20
ENDBRANCH   8  19
ENDBRANCH   1  13
BRANCH   6  23
ATOM     23  S   LIG    1      -42.006  69.986  23.083  0.00  0.00    -0.081 S 
BRANCH  23  24
ATOM     24  C   LIG    1      -40.813  68.960  22.295  0.00  0.00    +0.071 A 
ATOM     25  S   LIG    1      -40.066  67.639  23.082  0.00  0.00    -0.045 S 
ATOM     26  C   LIG    1      -39.105  67.317  21.683  0.00  0.00    +0.164 A 
ATOM     27  N   LIG    1      -39.378  68.102  20.662  0.00  0.00    -0.232 NA
ATOM     28  C   LIG    1      -40.328  69.052  21.008  0.00  0.00    +0.135 A 
BRANCH  26  29
ATOM     29  N   LIG    1      -38.209  66.305  21.603  0.00  0.00    -0.279 N 
ATOM     30  H   LIG    1      -38.536  65.385  21.878  0.00  0.00    +0.155 HD
BRANCH  29  31
ATOM     31  C   LIG    1      -36.813  66.356  21.557  0.00  0.00    +0.126 A 
ATOM     32  N   LIG    1      -36.239  66.350  20.335  0.00  0.00    -0.225 NA
ATOM     33  C   LIG    1      -34.889  66.452  20.267  0.00  0.00    +0.108 A 
ATOM     34 BR   LIG    1      -34.082  66.358  18.552  0.00  0.00    -0.029 Br
ATOM     35  C   LIG    1      -34.067  66.613  21.370  0.00  0.00    +0.035 A 
ATOM     36  C   LIG    1      -34.665  66.645  22.620  0.00  0.00    +0.006 A 
ATOM     37  C   LIG    1      -36.045  66.491  22.715  0.00  0.00    +0.044 A 
ENDBRANCH  29  31
ENDBRANCH  26  29
ENDBRANCH  23  24
ENDBRANCH   6  23
TORSDOF 7
ENDMDL
MODEL 6
REMARK VINA RESULT:      -5.3     13.942     17.514
REMARK  Name = pdb/CHEMBL251796.pdb
REMARK                            x       y       z     vdW  Elec       q    Type
REMARK                         _______ _______ _______ _____ _____    ______ ____
ROOT
ATOM      1  C   LIG    1      -21.605  75.277  31.292  0.00  0.00    +0.041 A 
ATOM      2  C   LIG    1      -21.914  74.041  31.912  0.00  0.00    -0.038 A 
ATOM      3  C   LIG    1      -23.313  73.496  32.051  0.00  0.00    +0.044 C 
ATOM      4  C   LIG    1      -20.856  73.264  32.431  0.00  0.00    +0.005 A 
ATOM      5  C   LIG    1      -19.527  73.686  32.331  0.00  0.00    +0.015 A 
ATOM      6  C   LIG    1      -19.230  74.896  31.708  0.00  0.00    +0.014 A 
ATOM      7  C   LIG    1      -20.268  75.662  31.176  0.00  0.00    +0.028 A 
ENDROOT
BRANCH   1  13
ATOM      8  C   LIG    1      -26.879  76.703  32.785  0.00  0.00    +0.232 C 
ATOM      9  N   LIG    1      -25.657  77.241  32.334  0.00  0.00    -0.297 N 
ATOM     10  C   LIG    1      -24.490  76.851  33.141  0.00  0.00    +0.127 C 
ATOM     11  C   LIG    1      -23.189  77.531  32.712  0.00  0.00    +0.127 C 
ATOM     12  N   LIG    1      -23.020  77.369  31.263  0.00  0.00    -0.295 N 
ATOM     13  C   LIG    1      -22.640  76.148  30.642  0.00  0.00    +0.247 C 
ATOM     14  O   LIG    1      -23.095  75.811  29.569  0.00  0.00    -0.270 OA
ATOM     15  C   LIG    1      -24.046  78.127  30.558  0.00  0.00    +0.127 C 
ATOM     16  C   LIG    1      -25.434  77.573  30.908  0.00  0.00    +0.127 C 
ATOM     17  O   LIG    1      -27.043  76.417  33.980  0.00  0.00    -0.274 OA
BRANCH   8  19
ATOM     18  C   LIG    1      -28.775  75.180  32.044  0.00  0.00    +0.033 C 
ATOM     19  C   LIG    1      -27.975  76.440  31.721  0.00  0.00    +0.135 C 
BRANCH  19  20
ATOM     20  N   LIG    1      -28.875  77.595  31.585  0.00  0.00    -0.320 NA
ATOM     21  H   LIG    1      -29.239  77.641  30.637  0.00  0.00    +0.119 HD
ATOM     22  H   LIG    1      -29.677  77.472  32.200  0.00  0.00    +0.119 HD
ENDBRANCH  19  20
ENDBRANCH   8  19
ENDBRANCH   1  13
BRANCH   6  23
ATOM     23  S   LIG    1      -17.558  75.522  31.599  0.00  0.00    -0.081 S 
BRANCH  23  24
ATOM     24  C   LIG    1      -17.758  76.899  32.678  0.00  0.00    +0.071 A 
ATOM     25  S   LIG    1      -18.606  76.797  34.158  0.00  0.00    -0.045 S 
ATOM     26  C   LIG    1      -18.353  78.481  34.448  0.00  0.00    +0.164 A 
ATOM     27  N   LIG    1      -17.614  79.070  33.530  0.00  0.00    -0.232 NA
ATOM     28  C   LIG    1      -17.294  78.185  32.511  0.00  0.00    +0.135 A 
BRANCH  26  29
ATOM     29  N   LIG    1      -18.797  79.130  35.549  0.00  0.00    -0.279 N 
ATOM     30  H   LIG    1      -18.420  78.824  36.440  0.00  0.00    +0.155 HD
BRANCH  29  31
ATOM     31  C   LIG    1      -19.950  79.900  35.723  0.00  0.00    +0.126 A 
ATOM     32  N   LIG    1      -19.876  80.928  36.595  0.00  0.00    -0.225 NA
ATOM     33  C   LIG    1      -20.968  81.720  36.739  0.00  0.00    +0.108 A 
ATOM     34 BR   LIG    1      -20.886  83.110  38.028  0.00  0.00    -0.029 Br
ATOM     35  C   LIG    1      -22.135  81.570  36.008  0.00  0.00    +0.035 A 
ATOM     36  C   LIG    1      -22.195  80.529  35.095  0.00  0.00    +0.006 A 
ATOM     37  C   LIG    1      -21.104  79.674  34.970  0.00  0.00    +0.044 A 
ENDBRANCH  29  31
ENDBRANCH  26  29
ENDBRANCH  23  24
ENDBRANCH   6  23
TORSDOF 7
ENDMDL
MODEL 7
REMARK VINA RESULT:      -5.2     13.146     17.289
REMARK  Name = pdb/CHEMBL251796.pdb
REMARK                            x       y       z     vdW  Elec       q    Type
REMARK                         _______ _______ _______ _____ _____    ______ ____
ROOT
ATOM      1  C   LIG    1      -21.324  77.981  33.615  0.00  0.00    +0.041 A 
ATOM      2  C   LIG    1      -20.084  78.620  33.368  0.00  0.00    -0.038 A 
ATOM      3  C   LIG    1      -19.332  79.424  34.397  0.00  0.00    +0.044 C 
ATOM      4  C   LIG    1      -19.508  78.500  32.085  0.00  0.00    +0.005 A 
ATOM      5  C   LIG    1      -20.130  77.759  31.076  0.00  0.00    +0.015 A 
ATOM      6  C   LIG    1      -21.342  77.122  31.331  0.00  0.00    +0.014 A 
ATOM      7  C   LIG    1      -21.910  77.220  32.602  0.00  0.00    +0.028 A 
ENDROOT
BRANCH   1  13
ATOM      8  C   LIG    1      -21.937  81.986  37.574  0.00  0.00    +0.232 C 
ATOM      9  N   LIG    1      -22.648  81.009  36.848  0.00  0.00    -0.297 N 
ATOM     10  C   LIG    1      -22.483  81.101  35.388  0.00  0.00    +0.127 C 
ATOM     11  C   LIG    1      -23.347  80.111  34.606  0.00  0.00    +0.127 C 
ATOM     12  N   LIG    1      -23.158  78.766  35.165  0.00  0.00    -0.295 N 
ATOM     13  C   LIG    1      -21.991  77.981  34.961  0.00  0.00    +0.247 C 
ATOM     14  O   LIG    1      -21.544  77.266  35.833  0.00  0.00    -0.270 OA
ATOM     15  C   LIG    1      -23.713  78.709  36.512  0.00  0.00    +0.127 C 
ATOM     16  C   LIG    1      -22.956  79.681  37.428  0.00  0.00    +0.127 C 
ATOM     17  O   LIG    1      -21.675  83.086  37.067  0.00  0.00    -0.274 OA
BRANCH   8  19
ATOM     18  C   LIG    1      -20.006  82.013  39.227  0.00  0.00    +0.033 C 
ATOM     19  C   LIG    1      -21.460  81.604  38.998  0.00  0.00    +0.135 C 
BRANCH  19  20
ATOM     20  N   LIG    1      -22.326  82.197  40.028  0.00  0.00    -0.320 NA
ATOM     21  H   LIG    1      -22.888  81.473  40.468  0.00  0.00    +0.119 HD
ATOM     22  H   LIG    1      -21.747  82.603  40.762  0.00  0.00    +0.119 HD
ENDBRANCH  19  20
ENDBRANCH   8  19
ENDBRANCH   1  13
BRANCH   6  23
ATOM     23  S   LIG    1      -22.219  76.209  30.067  0.00  0.00    -0.081 S 
BRANCH  23  24
ATOM     24  C   LIG    1      -23.845  76.731  30.492  0.00  0.00    +0.071 A 
ATOM     25  S   LIG    1      -24.956  75.722  31.310  0.00  0.00    -0.045 S 
ATOM     26  C   LIG    1      -26.168  76.951  31.234  0.00  0.00    +0.164 A 
ATOM     27  N   LIG    1      -25.746  78.077  30.697  0.00  0.00    -0.232 NA
ATOM     28  C   LIG    1      -24.437  77.952  30.251  0.00  0.00    +0.135 A 
BRANCH  26  29
ATOM     29  N   LIG    1      -27.412  76.812  31.747  0.00  0.00    -0.279 N 
ATOM     30  H   LIG    1      -28.172  77.223  31.215  0.00  0.00    +0.155 HD
BRANCH  29  31
ATOM     31  C   LIG    1      -27.806  76.523  33.057  0.00  0.00    +0.126 A 
ATOM     32  N   LIG    1      -27.574  77.470  33.990  0.00  0.00    -0.225 NA
ATOM     33  C   LIG    1      -27.996  77.231  35.256  0.00  0.00    +0.108 A 
ATOM     34 BR   LIG    1      -27.593  78.529  36.581  0.00  0.00    -0.029 Br
ATOM     35  C   LIG    1      -28.695  76.098  35.640  0.00  0.00    +0.035 A 
ATOM     36  C   LIG    1      -28.953  75.141  34.671  0.00  0.00    +0.006 A 
ATOM     37  C   LIG    1      -28.483  75.345  33.377  0.00  0.00    +0.044 A 
ENDBRANCH  29  31
ENDBRANCH  26  29
ENDBRANCH  23  24
ENDBRANCH   6  23
TORSDOF 7
ENDMDL
MODEL 8
REMARK VINA RESULT:      -5.1     18.270     20.604
REMARK  Name = pdb/CHEMBL251796.pdb
REMARK                            x       y       z     vdW  Elec       q    Type
REMARK                         _______ _______ _______ _____ _____    ______ ____
ROOT
ATOM      1  C   LIG    1      -24.037  80.684  13.899  0.00  0.00    +0.041 A 
ATOM      2  C   LIG    1      -23.453  80.765  15.188  0.00  0.00    -0.038 A 
ATOM      3  C   LIG    1      -23.060  82.059  15.853  0.00  0.00    +0.044 C 
ATOM      4  C   LIG    1      -23.226  79.569  15.901  0.00  0.00    +0.005 A 
ATOM      5  C   LIG    1      -23.577  78.326  15.365  0.00  0.00    +0.015 A 
ATOM      6  C   LIG    1      -24.162  78.256  14.103  0.00  0.00    +0.014 A 
ATOM      7  C   LIG    1      -24.407  79.435  13.398  0.00  0.00    +0.028 A 
ENDROOT
BRANCH   1  13
ATOM      8  C   LIG    1      -21.580  85.756  13.328  0.00  0.00    +0.232 C 
ATOM      9  N   LIG    1      -22.124  84.684  12.592  0.00  0.00    -0.297 N 
ATOM     10  C   LIG    1      -21.566  83.367  12.939  0.00  0.00    +0.127 C 
ATOM     11  C   LIG    1      -22.080  82.229  12.056  0.00  0.00    +0.127 C 
ATOM     12  N   LIG    1      -23.546  82.285  12.007  0.00  0.00    -0.295 N 
ATOM     13  C   LIG    1      -24.390  81.894  13.082  0.00  0.00    +0.247 C 
ATOM     14  O   LIG    1      -25.420  82.483  13.330  0.00  0.00    -0.270 OA
ATOM     15  C   LIG    1      -23.971  83.484  11.294  0.00  0.00    +0.127 C 
ATOM     16  C   LIG    1      -23.503  84.733  12.053  0.00  0.00    +0.127 C 
ATOM     17  O   LIG    1      -20.429  85.691  13.785  0.00  0.00    -0.274 OA
BRANCH   8  19
ATOM     18  C   LIG    1      -22.295  87.544  14.987  0.00  0.00    +0.033 C 
ATOM     19  C   LIG    1      -22.495  86.980  13.582  0.00  0.00    +0.135 C 
BRANCH  19  20
ATOM     20  N   LIG    1      -22.276  88.029  12.575  0.00  0.00    -0.320 NA
ATOM     21  H   LIG    1      -21.416  87.846  12.064  0.00  0.00    +0.119 HD
ATOM     22  H   LIG    1      -23.031  88.004  11.892  0.00  0.00    +0.119 HD
ENDBRANCH  19  20
ENDBRANCH   8  19
ENDBRANCH   1  13
BRANCH   6  23
ATOM     23  S   LIG    1      -24.579  76.694  13.336  0.00  0.00    -0.081 S 
BRANCH  23  24
ATOM     24  C   LIG    1      -26.198  77.127  12.798  0.00  0.00    +0.071 A 
ATOM     25  S   LIG    1      -26.534  77.643  11.203  0.00  0.00    -0.045 S 
ATOM     26  C   LIG    1      -28.198  77.879  11.603  0.00  0.00    +0.164 A 
ATOM     27  N   LIG    1      -28.501  77.522  12.834  0.00  0.00    -0.232 NA
ATOM     28  C   LIG    1      -27.368  77.118  13.525  0.00  0.00    +0.135 A 
BRANCH  26  29
ATOM     29  N   LIG    1      -29.129  78.311  10.721  0.00  0.00    -0.279 N 
ATOM     30  H   LIG    1      -28.858  79.073  10.109  0.00  0.00    +0.155 HD
BRANCH  29  31
ATOM     31  C   LIG    1      -30.517  78.145  10.743  0.00  0.00    +0.126 A 
ATOM     32  N   LIG    1      -31.007  77.008  10.206  0.00  0.00    -0.225 NA
ATOM     33  C   LIG    1      -32.347  76.805  10.264  0.00  0.00    +0.108 A 
ATOM     34 BR   LIG    1      -33.039  75.245   9.434  0.00  0.00    -0.029 Br
ATOM     35  C   LIG    1      -33.236  77.667  10.885  0.00  0.00    +0.035 A 
ATOM     36  C   LIG    1      -32.723  78.820  11.457  0.00  0.00    +0.006 A 
ATOM     37  C   LIG    1      -31.357  79.072  11.363  0.00  0.00    +0.044 A 
ENDBRANCH  29  31
ENDBRANCH  26  29
ENDBRANCH  23  24
ENDBRANCH   6  23
TORSDOF 7
ENDMDL
MODEL 9
REMARK VINA RESULT:      -5.1      2.033      3.152
REMARK  Name = pdb/CHEMBL251796.pdb
REMARK                            x       y       z     vdW  Elec       q    Type
REMARK                         _______ _______ _______ _____ _____    ______ ____
ROOT
ATOM      1  C   LIG    1      -41.506  73.513  23.737  0.00  0.00    +0.041 A 
ATOM      2  C   LIG    1      -42.863  73.672  23.358  0.00  0.00    -0.038 A 
ATOM      3  C   LIG    1      -43.860  72.543  23.310  0.00  0.00    +0.044 C 
ATOM      4  C   LIG    1      -43.318  74.961  23.007  0.00  0.00    +0.005 A 
ATOM      5  C   LIG    1      -42.463  76.067  23.041  0.00  0.00    +0.015 A 
ATOM      6  C   LIG    1      -41.135  75.905  23.427  0.00  0.00    +0.014 A 
ATOM      7  C   LIG    1      -40.681  74.637  23.793  0.00  0.00    +0.028 A 
ENDROOT
BRANCH   1  13
ATOM      8  C   LIG    1      -37.868  72.184  27.870  0.00  0.00    +0.232 C 
ATOM      9  N   LIG    1      -39.113  71.827  27.314  0.00  0.00    -0.297 N 
ATOM     10  C   LIG    1      -40.057  72.948  27.172  0.00  0.00    +0.127 C 
ATOM     11  C   LIG    1      -41.441  72.530  26.676  0.00  0.00    +0.127 C 
ATOM     12  N   LIG    1      -41.288  71.695  25.478  0.00  0.00    -0.295 N 
ATOM     13  C   LIG    1      -40.933  72.204  24.199  0.00  0.00    +0.247 C 
ATOM     14  O   LIG    1      -40.215  71.584  23.444  0.00  0.00    -0.270 OA
ATOM     15  C   LIG    1      -40.661  70.429  25.834  0.00  0.00    +0.127 C 
ATOM     16  C   LIG    1      -39.249  70.685  26.381  0.00  0.00    +0.127 C 
ATOM     17  O   LIG    1      -37.772  73.152  28.637  0.00  0.00    -0.274 OA
BRANCH   8  19
ATOM     18  C   LIG    1      -35.373  72.211  27.388  0.00  0.00    +0.033 C 
ATOM     19  C   LIG    1      -36.634  71.352  27.439  0.00  0.00    +0.135 C 
BRANCH  19  20
ATOM     20  N   LIG    1      -36.431  70.198  28.329  0.00  0.00    -0.320 NA
ATOM     21  H   LIG    1      -37.033  69.431  28.045  0.00  0.00    +0.119 HD
ATOM     22  H   LIG    1      -35.472  69.867  28.237  0.00  0.00    +0.119 HD
ENDBRANCH  19  20
ENDBRANCH   8  19
ENDBRANCH   1  13
BRANCH   6  23
ATOM     23  S   LIG    1      -39.976  77.268  23.434  0.00  0.00    -0.081 S 
BRANCH  23  24
ATOM     24  C   LIG    1      -39.035  76.761  24.832  0.00  0.00    +0.071 A 
ATOM     25  S   LIG    1      -37.389  76.313  24.725  0.00  0.00    -0.045 S 
ATOM     26  C   LIG    1      -37.351  75.950  26.413  0.00  0.00    +0.164 A 
ATOM     27  N   LIG    1      -38.480  76.218  27.037  0.00  0.00    -0.232 NA
ATOM     28  C   LIG    1      -39.447  76.655  26.143  0.00  0.00    +0.135 A 
BRANCH  26  29
ATOM     29  N   LIG    1      -36.249  75.508  27.063  0.00  0.00    -0.279 N 
ATOM     30  H   LIG    1      -36.351  74.655  27.603  0.00  0.00    +0.155 HD
BRANCH  29  31
ATOM     31  C   LIG    1      -35.092  76.203  27.423  0.00  0.00    +0.126 A 
ATOM     32  N   LIG    1      -35.170  77.550  27.453  0.00  0.00    -0.225 NA
ATOM     33  C   LIG    1      -34.073  78.242  27.851  0.00  0.00    +0.108 A 
ATOM     34 BR   LIG    1      -34.162  80.137  27.809  0.00  0.00    -0.029 Br
ATOM     35  C   LIG    1      -32.896  77.650  28.278  0.00  0.00    +0.035 A 
ATOM     36  C   LIG    1      -32.831  76.266  28.270  0.00  0.00    +0.006 A 
ATOM     37  C   LIG    1      -33.928  75.539  27.816  0.00  0.00    +0.044 A 
ENDBRANCH  29  31
ENDBRANCH  26  29
ENDBRANCH  23  24
ENDBRANCH   6  23
TORSDOF 7
ENDMDL
