MODEL 1
REMARK VINA RESULT:      -6.8      0.000      0.000
REMARK  Name = pdb/CHEMBL3965319.pdb
REMARK                            x       y       z     vdW  Elec       q    Type
REMARK                         _______ _______ _______ _____ _____    ______ ____
ROOT
ATOM      1  C   LIG    1      -31.603  74.194  29.723  0.00  0.00    +0.149 A 
ATOM      2  N   LIG    1      -31.519  75.496  29.405  0.00  0.00    -0.160 NA
ATOM      3  N   LIG    1      -32.659  75.749  28.693  0.00  0.00    -0.218 N 
ATOM      4  C   LIG    1      -33.376  74.568  28.442  0.00  0.00    +0.129 A 
ATOM      5  C   LIG    1      -32.734  73.590  29.146  0.00  0.00    +0.078 A 
ENDROOT
BRANCH   3   6
ATOM      6  C   LIG    1      -32.971  77.081  28.301  0.00  0.00    +0.067 A 
ATOM      7  C   LIG    1      -33.905  77.837  29.017  0.00  0.00    +0.028 A 
ATOM      8  C   LIG    1      -34.198  79.149  28.638  0.00  0.00    +0.002 A 
ATOM      9  C   LIG    1      -33.550  79.720  27.547  0.00  0.00    +0.000 A 
ATOM     10  C   LIG    1      -32.603  78.982  26.838  0.00  0.00    +0.002 A 
ATOM     11  C   LIG    1      -32.301  77.670  27.219  0.00  0.00    +0.028 A 
ENDBRANCH   3   6
BRANCH   4  12
ATOM     12  N   LIG    1      -34.478  74.391  27.589  0.00  0.00    -0.266 N 
ATOM     13  H   LIG    1      -34.300  74.134  26.626  0.00  0.00    +0.157 HD
ATOM     14  C   LIG    1      -35.845  74.503  28.038  0.00  0.00    +0.251 C 
ATOM     15  O   LIG    1      -36.124  74.699  29.217  0.00  0.00    -0.270 OA
BRANCH  14  16
ATOM     16  C   LIG    1      -36.929  74.301  27.046  0.00  0.00    +0.056 A 
ATOM     17  C   LIG    1      -37.292  73.065  26.536  0.00  0.00    +0.054 A 
ATOM     18 CL   LIG    1      -36.560  71.577  26.988  0.00  0.00    -0.083 Cl
ATOM     19  C   LIG    1      -38.299  72.992  25.580  0.00  0.00    +0.041 A 
ATOM     20  C   LIG    1      -38.944  74.148  25.116  0.00  0.00    +0.052 A 
ATOM     21 CL   LIG    1      -40.154  73.854  23.910  0.00  0.00    -0.083 Cl
ATOM     22  C   LIG    1      -38.590  75.430  25.592  0.00  0.00    +0.022 A 
ATOM     23  C   LIG    1      -37.565  75.468  26.569  0.00  0.00    +0.026 A 
BRANCH  22  24
ATOM     24  C   LIG    1      -39.229  76.694  25.133  0.00  0.00    +0.107 A 
ATOM     25  C   LIG    1      -38.726  77.496  24.102  0.00  0.00    +0.149 A 
ATOM     26  F   LIG    1      -37.591  77.186  23.457  0.00  0.00    -0.203 F 
ATOM     27  C   LIG    1      -39.408  78.646  23.714  0.00  0.00    +0.042 A 
ATOM     28  C   LIG    1      -40.591  78.982  24.359  0.00  0.00    +0.023 A 
ATOM     29  C   LIG    1      -41.021  78.163  25.386  0.00  0.00    +0.111 A 
ATOM     30  N   LIG    1      -40.357  77.056  25.793  0.00  0.00    -0.252 NA
ENDBRANCH  22  24
ENDBRANCH  14  16
ENDBRANCH   4  12
BRANCH   1  31
ATOM     31  C   LIG    1      -30.583  73.519  30.514  0.00  0.00    +0.236 C 
ATOM     32  N   LIG    1      -30.165  74.058  31.599  0.00  0.00    -0.243 NA
BRANCH  31  33
ATOM     33  O   LIG    1      -30.175  72.328  30.032  0.00  0.00    -0.491 OA
ATOM     34  H   LIG    1      -29.485  72.478  29.358  0.00  0.00    +0.294 HD
ENDBRANCH  31  33
BRANCH  32  35
ATOM     35  C   LIG    1      -29.217  73.300  32.423  0.00  0.00    +0.200 C 
BRANCH  35  36
ATOM     36  C   LIG    1      -27.769  73.478  31.999  0.00  0.00    +0.066 A 
ATOM     37  N   LIG    1      -27.152  72.390  31.486  0.00  0.00    -0.238 NA
ATOM     38  C   LIG    1      -25.867  72.542  31.126  0.00  0.00    +0.221 A 
ATOM     39  N   LIG    1      -25.143  73.666  31.230  0.00  0.00    -0.244 NA
ATOM     40  C   LIG    1      -25.794  74.725  31.738  0.00  0.00    +0.114 A 
ATOM     41  C   LIG    1      -27.111  74.689  32.138  0.00  0.00    +0.045 A 
ENDBRANCH  35  36
ENDBRANCH  32  35
ENDBRANCH   1  31
TORSDOF 8
ENDMDL
MODEL 2
REMARK VINA RESULT:      -6.6      6.339      9.391
REMARK  Name = pdb/CHEMBL3965319.pdb
REMARK                            x       y       z     vdW  Elec       q    Type
REMARK                         _______ _______ _______ _____ _____    ______ ____
ROOT
ATOM      1  C   LIG    1      -36.207  71.779  26.706  0.00  0.00    +0.149 A 
ATOM      2  N   LIG    1      -37.247  72.559  26.368  0.00  0.00    -0.160 NA
ATOM      3  N   LIG    1      -37.715  72.020  25.202  0.00  0.00    -0.218 N 
ATOM      4  C   LIG    1      -36.872  70.996  24.740  0.00  0.00    +0.129 A 
ATOM      5  C   LIG    1      -35.947  70.806  25.725  0.00  0.00    +0.078 A 
ENDROOT
BRANCH   3   6
ATOM      6  C   LIG    1      -38.912  72.520  24.617  0.00  0.00    +0.067 A 
ATOM      7  C   LIG    1      -39.896  71.646  24.144  0.00  0.00    +0.028 A 
ATOM      8  C   LIG    1      -41.076  72.141  23.583  0.00  0.00    +0.002 A 
ATOM      9  C   LIG    1      -41.286  73.514  23.503  0.00  0.00    +0.000 A 
ATOM     10  C   LIG    1      -40.320  74.394  23.990  0.00  0.00    +0.002 A 
ATOM     11  C   LIG    1      -39.140  73.902  24.558  0.00  0.00    +0.028 A 
ENDBRANCH   3   6
BRANCH   4  12
ATOM     12  N   LIG    1      -36.906  70.343  23.496  0.00  0.00    -0.266 N 
ATOM     13  H   LIG    1      -36.512  70.821  22.695  0.00  0.00    +0.157 HD
ATOM     14  C   LIG    1      -37.426  69.008  23.323  0.00  0.00    +0.251 C 
ATOM     15  O   LIG    1      -37.813  68.337  24.276  0.00  0.00    -0.270 OA
BRANCH  14  16
ATOM     16  C   LIG    1      -37.417  68.421  21.961  0.00  0.00    +0.056 A 
ATOM     17  C   LIG    1      -38.464  68.534  21.061  0.00  0.00    +0.054 A 
ATOM     18 CL   LIG    1      -39.922  69.389  21.374  0.00  0.00    -0.083 Cl
ATOM     19  C   LIG    1      -38.367  67.912  19.822  0.00  0.00    +0.041 A 
ATOM     20  C   LIG    1      -37.234  67.163  19.472  0.00  0.00    +0.052 A 
ATOM     21 CL   LIG    1      -37.311  66.447  17.896  0.00  0.00    -0.083 Cl
ATOM     22  C   LIG    1      -36.152  67.002  20.368  0.00  0.00    +0.022 A 
ATOM     23  C   LIG    1      -36.281  67.654  21.619  0.00  0.00    +0.026 A 
BRANCH  22  24
ATOM     24  C   LIG    1      -34.928  66.213  20.061  0.00  0.00    +0.107 A 
ATOM     25  C   LIG    1      -34.923  64.833  19.834  0.00  0.00    +0.149 A 
ATOM     26  F   LIG    1      -36.046  64.102  19.904  0.00  0.00    -0.203 F 
ATOM     27  C   LIG    1      -33.734  64.179  19.520  0.00  0.00    +0.042 A 
ATOM     28  C   LIG    1      -32.561  64.915  19.431  0.00  0.00    +0.023 A 
ATOM     29  C   LIG    1      -32.627  66.271  19.692  0.00  0.00    +0.111 A 
ATOM     30  N   LIG    1      -33.769  66.917  20.024  0.00  0.00    -0.252 NA
ENDBRANCH  22  24
ENDBRANCH  14  16
ENDBRANCH   4  12
BRANCH   1  31
ATOM     31  C   LIG    1      -35.431  72.001  27.919  0.00  0.00    +0.236 C 
ATOM     32  N   LIG    1      -34.250  72.490  27.833  0.00  0.00    -0.243 NA
BRANCH  31  33
ATOM     33  O   LIG    1      -36.059  71.687  29.070  0.00  0.00    -0.491 OA
ATOM     34  H   LIG    1      -35.934  72.415  29.709  0.00  0.00    +0.294 HD
ENDBRANCH  31  33
BRANCH  32  35
ATOM     35  C   LIG    1      -33.540  72.799  29.080  0.00  0.00    +0.200 C 
BRANCH  35  36
ATOM     36  C   LIG    1      -32.864  74.158  29.069  0.00  0.00    +0.066 A 
ATOM     37  N   LIG    1      -33.491  75.140  28.381  0.00  0.00    -0.238 NA
ATOM     38  C   LIG    1      -32.885  76.338  28.357  0.00  0.00    +0.221 A 
ATOM     39  N   LIG    1      -31.722  76.649  28.948  0.00  0.00    -0.244 NA
ATOM     40  C   LIG    1      -31.135  75.649  29.626  0.00  0.00    +0.114 A 
ATOM     41  C   LIG    1      -31.663  74.382  29.722  0.00  0.00    +0.045 A 
ENDBRANCH  35  36
ENDBRANCH  32  35
ENDBRANCH   1  31
TORSDOF 8
ENDMDL
MODEL 3
REMARK VINA RESULT:      -6.6     18.261     21.136
REMARK  Name = pdb/CHEMBL3965319.pdb
REMARK                            x       y       z     vdW  Elec       q    Type
REMARK                         _______ _______ _______ _____ _____    ______ ____
ROOT
ATOM      1  C   LIG    1      -24.346  78.371  14.681  0.00  0.00    +0.149 A 
ATOM      2  N   LIG    1      -23.312  77.577  15.003  0.00  0.00    -0.160 NA
ATOM      3  N   LIG    1      -22.215  78.387  14.910  0.00  0.00    -0.218 N 
ATOM      4  C   LIG    1      -22.554  79.645  14.385  0.00  0.00    +0.129 A 
ATOM      5  C   LIG    1      -23.916  79.653  14.294  0.00  0.00    +0.078 A 
ENDROOT
BRANCH   3   6
ATOM      6  C   LIG    1      -20.939  77.905  15.314  0.00  0.00    +0.067 A 
ATOM      7  C   LIG    1      -20.102  78.687  16.119  0.00  0.00    +0.028 A 
ATOM      8  C   LIG    1      -18.856  78.204  16.526  0.00  0.00    +0.002 A 
ATOM      9  C   LIG    1      -18.442  76.933  16.143  0.00  0.00    +0.000 A 
ATOM     10  C   LIG    1      -19.276  76.138  15.357  0.00  0.00    +0.002 A 
ATOM     11  C   LIG    1      -20.528  76.615  14.952  0.00  0.00    +0.028 A 
ENDBRANCH   3   6
BRANCH   4  12
ATOM     12  N   LIG    1      -21.688  80.667  13.962  0.00  0.00    -0.266 N 
ATOM     13  H   LIG    1      -21.381  80.664  12.997  0.00  0.00    +0.157 HD
ATOM     14  C   LIG    1      -21.262  81.744  14.823  0.00  0.00    +0.251 C 
ATOM     15  O   LIG    1      -21.690  81.862  15.968  0.00  0.00    -0.270 OA
BRANCH  14  16
ATOM     16  C   LIG    1      -20.340  82.765  14.269  0.00  0.00    +0.056 A 
ATOM     17  C   LIG    1      -18.985  82.560  14.072  0.00  0.00    +0.054 A 
ATOM     18 CL   LIG    1      -18.168  81.088  14.416  0.00  0.00    -0.083 Cl
ATOM     19  C   LIG    1      -18.203  83.600  13.581  0.00  0.00    +0.041 A 
ATOM     20  C   LIG    1      -18.761  84.855  13.295  0.00  0.00    +0.052 A 
ATOM     21 CL   LIG    1      -17.623  86.026  12.715  0.00  0.00    -0.083 Cl
ATOM     22  C   LIG    1      -20.135  85.114  13.502  0.00  0.00    +0.022 A 
ATOM     23  C   LIG    1      -20.903  84.032  13.997  0.00  0.00    +0.026 A 
BRANCH  22  24
ATOM     24  C   LIG    1      -20.784  86.425  13.227  0.00  0.00    +0.107 A 
ATOM     25  C   LIG    1      -20.587  87.575  14.000  0.00  0.00    +0.149 A 
ATOM     26  F   LIG    1      -19.797  87.568  15.084  0.00  0.00    -0.203 F 
ATOM     27  C   LIG    1      -21.210  88.769  13.650  0.00  0.00    +0.042 A 
ATOM     28  C   LIG    1      -22.023  88.804  12.525  0.00  0.00    +0.023 A 
ATOM     29  C   LIG    1      -22.199  87.630  11.819  0.00  0.00    +0.111 A 
ATOM     30  N   LIG    1      -21.622  86.453  12.160  0.00  0.00    -0.252 NA
ENDBRANCH  22  24
ENDBRANCH  14  16
ENDBRANCH   4  12
BRANCH   1  31
ATOM     31  C   LIG    1      -25.723  77.894  14.681  0.00  0.00    +0.236 C 
ATOM     32  N   LIG    1      -26.033  76.862  13.989  0.00  0.00    -0.243 NA
BRANCH  31  33
ATOM     33  O   LIG    1      -26.574  78.591  15.460  0.00  0.00    -0.491 OA
ATOM     34  H   LIG    1      -26.064  79.051  16.154  0.00  0.00    +0.294 HD
ENDBRANCH  31  33
BRANCH  32  35
ATOM     35  C   LIG    1      -27.404  76.348  14.097  0.00  0.00    +0.200 C 
BRANCH  35  36
ATOM     36  C   LIG    1      -28.285  76.724  12.918  0.00  0.00    +0.066 A 
ATOM     37  N   LIG    1      -28.467  78.046  12.698  0.00  0.00    -0.238 NA
ATOM     38  C   LIG    1      -29.260  78.379  11.667  0.00  0.00    +0.221 A 
ATOM     39  N   LIG    1      -29.885  77.528  10.841  0.00  0.00    -0.244 NA
ATOM     40  C   LIG    1      -29.674  76.225  11.090  0.00  0.00    +0.114 A 
ATOM     41  C   LIG    1      -28.880  75.765  12.116  0.00  0.00    +0.045 A 
ENDBRANCH  35  36
ENDBRANCH  32  35
ENDBRANCH   1  31
TORSDOF 8
ENDMDL
MODEL 4
REMARK VINA RESULT:      -6.5      6.486     13.716
REMARK  Name = pdb/CHEMBL3965319.pdb
REMARK                            x       y       z     vdW  Elec       q    Type
REMARK                         _______ _______ _______ _____ _____    ______ ____
ROOT
ATOM      1  C   LIG    1      -29.609  76.065  31.351  0.00  0.00    +0.149 A 
ATOM      2  N   LIG    1      -29.102  74.837  31.546  0.00  0.00    -0.160 NA
ATOM      3  N   LIG    1      -27.857  75.058  32.066  0.00  0.00    -0.218 N 
ATOM      4  C   LIG    1      -27.535  76.425  32.052  0.00  0.00    +0.129 A 
ATOM      5  C   LIG    1      -28.670  77.068  31.652  0.00  0.00    +0.078 A 
ENDROOT
BRANCH   3   6
ATOM      6  C   LIG    1      -27.072  73.963  32.522  0.00  0.00    +0.067 A 
ATOM      7  C   LIG    1      -26.049  73.436  31.725  0.00  0.00    +0.028 A 
ATOM      8  C   LIG    1      -25.271  72.370  32.183  0.00  0.00    +0.002 A 
ATOM      9  C   LIG    1      -25.501  71.830  33.445  0.00  0.00    +0.000 A 
ATOM     10  C   LIG    1      -26.505  72.362  34.255  0.00  0.00    +0.002 A 
ATOM     11  C   LIG    1      -27.282  73.434  33.803  0.00  0.00    +0.028 A 
ENDBRANCH   3   6
BRANCH   4  12
ATOM     12  N   LIG    1      -26.292  77.023  32.317  0.00  0.00    -0.266 N 
ATOM     13  H   LIG    1      -25.775  77.415  31.539  0.00  0.00    +0.157 HD
ATOM     14  C   LIG    1      -25.748  77.151  33.647  0.00  0.00    +0.251 C 
ATOM     15  O   LIG    1      -26.378  76.797  34.640  0.00  0.00    -0.270 OA
BRANCH  14  16
ATOM     16  C   LIG    1      -24.421  77.795  33.806  0.00  0.00    +0.056 A 
ATOM     17  C   LIG    1      -24.168  78.843  34.676  0.00  0.00    +0.054 A 
ATOM     18 CL   LIG    1      -25.341  79.541  35.719  0.00  0.00    -0.083 Cl
ATOM     19  C   LIG    1      -22.895  79.400  34.718  0.00  0.00    +0.041 A 
ATOM     20  C   LIG    1      -21.868  78.928  33.888  0.00  0.00    +0.052 A 
ATOM     21 CL   LIG    1      -20.361  79.764  34.071  0.00  0.00    -0.083 Cl
ATOM     22  C   LIG    1      -22.088  77.877  32.969  0.00  0.00    +0.022 A 
ATOM     23  C   LIG    1      -23.394  77.328  32.956  0.00  0.00    +0.026 A 
BRANCH  22  24
ATOM     24  C   LIG    1      -21.044  77.338  32.055  0.00  0.00    +0.107 A 
ATOM     25  C   LIG    1      -21.111  77.414  30.660  0.00  0.00    +0.149 A 
ATOM     26  F   LIG    1      -22.159  77.969  30.033  0.00  0.00    -0.203 F 
ATOM     27  C   LIG    1      -20.071  76.912  29.881  0.00  0.00    +0.042 A 
ATOM     28  C   LIG    1      -18.971  76.343  30.507  0.00  0.00    +0.023 A 
ATOM     29  C   LIG    1      -18.977  76.275  31.887  0.00  0.00    +0.111 A 
ATOM     30  N   LIG    1      -19.990  76.733  32.658  0.00  0.00    -0.252 NA
ENDBRANCH  22  24
ENDBRANCH  14  16
ENDBRANCH   4  12
BRANCH   1  31
ATOM     31  C   LIG    1      -30.950  76.279  30.823  0.00  0.00    +0.236 C 
ATOM     32  N   LIG    1      -31.178  76.075  29.579  0.00  0.00    -0.243 NA
BRANCH  31  33
ATOM     33  O   LIG    1      -31.873  76.658  31.730  0.00  0.00    -0.491 OA
ATOM     34  H   LIG    1      -32.563  77.182  31.280  0.00  0.00    +0.294 HD
ENDBRANCH  31  33
BRANCH  32  35
ATOM     35  C   LIG    1      -32.562  76.197  29.104  0.00  0.00    +0.200 C 
BRANCH  35  36
ATOM     36  C   LIG    1      -32.807  77.440  28.267  0.00  0.00    +0.066 A 
ATOM     37  N   LIG    1      -33.716  78.321  28.746  0.00  0.00    -0.238 NA
ATOM     38  C   LIG    1      -33.946  79.412  27.999  0.00  0.00    +0.221 A 
ATOM     39  N   LIG    1      -33.364  79.708  26.828  0.00  0.00    -0.244 NA
ATOM     40  C   LIG    1      -32.464  78.812  26.391  0.00  0.00    +0.114 A 
ATOM     41  C   LIG    1      -32.144  77.659  27.071  0.00  0.00    +0.045 A 
ENDBRANCH  35  36
ENDBRANCH  32  35
ENDBRANCH   1  31
TORSDOF 8
ENDMDL
MODEL 5
REMARK VINA RESULT:      -6.4     13.834     17.770
REMARK  Name = pdb/CHEMBL3965319.pdb
REMARK                            x       y       z     vdW  Elec       q    Type
REMARK                         _______ _______ _______ _____ _____    ______ ____
ROOT
ATOM      1  C   LIG    1      -23.827  83.047  37.294  0.00  0.00    +0.149 A 
ATOM      2  N   LIG    1      -22.893  83.226  38.242  0.00  0.00    -0.160 NA
ATOM      3  N   LIG    1      -21.755  82.688  37.708  0.00  0.00    -0.218 N 
ATOM      4  C   LIG    1      -22.021  82.042  36.489  0.00  0.00    +0.129 A 
ATOM      5  C   LIG    1      -23.325  82.320  36.200  0.00  0.00    +0.078 A 
ENDROOT
BRANCH   3   6
ATOM      6  C   LIG    1      -20.516  82.820  38.394  0.00  0.00    +0.067 A 
ATOM      7  C   LIG    1      -19.843  84.046  38.425  0.00  0.00    +0.028 A 
ATOM      8  C   LIG    1      -18.634  84.175  39.113  0.00  0.00    +0.002 A 
ATOM      9  C   LIG    1      -18.094  83.083  39.784  0.00  0.00    +0.000 A 
ATOM     10  C   LIG    1      -18.767  81.861  39.776  0.00  0.00    +0.002 A 
ATOM     11  C   LIG    1      -19.982  81.729  39.095  0.00  0.00    +0.028 A 
ENDBRANCH   3   6
BRANCH   4  12
ATOM     12  N   LIG    1      -21.164  81.214  35.745  0.00  0.00    -0.266 N 
ATOM     13  H   LIG    1      -20.627  81.632  34.996  0.00  0.00    +0.157 HD
ATOM     14  C   LIG    1      -20.975  79.813  36.037  0.00  0.00    +0.251 C 
ATOM     15  O   LIG    1      -21.511  79.277  37.003  0.00  0.00    -0.270 OA
BRANCH  14  16
ATOM     16  C   LIG    1      -20.048  79.035  35.180  0.00  0.00    +0.056 A 
ATOM     17  C   LIG    1      -18.696  78.881  35.440  0.00  0.00    +0.054 A 
ATOM     18 CL   LIG    1      -17.890  79.548  36.804  0.00  0.00    -0.083 Cl
ATOM     19  C   LIG    1      -17.908  78.161  34.549  0.00  0.00    +0.041 A 
ATOM     20  C   LIG    1      -18.457  77.599  33.386  0.00  0.00    +0.052 A 
ATOM     21 CL   LIG    1      -17.312  76.760  32.392  0.00  0.00    -0.083 Cl
ATOM     22  C   LIG    1      -19.826  77.750  33.070  0.00  0.00    +0.022 A 
ATOM     23  C   LIG    1      -20.600  78.484  34.002  0.00  0.00    +0.026 A 
BRANCH  22  24
ATOM     24  C   LIG    1      -20.465  77.187  31.850  0.00  0.00    +0.107 A 
ATOM     25  C   LIG    1      -21.386  76.134  31.863  0.00  0.00    +0.149 A 
ATOM     26  F   LIG    1      -21.746  75.526  33.003  0.00  0.00    -0.203 F 
ATOM     27  C   LIG    1      -21.961  75.692  30.674  0.00  0.00    +0.042 A 
ATOM     28  C   LIG    1      -21.613  76.313  29.483  0.00  0.00    +0.023 A 
ATOM     29  C   LIG    1      -20.679  77.330  29.533  0.00  0.00    +0.111 A 
ATOM     30  N   LIG    1      -20.091  77.754  30.676  0.00  0.00    -0.252 NA
ENDBRANCH  22  24
ENDBRANCH  14  16
ENDBRANCH   4  12
BRANCH   1  31
ATOM     31  C   LIG    1      -25.200  83.507  37.458  0.00  0.00    +0.236 C 
ATOM     32  N   LIG    1      -25.885  83.831  36.425  0.00  0.00    -0.243 NA
BRANCH  31  33
ATOM     33  O   LIG    1      -25.654  83.524  38.728  0.00  0.00    -0.491 OA
ATOM     34  H   LIG    1      -25.560  84.427  39.086  0.00  0.00    +0.294 HD
ENDBRANCH  31  33
BRANCH  32  35
ATOM     35  C   LIG    1      -27.296  84.187  36.620  0.00  0.00    +0.200 C 
BRANCH  35  36
ATOM     36  C   LIG    1      -27.761  85.326  35.729  0.00  0.00    +0.066 A 
ATOM     37  N   LIG    1      -26.896  86.353  35.562  0.00  0.00    -0.238 NA
ATOM     38  C   LIG    1      -27.312  87.369  34.789  0.00  0.00    +0.221 A 
ATOM     39  N   LIG    1      -28.499  87.459  34.172  0.00  0.00    -0.244 NA
ATOM     40  C   LIG    1      -29.326  86.417  34.357  0.00  0.00    +0.114 A 
ATOM     41  C   LIG    1      -29.007  85.320  35.126  0.00  0.00    +0.045 A 
ENDBRANCH  35  36
ENDBRANCH  32  35
ENDBRANCH   1  31
TORSDOF 8
ENDMDL
MODEL 6
REMARK VINA RESULT:      -6.4     17.376     19.983
REMARK  Name = pdb/CHEMBL3965319.pdb
REMARK                            x       y       z     vdW  Elec       q    Type
REMARK                         _______ _______ _______ _____ _____    ______ ____
ROOT
ATOM      1  C   LIG    1      -22.909  82.651  15.541  0.00  0.00    +0.149 A 
ATOM      2  N   LIG    1      -23.894  82.134  14.789  0.00  0.00    -0.160 NA
ATOM      3  N   LIG    1      -23.798  80.783  14.980  0.00  0.00    -0.218 N 
ATOM      4  C   LIG    1      -22.659  80.455  15.733  0.00  0.00    +0.129 A 
ATOM      5  C   LIG    1      -22.127  81.646  16.137  0.00  0.00    +0.078 A 
ENDROOT
BRANCH   3   6
ATOM      6  C   LIG    1      -24.782  79.916  14.429  0.00  0.00    +0.067 A 
ATOM      7  C   LIG    1      -25.535  79.074  15.255  0.00  0.00    +0.028 A 
ATOM      8  C   LIG    1      -26.511  78.234  14.712  0.00  0.00    +0.002 A 
ATOM      9  C   LIG    1      -26.750  78.238  13.341  0.00  0.00    +0.000 A 
ATOM     10  C   LIG    1      -26.018  79.089  12.511  0.00  0.00    +0.002 A 
ATOM     11  C   LIG    1      -25.045  79.936  13.052  0.00  0.00    +0.028 A 
ENDBRANCH   3   6
BRANCH   4  12
ATOM     12  N   LIG    1      -22.117  79.181  15.969  0.00  0.00    -0.266 N 
ATOM     13  H   LIG    1      -22.281  78.752  16.872  0.00  0.00    +0.157 HD
ATOM     14  C   LIG    1      -21.389  78.438  14.969  0.00  0.00    +0.251 C 
ATOM     15  O   LIG    1      -21.257  78.857  13.822  0.00  0.00    -0.270 OA
BRANCH  14  16
ATOM     16  C   LIG    1      -20.857  77.102  15.333  0.00  0.00    +0.056 A 
ATOM     17  C   LIG    1      -19.519  76.841  15.577  0.00  0.00    +0.054 A 
ATOM     18 CL   LIG    1      -18.275  78.026  15.518  0.00  0.00    -0.083 Cl
ATOM     19  C   LIG    1      -19.121  75.543  15.874  0.00  0.00    +0.041 A 
ATOM     20  C   LIG    1      -20.050  74.492  15.919  0.00  0.00    +0.052 A 
ATOM     21 CL   LIG    1      -19.358  72.945  16.283  0.00  0.00    -0.083 Cl
ATOM     22  C   LIG    1      -21.421  74.709  15.655  0.00  0.00    +0.022 A 
ATOM     23  C   LIG    1      -21.792  76.044  15.361  0.00  0.00    +0.026 A 
BRANCH  22  24
ATOM     24  C   LIG    1      -22.452  73.636  15.676  0.00  0.00    +0.107 A 
ATOM     25  C   LIG    1      -23.253  73.342  16.785  0.00  0.00    +0.149 A 
ATOM     26  F   LIG    1      -23.125  74.007  17.944  0.00  0.00    -0.203 F 
ATOM     27  C   LIG    1      -24.218  72.342  16.707  0.00  0.00    +0.042 A 
ATOM     28  C   LIG    1      -24.377  71.647  15.516  0.00  0.00    +0.023 A 
ATOM     29  C   LIG    1      -23.538  71.966  14.465  0.00  0.00    +0.111 A 
ATOM     30  N   LIG    1      -22.577  72.918  14.532  0.00  0.00    -0.252 NA
ENDBRANCH  22  24
ENDBRANCH  14  16
ENDBRANCH   4  12
BRANCH   1  31
ATOM     31  C   LIG    1      -22.676  84.086  15.639  0.00  0.00    +0.236 C 
ATOM     32  N   LIG    1      -22.446  84.762  14.575  0.00  0.00    -0.243 NA
BRANCH  31  33
ATOM     33  O   LIG    1      -22.757  84.599  16.882  0.00  0.00    -0.491 OA
ATOM     34  H   LIG    1      -23.452  84.124  17.377  0.00  0.00    +0.294 HD
ENDBRANCH  31  33
BRANCH  32  35
ATOM     35  C   LIG    1      -22.322  86.219  14.699  0.00  0.00    +0.200 C 
BRANCH  35  36
ATOM     36  C   LIG    1      -21.087  86.782  14.017  0.00  0.00    +0.066 A 
ATOM     37  N   LIG    1      -20.017  85.959  13.932  0.00  0.00    -0.238 NA
ATOM     38  C   LIG    1      -18.919  86.462  13.344  0.00  0.00    +0.221 A 
ATOM     39  N   LIG    1      -18.786  87.696  12.839  0.00  0.00    -0.244 NA
ATOM     40  C   LIG    1      -19.872  88.480  12.939  0.00  0.00    +0.114 A 
ATOM     41  C   LIG    1      -21.053  88.073  13.517  0.00  0.00    +0.045 A 
ENDBRANCH  35  36
ENDBRANCH  32  35
ENDBRANCH   1  31
TORSDOF 8
ENDMDL
MODEL 7
REMARK VINA RESULT:      -6.4      5.455      9.236
REMARK  Name = pdb/CHEMBL3965319.pdb
REMARK                            x       y       z     vdW  Elec       q    Type
REMARK                         _______ _______ _______ _____ _____    ______ ____
ROOT
ATOM      1  C   LIG    1      -35.905  69.151  25.235  0.00  0.00    +0.149 A 
ATOM      2  N   LIG    1      -36.986  69.918  25.456  0.00  0.00    -0.160 NA
ATOM      3  N   LIG    1      -36.477  71.109  25.895  0.00  0.00    -0.218 N 
ATOM      4  C   LIG    1      -35.089  71.030  26.088  0.00  0.00    +0.129 A 
ATOM      5  C   LIG    1      -34.719  69.804  25.615  0.00  0.00    +0.078 A 
ENDROOT
BRANCH   3   6
ATOM      6  C   LIG    1      -37.344  72.218  26.103  0.00  0.00    +0.067 A 
ATOM      7  C   LIG    1      -37.650  72.652  27.397  0.00  0.00    +0.028 A 
ATOM      8  C   LIG    1      -38.490  73.751  27.597  0.00  0.00    +0.002 A 
ATOM      9  C   LIG    1      -39.019  74.432  26.505  0.00  0.00    +0.000 A 
ATOM     10  C   LIG    1      -38.703  74.020  25.211  0.00  0.00    +0.002 A 
ATOM     11  C   LIG    1      -37.858  72.924  25.006  0.00  0.00    +0.028 A 
ENDBRANCH   3   6
BRANCH   4  12
ATOM     12  N   LIG    1      -34.247  71.969  26.708  0.00  0.00    -0.266 N 
ATOM     13  H   LIG    1      -33.764  72.638  26.121  0.00  0.00    +0.157 HD
ATOM     14  C   LIG    1      -34.086  72.056  28.139  0.00  0.00    +0.251 C 
ATOM     15  O   LIG    1      -34.732  71.348  28.906  0.00  0.00    -0.270 OA
BRANCH  14  16
ATOM     16  C   LIG    1      -33.166  73.085  28.682  0.00  0.00    +0.056 A 
ATOM     17  C   LIG    1      -32.030  72.797  29.421  0.00  0.00    +0.054 A 
ATOM     18 CL   LIG    1      -31.502  71.207  29.804  0.00  0.00    -0.083 Cl
ATOM     19  C   LIG    1      -31.256  73.841  29.916  0.00  0.00    +0.041 A 
ATOM     20  C   LIG    1      -31.612  75.179  29.689  0.00  0.00    +0.052 A 
ATOM     21 CL   LIG    1      -30.536  76.333  30.404  0.00  0.00    -0.083 Cl
ATOM     22  C   LIG    1      -32.774  75.518  28.959  0.00  0.00    +0.022 A 
ATOM     23  C   LIG    1      -33.536  74.431  28.465  0.00  0.00    +0.026 A 
BRANCH  22  24
ATOM     24  C   LIG    1      -33.210  76.916  28.693  0.00  0.00    +0.107 A 
ATOM     25  C   LIG    1      -32.702  77.712  27.661  0.00  0.00    +0.149 A 
ATOM     26  F   LIG    1      -31.742  77.268  26.836  0.00  0.00    -0.203 F 
ATOM     27  C   LIG    1      -33.193  79.000  27.464  0.00  0.00    +0.042 A 
ATOM     28  C   LIG    1      -34.193  79.478  28.299  0.00  0.00    +0.023 A 
ATOM     29  C   LIG    1      -34.636  78.653  29.315  0.00  0.00    +0.111 A 
ATOM     30  N   LIG    1      -34.151  77.408  29.538  0.00  0.00    -0.252 NA
ENDBRANCH  22  24
ENDBRANCH  14  16
ENDBRANCH   4  12
BRANCH   1  31
ATOM     31  C   LIG    1      -36.008  67.789  24.730  0.00  0.00    +0.236 C 
ATOM     32  N   LIG    1      -35.321  67.441  23.706  0.00  0.00    -0.243 NA
BRANCH  31  33
ATOM     33  O   LIG    1      -36.826  66.976  25.429  0.00  0.00    -0.491 OA
ATOM     34  H   LIG    1      -36.522  66.941  26.356  0.00  0.00    +0.294 HD
ENDBRANCH  31  33
BRANCH  32  35
ATOM     35  C   LIG    1      -35.368  66.034  23.291  0.00  0.00    +0.200 C 
BRANCH  35  36
ATOM     36  C   LIG    1      -34.623  65.760  21.996  0.00  0.00    +0.066 A 
ATOM     37  N   LIG    1      -33.766  66.720  21.578  0.00  0.00    -0.238 NA
ATOM     38  C   LIG    1      -33.120  66.486  20.424  0.00  0.00    +0.221 A 
ATOM     39  N   LIG    1      -33.245  65.397  19.653  0.00  0.00    -0.244 NA
ATOM     40  C   LIG    1      -34.100  64.466  20.106  0.00  0.00    +0.114 A 
ATOM     41  C   LIG    1      -34.816  64.594  21.275  0.00  0.00    +0.045 A 
ENDBRANCH  35  36
ENDBRANCH  32  35
ENDBRANCH   1  31
TORSDOF 8
ENDMDL
MODEL 8
REMARK VINA RESULT:      -6.3     16.757     18.544
REMARK  Name = pdb/CHEMBL3965319.pdb
REMARK                            x       y       z     vdW  Elec       q    Type
REMARK                         _______ _______ _______ _____ _____    ______ ____
ROOT
ATOM      1  C   LIG    1      -22.923  81.388  15.320  0.00  0.00    +0.149 A 
ATOM      2  N   LIG    1      -22.253  80.281  15.680  0.00  0.00    -0.160 NA
ATOM      3  N   LIG    1      -22.834  79.277  14.956  0.00  0.00    -0.218 N 
ATOM      4  C   LIG    1      -23.963  79.740  14.260  0.00  0.00    +0.129 A 
ATOM      5  C   LIG    1      -23.985  81.091  14.447  0.00  0.00    +0.078 A 
ENDROOT
BRANCH   3   6
ATOM      6  C   LIG    1      -22.283  77.966  14.989  0.00  0.00    +0.067 A 
ATOM      7  C   LIG    1      -20.945  77.744  14.644  0.00  0.00    +0.028 A 
ATOM      8  C   LIG    1      -20.404  76.458  14.691  0.00  0.00    +0.002 A 
ATOM      9  C   LIG    1      -21.192  75.384  15.095  0.00  0.00    +0.000 A 
ATOM     10  C   LIG    1      -22.521  75.598  15.461  0.00  0.00    +0.002 A 
ATOM     11  C   LIG    1      -23.065  76.886  15.421  0.00  0.00    +0.028 A 
ENDBRANCH   3   6
BRANCH   4  12
ATOM     12  N   LIG    1      -24.926  78.980  13.575  0.00  0.00    -0.266 N 
ATOM     13  H   LIG    1      -24.803  78.839  12.580  0.00  0.00    +0.157 HD
ATOM     14  C   LIG    1      -26.046  78.351  14.233  0.00  0.00    +0.251 C 
ATOM     15  O   LIG    1      -26.185  78.393  15.452  0.00  0.00    -0.270 OA
BRANCH  14  16
ATOM     16  C   LIG    1      -27.004  77.578  13.406  0.00  0.00    +0.056 A 
ATOM     17  C   LIG    1      -26.962  76.202  13.254  0.00  0.00    +0.054 A 
ATOM     18 CL   LIG    1      -25.810  75.178  14.016  0.00  0.00    -0.083 Cl
ATOM     19  C   LIG    1      -27.886  75.579  12.423  0.00  0.00    +0.041 A 
ATOM     20  C   LIG    1      -28.853  76.322  11.728  0.00  0.00    +0.052 A 
ATOM     21 CL   LIG    1      -29.899  75.370  10.728  0.00  0.00    -0.083 Cl
ATOM     22  C   LIG    1      -28.918  77.729  11.836  0.00  0.00    +0.022 A 
ATOM     23  C   LIG    1      -27.965  78.331  12.695  0.00  0.00    +0.026 A 
BRANCH  22  24
ATOM     24  C   LIG    1      -29.911  78.574  11.118  0.00  0.00    +0.107 A 
ATOM     25  C   LIG    1      -29.861  78.847   9.747  0.00  0.00    +0.149 A 
ATOM     26  F   LIG    1      -28.875  78.375   8.970  0.00  0.00    -0.203 F 
ATOM     27  C   LIG    1      -30.853  79.621   9.151  0.00  0.00    +0.042 A 
ATOM     28  C   LIG    1      -31.890  80.111   9.933  0.00  0.00    +0.023 A 
ATOM     29  C   LIG    1      -31.869  79.828  11.285  0.00  0.00    +0.111 A 
ATOM     30  N   LIG    1      -30.899  79.100  11.886  0.00  0.00    -0.252 NA
ENDBRANCH  22  24
ENDBRANCH  14  16
ENDBRANCH   4  12
BRANCH   1  31
ATOM     31  C   LIG    1      -22.596  82.704  15.853  0.00  0.00    +0.236 C 
ATOM     32  N   LIG    1      -22.772  83.742  15.124  0.00  0.00    -0.243 NA
BRANCH  31  33
ATOM     33  O   LIG    1      -22.147  82.715  17.124  0.00  0.00    -0.491 OA
ATOM     34  H   LIG    1      -22.569  81.984  17.616  0.00  0.00    +0.294 HD
ENDBRANCH  31  33
BRANCH  32  35
ATOM     35  C   LIG    1      -22.533  85.057  15.730  0.00  0.00    +0.200 C 
BRANCH  35  36
ATOM     36  C   LIG    1      -22.344  86.168  14.712  0.00  0.00    +0.066 A 
ATOM     37  N   LIG    1      -21.448  87.132  15.028  0.00  0.00    -0.238 NA
ATOM     38  C   LIG    1      -21.293  88.123  14.136  0.00  0.00    +0.221 A 
ATOM     39  N   LIG    1      -21.940  88.246  12.969  0.00  0.00    -0.244 NA
ATOM     40  C   LIG    1      -22.815  87.267  12.689  0.00  0.00    +0.114 A 
ATOM     41  C   LIG    1      -23.056  86.200  13.524  0.00  0.00    +0.045 A 
ENDBRANCH  35  36
ENDBRANCH  32  35
ENDBRANCH   1  31
TORSDOF 8
ENDMDL
MODEL 9
REMARK VINA RESULT:      -6.3      5.188      8.735
REMARK  Name = pdb/CHEMBL3965319.pdb
REMARK                            x       y       z     vdW  Elec       q    Type
REMARK                         _______ _______ _______ _____ _____    ______ ____
ROOT
ATOM      1  C   LIG    1      -38.161  76.438  26.419  0.00  0.00    +0.149 A 
ATOM      2  N   LIG    1      -39.295  77.020  25.996  0.00  0.00    -0.160 NA
ATOM      3  N   LIG    1      -39.925  76.053  25.263  0.00  0.00    -0.218 N 
ATOM      4  C   LIG    1      -39.109  74.921  25.107  0.00  0.00    +0.129 A 
ATOM      5  C   LIG    1      -38.013  75.144  25.889  0.00  0.00    +0.078 A 
ENDROOT
BRANCH   3   6
ATOM      6  C   LIG    1      -41.237  76.281  24.763  0.00  0.00    +0.067 A 
ATOM      7  C   LIG    1      -41.482  76.313  23.386  0.00  0.00    +0.028 A 
ATOM      8  C   LIG    1      -42.775  76.522  22.900  0.00  0.00    +0.002 A 
ATOM      9  C   LIG    1      -43.835  76.688  23.786  0.00  0.00    +0.000 A 
ATOM     10  C   LIG    1      -43.605  76.638  25.161  0.00  0.00    +0.002 A 
ATOM     11  C   LIG    1      -42.312  76.422  25.652  0.00  0.00    +0.028 A 
ENDBRANCH   3   6
BRANCH   4  12
ATOM     12  N   LIG    1      -39.318  73.813  24.268  0.00  0.00    -0.266 N 
ATOM     13  H   LIG    1      -38.769  73.746  23.420  0.00  0.00    +0.157 HD
ATOM     14  C   LIG    1      -40.236  72.747  24.588  0.00  0.00    +0.251 C 
ATOM     15  O   LIG    1      -40.844  72.717  25.654  0.00  0.00    -0.270 OA
BRANCH  14  16
ATOM     16  C   LIG    1      -40.380  71.630  23.624  0.00  0.00    +0.056 A 
ATOM     17  C   LIG    1      -41.481  71.451  22.803  0.00  0.00    +0.054 A 
ATOM     18 CL   LIG    1      -42.838  72.506  22.759  0.00  0.00    -0.083 Cl
ATOM     19  C   LIG    1      -41.532  70.346  21.961  0.00  0.00    +0.041 A 
ATOM     20  C   LIG    1      -40.493  69.404  21.937  0.00  0.00    +0.052 A 
ATOM     21 CL   LIG    1      -40.749  68.087  20.840  0.00  0.00    -0.083 Cl
ATOM     22  C   LIG    1      -39.361  69.534  22.774  0.00  0.00    +0.022 A 
ATOM     23  C   LIG    1      -39.340  70.674  23.615  0.00  0.00    +0.026 A 
BRANCH  22  24
ATOM     24  C   LIG    1      -38.232  68.565  22.803  0.00  0.00    +0.107 A 
ATOM     25  C   LIG    1      -37.223  68.510  21.835  0.00  0.00    +0.149 A 
ATOM     26  F   LIG    1      -37.218  69.330  20.774  0.00  0.00    -0.203 F 
ATOM     27  C   LIG    1      -36.184  67.591  21.960  0.00  0.00    +0.042 A 
ATOM     28  C   LIG    1      -36.161  66.739  23.056  0.00  0.00    +0.023 A 
ATOM     29  C   LIG    1      -37.200  66.826  23.962  0.00  0.00    +0.111 A 
ATOM     30  N   LIG    1      -38.232  67.695  23.843  0.00  0.00    -0.252 NA
ENDBRANCH  22  24
ENDBRANCH  14  16
ENDBRANCH   4  12
BRANCH   1  31
ATOM     31  C   LIG    1      -37.199  77.132  27.265  0.00  0.00    +0.236 C 
ATOM     32  N   LIG    1      -36.404  76.453  28.005  0.00  0.00    -0.243 NA
BRANCH  31  33
ATOM     33  O   LIG    1      -37.211  78.477  27.167  0.00  0.00    -0.491 OA
ATOM     34  H   LIG    1      -37.504  78.854  28.018  0.00  0.00    +0.294 HD
ENDBRANCH  31  33
BRANCH  32  35
ATOM     35  C   LIG    1      -35.379  77.181  28.762  0.00  0.00    +0.200 C 
BRANCH  35  36
ATOM     36  C   LIG    1      -34.279  77.761  27.888  0.00  0.00    +0.066 A 
ATOM     37  N   LIG    1      -34.242  79.109  27.779  0.00  0.00    -0.238 NA
ATOM     38  C   LIG    1      -33.281  79.621  26.993  0.00  0.00    +0.221 A 
ATOM     39  N   LIG    1      -32.362  78.924  26.310  0.00  0.00    -0.244 NA
ATOM     40  C   LIG    1      -32.429  77.590  26.449  0.00  0.00    +0.114 A 
ATOM     41  C   LIG    1      -33.368  76.953  27.229  0.00  0.00    +0.045 A 
ENDBRANCH  35  36
ENDBRANCH  32  35
ENDBRANCH   1  31
TORSDOF 8
ENDMDL
