MODEL 1
REMARK VINA RESULT:      -6.3      0.000      0.000
REMARK  Name = pdb/CHEMBL3639603.pdb
REMARK                            x       y       z     vdW  Elec       q    Type
REMARK                         _______ _______ _______ _____ _____    ______ ____
ROOT
ATOM      1  C   LIG    1      -36.671  80.533  29.680  0.00  0.00    +0.042 A 
ATOM      2  C   LIG    1      -37.239  79.760  28.657  0.00  0.00    +0.038 A 
ATOM      3  C   LIG    1      -38.562  79.975  28.252  0.00  0.00    +0.052 A 
ATOM      4  C   LIG    1      -39.278  80.979  28.904  0.00  0.00    +0.134 A 
ATOM      5  N   LIG    1      -38.785  81.722  29.917  0.00  0.00    -0.261 NA
ATOM      6  C   LIG    1      -37.520  81.452  30.303  0.00  0.00    +0.122 A 
ENDROOT
BRANCH   3   7
ATOM      7  N   LIG    1      -39.104  79.192  27.210  0.00  0.00    -0.283 N 
ATOM      8  H   LIG    1      -39.368  78.228  27.441  0.00  0.00    +0.155 HD
ATOM      9  C   LIG    1      -39.296  79.579  25.894  0.00  0.00    +0.239 C 
ATOM     10  O   LIG    1      -39.036  80.697  25.445  0.00  0.00    -0.273 OA
BRANCH   9  11
ATOM     11  C   LIG    1      -39.765  78.508  24.931  0.00  0.00    +0.240 C 
BRANCH  11  12
ATOM     12  N   LIG    1      -39.052  77.250  25.027  0.00  0.00    -0.255 N 
ATOM     13  C   LIG    1      -39.498  76.007  24.645  0.00  0.00    +0.070 A 
ATOM     14  C   LIG    1      -40.714  75.555  24.109  0.00  0.00    +0.031 A 
ATOM     15  C   LIG    1      -40.825  74.188  23.834  0.00  0.00    +0.040 A 
ATOM     16  C   LIG    1      -39.763  73.327  24.080  0.00  0.00    +0.124 A 
ATOM     17  F   LIG    1      -39.902  72.024  23.803  0.00  0.00    -0.205 F 
ATOM     18  C   LIG    1      -38.555  73.780  24.607  0.00  0.00    +0.050 A 
ATOM     19  C   LIG    1      -38.428  75.147  24.896  0.00  0.00    +0.022 A 
ATOM     20  C   LIG    1      -37.414  75.973  25.421  0.00  0.00    +0.143 A 
ATOM     21  N   LIG    1      -37.784  77.252  25.507  0.00  0.00    -0.178 NA
ENDBRANCH  11  12
ENDBRANCH   9  11
ENDBRANCH   3   7
BRANCH   1  22
ATOM     22  C   LIG    1      -35.235  80.334  30.106  0.00  0.00    +0.197 C 
ATOM     23  O   LIG    1      -34.703  81.185  30.819  0.00  0.00    -0.287 OA
BRANCH  22  31
ATOM     24  N   LIG    1      -33.775  76.995  29.524  0.00  0.00    -0.329 N 
ATOM     25  C   LIG    1      -33.356  77.615  28.378  0.00  0.00    +0.145 A 
ATOM     26  N   LIG    1      -32.680  77.011  27.384  0.00  0.00    -0.218 NA
ATOM     27  C   LIG    1      -32.364  77.869  26.404  0.00  0.00    +0.223 A 
ATOM     28  N   LIG    1      -32.630  79.188  26.348  0.00  0.00    -0.243 NA
ATOM     29  C   LIG    1      -33.329  79.745  27.372  0.00  0.00    +0.124 A 
ATOM     30  C   LIG    1      -33.744  78.945  28.445  0.00  0.00    +0.048 A 
ATOM     31  C   LIG    1      -34.505  79.139  29.649  0.00  0.00    +0.051 A 
ATOM     32  C   LIG    1      -34.356  77.923  30.348  0.00  0.00    +0.100 A 
BRANCH  24  34
ATOM     33  C   LIG    1      -33.567  75.395  31.371  0.00  0.00    +0.030 C 
ATOM     34  C   LIG    1      -33.578  75.587  29.856  0.00  0.00    +0.083 C 
ATOM     35  C   LIG    1      -34.612  74.662  29.202  0.00  0.00    +0.030 C 
ENDBRANCH  24  34
ENDBRANCH  22  31
ENDBRANCH   1  22
TORSDOF 6
ENDMDL
MODEL 2
REMARK VINA RESULT:      -6.3      2.637      5.142
REMARK  Name = pdb/CHEMBL3639603.pdb
REMARK                            x       y       z     vdW  Elec       q    Type
REMARK                         _______ _______ _______ _____ _____    ______ ____
ROOT
ATOM      1  C   LIG    1      -34.044  74.680  29.853  0.00  0.00    +0.042 A 
ATOM      2  C   LIG    1      -34.817  74.525  28.692  0.00  0.00    +0.038 A 
ATOM      3  C   LIG    1      -35.104  73.250  28.192  0.00  0.00    +0.052 A 
ATOM      4  C   LIG    1      -34.595  72.156  28.892  0.00  0.00    +0.134 A 
ATOM      5  N   LIG    1      -33.818  72.257  29.990  0.00  0.00    -0.261 NA
ATOM      6  C   LIG    1      -33.530  73.507  30.413  0.00  0.00    +0.122 A 
ENDROOT
BRANCH   3   7
ATOM      7  N   LIG    1      -35.896  73.123  27.030  0.00  0.00    -0.283 N 
ATOM      8  H   LIG    1      -35.410  73.172  26.128  0.00  0.00    +0.155 HD
ATOM      9  C   LIG    1      -37.271  72.964  26.976  0.00  0.00    +0.239 C 
ATOM     10  O   LIG    1      -38.009  72.884  27.959  0.00  0.00    -0.273 OA
BRANCH   9  11
ATOM     11  C   LIG    1      -37.905  72.992  25.600  0.00  0.00    +0.240 C 
BRANCH  11  12
ATOM     12  N   LIG    1      -38.310  74.307  25.145  0.00  0.00    -0.255 N 
ATOM     13  C   LIG    1      -39.474  74.644  24.495  0.00  0.00    +0.070 A 
ATOM     14  C   LIG    1      -40.568  73.887  24.049  0.00  0.00    +0.031 A 
ATOM     15  C   LIG    1      -41.605  74.573  23.409  0.00  0.00    +0.040 A 
ATOM     16  C   LIG    1      -41.543  75.950  23.236  0.00  0.00    +0.124 A 
ATOM     17  F   LIG    1      -42.554  76.578  22.621  0.00  0.00    -0.205 F 
ATOM     18  C   LIG    1      -40.457  76.700  23.685  0.00  0.00    +0.050 A 
ATOM     19  C   LIG    1      -39.404  76.027  24.323  0.00  0.00    +0.022 A 
ATOM     20  C   LIG    1      -38.172  76.402  24.897  0.00  0.00    +0.143 A 
ATOM     21  N   LIG    1      -37.499  75.364  25.397  0.00  0.00    -0.178 NA
ENDBRANCH  11  12
ENDBRANCH   9  11
ENDBRANCH   3   7
BRANCH   1  22
ATOM     22  C   LIG    1      -33.752  76.049  30.422  0.00  0.00    +0.197 C 
ATOM     23  O   LIG    1      -33.361  76.137  31.586  0.00  0.00    -0.287 OA
BRANCH  22  31
ATOM     24  N   LIG    1      -34.653  79.289  28.903  0.00  0.00    -0.329 N 
ATOM     25  C   LIG    1      -33.722  78.875  27.989  0.00  0.00    +0.145 A 
ATOM     26  N   LIG    1      -33.308  79.601  26.935  0.00  0.00    -0.218 NA
ATOM     27  C   LIG    1      -32.420  78.931  26.186  0.00  0.00    +0.223 A 
ATOM     28  N   LIG    1      -31.961  77.680  26.378  0.00  0.00    -0.243 NA
ATOM     29  C   LIG    1      -32.400  76.996  27.468  0.00  0.00    +0.124 A 
ATOM     30  C   LIG    1      -33.309  77.599  28.346  0.00  0.00    +0.048 A 
ATOM     31  C   LIG    1      -33.955  77.239  29.579  0.00  0.00    +0.051 A 
ATOM     32  C   LIG    1      -34.892  78.272  29.790  0.00  0.00    +0.100 A 
BRANCH  24  34
ATOM     33  C   LIG    1      -36.818  80.392  29.231  0.00  0.00    +0.030 C 
ATOM     34  C   LIG    1      -35.339  80.578  28.902  0.00  0.00    +0.083 C 
ATOM     35  C   LIG    1      -34.700  81.602  29.847  0.00  0.00    +0.030 C 
ENDBRANCH  24  34
ENDBRANCH  22  31
ENDBRANCH   1  22
TORSDOF 6
ENDMDL
MODEL 3
REMARK VINA RESULT:      -6.1     16.885     20.112
REMARK  Name = pdb/CHEMBL3639603.pdb
REMARK                            x       y       z     vdW  Elec       q    Type
REMARK                         _______ _______ _______ _____ _____    ______ ____
ROOT
ATOM      1  C   LIG    1      -20.862  80.463  15.877  0.00  0.00    +0.042 A 
ATOM      2  C   LIG    1      -20.742  79.081  15.664  0.00  0.00    +0.038 A 
ATOM      3  C   LIG    1      -19.483  78.494  15.485  0.00  0.00    +0.052 A 
ATOM      4  C   LIG    1      -18.370  79.335  15.529  0.00  0.00    +0.134 A 
ATOM      5  N   LIG    1      -18.441  80.672  15.694  0.00  0.00    -0.261 NA
ATOM      6  C   LIG    1      -19.676  81.201  15.820  0.00  0.00    +0.122 A 
ENDROOT
BRANCH   3   7
ATOM      7  N   LIG    1      -19.391  77.099  15.286  0.00  0.00    -0.283 N 
ATOM      8  H   LIG    1      -19.747  76.731  14.398  0.00  0.00    +0.155 HD
ATOM      9  C   LIG    1      -18.889  76.166  16.178  0.00  0.00    +0.239 C 
ATOM     10  O   LIG    1      -18.419  76.432  17.285  0.00  0.00    -0.273 OA
BRANCH   9  11
ATOM     11  C   LIG    1      -19.027  74.709  15.786  0.00  0.00    +0.240 C 
BRANCH  11  12
ATOM     12  N   LIG    1      -19.273  73.804  16.892  0.00  0.00    -0.255 N 
ATOM     13  C   LIG    1      -20.481  73.510  17.477  0.00  0.00    +0.070 A 
ATOM     14  C   LIG    1      -21.786  73.975  17.251  0.00  0.00    +0.031 A 
ATOM     15  C   LIG    1      -22.803  73.447  18.054  0.00  0.00    +0.040 A 
ATOM     16  C   LIG    1      -22.518  72.495  19.025  0.00  0.00    +0.124 A 
ATOM     17  F   LIG    1      -23.515  72.008  19.775  0.00  0.00    -0.205 F 
ATOM     18  C   LIG    1      -21.221  72.031  19.242  0.00  0.00    +0.050 A 
ATOM     19  C   LIG    1      -20.188  72.556  18.452  0.00  0.00    +0.022 A 
ATOM     20  C   LIG    1      -18.794  72.362  18.362  0.00  0.00    +0.143 A 
ATOM     21  N   LIG    1      -18.228  73.118  17.419  0.00  0.00    -0.178 NA
ENDBRANCH  11  12
ENDBRANCH   9  11
ENDBRANCH   3   7
BRANCH   1  22
ATOM     22  C   LIG    1      -22.211  81.105  16.103  0.00  0.00    +0.197 C 
ATOM     23  O   LIG    1      -22.404  81.729  17.147  0.00  0.00    -0.287 OA
BRANCH  22  31
ATOM     24  N   LIG    1      -24.412  81.218  13.143  0.00  0.00    -0.329 N 
ATOM     25  C   LIG    1      -24.990  80.165  13.801  0.00  0.00    +0.145 A 
ATOM     26  N   LIG    1      -26.015  79.436  13.325  0.00  0.00    -0.218 NA
ATOM     27  C   LIG    1      -26.404  78.496  14.198  0.00  0.00    +0.223 A 
ATOM     28  N   LIG    1      -25.905  78.256  15.426  0.00  0.00    -0.243 NA
ATOM     29  C   LIG    1      -24.859  79.013  15.851  0.00  0.00    +0.124 A 
ATOM     30  C   LIG    1      -24.340  80.011  15.017  0.00  0.00    +0.048 A 
ATOM     31  C   LIG    1      -23.260  80.959  15.080  0.00  0.00    +0.051 A 
ATOM     32  C   LIG    1      -23.457  81.779  13.949  0.00  0.00    +0.100 A 
BRANCH  24  34
ATOM     33  C   LIG    1      -25.703  82.932  11.957  0.00  0.00    +0.030 C 
ATOM     34  C   LIG    1      -24.791  81.714  11.824  0.00  0.00    +0.083 C 
ATOM     35  C   LIG    1      -23.586  82.038  10.931  0.00  0.00    +0.030 C 
ENDBRANCH  24  34
ENDBRANCH  22  31
ENDBRANCH   1  22
TORSDOF 6
ENDMDL
MODEL 4
REMARK VINA RESULT:      -6.1      5.240      9.552
REMARK  Name = pdb/CHEMBL3639603.pdb
REMARK                            x       y       z     vdW  Elec       q    Type
REMARK                         _______ _______ _______ _____ _____    ______ ____
ROOT
ATOM      1  C   LIG    1      -39.612  71.827  24.449  0.00  0.00    +0.042 A 
ATOM      2  C   LIG    1      -38.607  72.687  24.917  0.00  0.00    +0.038 A 
ATOM      3  C   LIG    1      -38.709  74.071  24.731  0.00  0.00    +0.052 A 
ATOM      4  C   LIG    1      -39.840  74.548  24.069  0.00  0.00    +0.134 A 
ATOM      5  N   LIG    1      -40.813  73.757  23.570  0.00  0.00    -0.261 NA
ATOM      6  C   LIG    1      -40.653  72.427  23.734  0.00  0.00    +0.122 A 
ENDROOT
BRANCH   3   7
ATOM      7  N   LIG    1      -37.689  74.914  25.224  0.00  0.00    -0.283 N 
ATOM      8  H   LIG    1      -36.777  74.862  24.759  0.00  0.00    +0.155 HD
ATOM      9  C   LIG    1      -37.783  75.792  26.291  0.00  0.00    +0.239 C 
ATOM     10  O   LIG    1      -38.800  75.982  26.960  0.00  0.00    -0.273 OA
BRANCH   9  11
ATOM     11  C   LIG    1      -36.504  76.485  26.716  0.00  0.00    +0.240 C 
BRANCH  11  12
ATOM     12  N   LIG    1      -35.565  75.644  27.431  0.00  0.00    -0.255 N 
ATOM     13  C   LIG    1      -34.310  75.985  27.875  0.00  0.00    +0.070 A 
ATOM     14  C   LIG    1      -33.547  77.158  27.765  0.00  0.00    +0.031 A 
ATOM     15  C   LIG    1      -32.276  77.155  28.349  0.00  0.00    +0.040 A 
ATOM     16  C   LIG    1      -31.805  76.030  29.015  0.00  0.00    +0.124 A 
ATOM     17  F   LIG    1      -30.584  76.060  29.565  0.00  0.00    -0.205 F 
ATOM     18  C   LIG    1      -32.567  74.868  29.127  0.00  0.00    +0.050 A 
ATOM     19  C   LIG    1      -33.842  74.851  28.540  0.00  0.00    +0.022 A 
ATOM     20  C   LIG    1      -34.885  73.909  28.429  0.00  0.00    +0.143 A 
ATOM     21  N   LIG    1      -35.936  74.380  27.755  0.00  0.00    -0.178 NA
ENDBRANCH  11  12
ENDBRANCH   9  11
ENDBRANCH   3   7
BRANCH   1  22
ATOM     22  C   LIG    1      -39.530  70.335  24.670  0.00  0.00    +0.197 C 
ATOM     23  O   LIG    1      -40.379  69.792  25.379  0.00  0.00    -0.287 OA
BRANCH  22  31
ATOM     24  N   LIG    1      -37.181  68.526  22.474  0.00  0.00    -0.329 N 
ATOM     25  C   LIG    1      -36.404  68.607  23.598  0.00  0.00    +0.145 A 
ATOM     26  N   LIG    1      -35.135  68.170  23.685  0.00  0.00    -0.218 NA
ATOM     27  C   LIG    1      -34.633  68.340  24.917  0.00  0.00    +0.223 A 
ATOM     28  N   LIG    1      -35.255  68.854  25.995  0.00  0.00    -0.243 NA
ATOM     29  C   LIG    1      -36.533  69.294  25.848  0.00  0.00    +0.124 A 
ATOM     30  C   LIG    1      -37.161  69.198  24.599  0.00  0.00    +0.048 A 
ATOM     31  C   LIG    1      -38.435  69.572  24.048  0.00  0.00    +0.051 A 
ATOM     32  C   LIG    1      -38.437  68.987  22.764  0.00  0.00    +0.100 A 
BRANCH  24  34
ATOM     33  C   LIG    1      -36.991  66.463  21.161  0.00  0.00    +0.030 C 
ATOM     34  C   LIG    1      -36.768  67.974  21.187  0.00  0.00    +0.083 C 
ATOM     35  C   LIG    1      -37.461  68.643  19.993  0.00  0.00    +0.030 C 
ENDBRANCH  24  34
ENDBRANCH  22  31
ENDBRANCH   1  22
TORSDOF 6
ENDMDL
MODEL 5
REMARK VINA RESULT:      -6.0     13.601     17.695
REMARK  Name = pdb/CHEMBL3639603.pdb
REMARK                            x       y       z     vdW  Elec       q    Type
REMARK                         _______ _______ _______ _____ _____    ______ ____
ROOT
ATOM      1  C   LIG    1      -22.950  77.014  30.560  0.00  0.00    +0.042 A 
ATOM      2  C   LIG    1      -23.084  77.573  31.840  0.00  0.00    +0.038 A 
ATOM      3  C   LIG    1      -24.346  77.919  32.338  0.00  0.00    +0.052 A 
ATOM      4  C   LIG    1      -25.448  77.686  31.514  0.00  0.00    +0.134 A 
ATOM      5  N   LIG    1      -25.363  77.186  30.264  0.00  0.00    -0.261 NA
ATOM      6  C   LIG    1      -24.124  76.906  29.808  0.00  0.00    +0.122 A 
ENDROOT
BRANCH   3   7
ATOM      7  N   LIG    1      -24.453  78.467  33.635  0.00  0.00    -0.283 N 
ATOM      8  H   LIG    1      -24.257  79.468  33.735  0.00  0.00    +0.155 HD
ATOM      9  C   LIG    1      -24.773  77.788  34.798  0.00  0.00    +0.239 C 
ATOM     10  O   LIG    1      -25.040  76.586  34.861  0.00  0.00    -0.273 OA
BRANCH   9  11
ATOM     11  C   LIG    1      -24.687  78.573  36.091  0.00  0.00    +0.240 C 
BRANCH  11  12
ATOM     12  N   LIG    1      -23.700  79.635  36.092  0.00  0.00    -0.255 N 
ATOM     13  C   LIG    1      -22.360  79.528  36.383  0.00  0.00    +0.070 A 
ATOM     14  C   LIG    1      -21.556  78.450  36.784  0.00  0.00    +0.031 A 
ATOM     15  C   LIG    1      -20.198  78.707  36.999  0.00  0.00    +0.040 A 
ATOM     16  C   LIG    1      -19.680  79.982  36.811  0.00  0.00    +0.124 A 
ATOM     17  F   LIG    1      -18.375  80.195  37.023  0.00  0.00    -0.205 F 
ATOM     18  C   LIG    1      -20.480  81.050  36.406  0.00  0.00    +0.050 A 
ATOM     19  C   LIG    1      -21.847  80.811  36.194  0.00  0.00    +0.022 A 
ATOM     20  C   LIG    1      -22.954  81.591  35.800  0.00  0.00    +0.143 A 
ATOM     21  N   LIG    1      -24.084  80.885  35.737  0.00  0.00    -0.178 NA
ENDBRANCH  11  12
ENDBRANCH   9  11
ENDBRANCH   3   7
BRANCH   1  22
ATOM     22  C   LIG    1      -21.598  76.606  30.022  0.00  0.00    +0.197 C 
ATOM     23  O   LIG    1      -21.467  76.443  28.809  0.00  0.00    -0.287 OA
BRANCH  22  31
ATOM     24  N   LIG    1      -18.647  76.817  32.227  0.00  0.00    -0.329 N 
ATOM     25  C   LIG    1      -19.131  75.603  32.633  0.00  0.00    +0.145 A 
ATOM     26  N   LIG    1      -18.606  74.862  33.624  0.00  0.00    -0.218 NA
ATOM     27  C   LIG    1      -19.258  73.701  33.778  0.00  0.00    +0.223 A 
ATOM     28  N   LIG    1      -20.303  73.243  33.061  0.00  0.00    -0.243 NA
ATOM     29  C   LIG    1      -20.805  74.040  32.080  0.00  0.00    +0.124 A 
ATOM     30  C   LIG    1      -20.228  75.294  31.840  0.00  0.00    +0.048 A 
ATOM     31  C   LIG    1      -20.481  76.400  30.959  0.00  0.00    +0.051 A 
ATOM     32  C   LIG    1      -19.370  77.249  31.146  0.00  0.00    +0.100 A 
BRANCH  24  34
ATOM     33  C   LIG    1      -16.875  78.449  31.767  0.00  0.00    +0.030 C 
ATOM     34  C   LIG    1      -17.501  77.517  32.801  0.00  0.00    +0.083 C 
ATOM     35  C   LIG    1      -17.845  78.286  34.083  0.00  0.00    +0.030 C 
ENDBRANCH  24  34
ENDBRANCH  22  31
ENDBRANCH   1  22
TORSDOF 6
ENDMDL
MODEL 6
REMARK VINA RESULT:      -5.9      5.269      9.132
REMARK  Name = pdb/CHEMBL3639603.pdb
REMARK                            x       y       z     vdW  Elec       q    Type
REMARK                         _______ _______ _______ _____ _____    ______ ____
ROOT
ATOM      1  C   LIG    1      -39.368  71.823  24.351  0.00  0.00    +0.042 A 
ATOM      2  C   LIG    1      -38.368  72.689  24.818  0.00  0.00    +0.038 A 
ATOM      3  C   LIG    1      -38.546  74.077  24.767  0.00  0.00    +0.052 A 
ATOM      4  C   LIG    1      -39.747  74.552  24.239  0.00  0.00    +0.134 A 
ATOM      5  N   LIG    1      -40.720  73.758  23.745  0.00  0.00    -0.261 NA
ATOM      6  C   LIG    1      -40.488  72.429  23.774  0.00  0.00    +0.122 A 
ENDROOT
BRANCH   3   7
ATOM      7  N   LIG    1      -37.528  74.925  25.257  0.00  0.00    -0.283 N 
ATOM      8  H   LIG    1      -36.637  74.924  24.750  0.00  0.00    +0.155 HD
ATOM      9  C   LIG    1      -37.597  75.745  26.371  0.00  0.00    +0.239 C 
ATOM     10  O   LIG    1      -38.588  75.871  27.093  0.00  0.00    -0.273 OA
BRANCH   9  11
ATOM     11  C   LIG    1      -36.320  76.455  26.772  0.00  0.00    +0.240 C 
BRANCH  11  12
ATOM     12  N   LIG    1      -35.374  75.636  27.504  0.00  0.00    -0.255 N 
ATOM     13  C   LIG    1      -34.131  76.004  27.961  0.00  0.00    +0.070 A 
ATOM     14  C   LIG    1      -33.390  77.191  27.854  0.00  0.00    +0.031 A 
ATOM     15  C   LIG    1      -32.127  77.215  28.454  0.00  0.00    +0.040 A 
ATOM     16  C   LIG    1      -31.642  76.103  29.131  0.00  0.00    +0.124 A 
ATOM     17  F   LIG    1      -30.429  76.160  29.696  0.00  0.00    -0.205 F 
ATOM     18  C   LIG    1      -32.382  74.927  29.240  0.00  0.00    +0.050 A 
ATOM     19  C   LIG    1      -33.649  74.882  28.638  0.00  0.00    +0.022 A 
ATOM     20  C   LIG    1      -34.672  73.919  28.518  0.00  0.00    +0.143 A 
ATOM     21  N   LIG    1      -35.723  74.367  27.829  0.00  0.00    -0.178 NA
ENDBRANCH  11  12
ENDBRANCH   9  11
ENDBRANCH   3   7
BRANCH   1  22
ATOM     22  C   LIG    1      -39.203  70.323  24.428  0.00  0.00    +0.197 C 
ATOM     23  O   LIG    1      -40.206  69.612  24.373  0.00  0.00    -0.287 OA
BRANCH  22  31
ATOM     24  N   LIG    1      -35.931  69.034  25.546  0.00  0.00    -0.329 N 
ATOM     25  C   LIG    1      -35.914  68.572  24.257  0.00  0.00    +0.145 A 
ATOM     26  N   LIG    1      -34.941  67.810  23.730  0.00  0.00    -0.218 NA
ATOM     27  C   LIG    1      -35.165  67.539  22.436  0.00  0.00    +0.223 A 
ATOM     28  N   LIG    1      -36.197  67.955  21.676  0.00  0.00    -0.243 NA
ATOM     29  C   LIG    1      -37.162  68.711  22.263  0.00  0.00    +0.124 A 
ATOM     30  C   LIG    1      -37.057  69.038  23.622  0.00  0.00    +0.048 A 
ATOM     31  C   LIG    1      -37.854  69.753  24.581  0.00  0.00    +0.051 A 
ATOM     32  C   LIG    1      -37.024  69.842  25.718  0.00  0.00    +0.100 A 
BRANCH  24  34
ATOM     33  C   LIG    1      -34.203  70.064  26.949  0.00  0.00    +0.030 C 
ATOM     34  C   LIG    1      -34.917  68.770  26.562  0.00  0.00    +0.083 C 
ATOM     35  C   LIG    1      -35.477  68.070  27.807  0.00  0.00    +0.030 C 
ENDBRANCH  24  34
ENDBRANCH  22  31
ENDBRANCH   1  22
TORSDOF 6
ENDMDL
MODEL 7
REMARK VINA RESULT:      -5.8      6.743      8.862
REMARK  Name = pdb/CHEMBL3639603.pdb
REMARK                            x       y       z     vdW  Elec       q    Type
REMARK                         _______ _______ _______ _____ _____    ______ ____
ROOT
ATOM      1  C   LIG    1      -32.795  85.706  30.488  0.00  0.00    +0.042 A 
ATOM      2  C   LIG    1      -33.124  84.463  29.927  0.00  0.00    +0.038 A 
ATOM      3  C   LIG    1      -34.447  84.169  29.571  0.00  0.00    +0.052 A 
ATOM      4  C   LIG    1      -35.407  85.156  29.797  0.00  0.00    +0.134 A 
ATOM      5  N   LIG    1      -35.142  86.350  30.368  0.00  0.00    -0.261 NA
ATOM      6  C   LIG    1      -33.862  86.574  30.733  0.00  0.00    +0.122 A 
ENDROOT
BRANCH   3   7
ATOM      7  N   LIG    1      -34.748  82.915  28.995  0.00  0.00    -0.283 N 
ATOM      8  H   LIG    1      -34.896  82.893  27.981  0.00  0.00    +0.155 HD
ATOM      9  C   LIG    1      -34.888  81.709  29.661  0.00  0.00    +0.239 C 
ATOM     10  O   LIG    1      -34.743  81.554  30.874  0.00  0.00    -0.273 OA
BRANCH   9  11
ATOM     11  C   LIG    1      -35.351  80.527  28.835  0.00  0.00    +0.240 C 
BRANCH  11  12
ATOM     12  N   LIG    1      -34.284  79.731  28.260  0.00  0.00    -0.255 N 
ATOM     13  C   LIG    1      -33.794  78.533  28.724  0.00  0.00    +0.070 A 
ATOM     14  C   LIG    1      -34.105  77.747  29.844  0.00  0.00    +0.031 A 
ATOM     15  C   LIG    1      -33.388  76.557  30.011  0.00  0.00    +0.040 A 
ATOM     16  C   LIG    1      -32.418  76.180  29.092  0.00  0.00    +0.124 A 
ATOM     17  F   LIG    1      -31.751  75.033  29.281  0.00  0.00    -0.205 F 
ATOM     18  C   LIG    1      -32.116  76.960  27.977  0.00  0.00    +0.050 A 
ATOM     19  C   LIG    1      -32.819  78.160  27.798  0.00  0.00    +0.022 A 
ATOM     20  C   LIG    1      -32.812  79.197  26.842  0.00  0.00    +0.143 A 
ATOM     21  N   LIG    1      -33.697  80.157  27.115  0.00  0.00    -0.178 NA
ENDBRANCH  11  12
ENDBRANCH   9  11
ENDBRANCH   3   7
BRANCH   1  22
ATOM     22  C   LIG    1      -31.368  86.048  30.847  0.00  0.00    +0.197 C 
ATOM     23  O   LIG    1      -30.539  86.164  29.943  0.00  0.00    -0.287 OA
BRANCH  22  31
ATOM     24  N   LIG    1      -30.635  85.751  34.451  0.00  0.00    -0.329 N 
ATOM     25  C   LIG    1      -30.074  86.977  34.219  0.00  0.00    +0.145 A 
ATOM     26  N   LIG    1      -29.411  87.702  35.137  0.00  0.00    -0.218 NA
ATOM     27  C   LIG    1      -29.005  88.881  34.644  0.00  0.00    +0.223 A 
ATOM     28  N   LIG    1      -29.210  89.368  33.406  0.00  0.00    -0.243 NA
ATOM     29  C   LIG    1      -29.874  88.588  32.511  0.00  0.00    +0.124 A 
ATOM     30  C   LIG    1      -30.325  87.319  32.898  0.00  0.00    +0.048 A 
ATOM     31  C   LIG    1      -31.001  86.221  32.262  0.00  0.00    +0.051 A 
ATOM     32  C   LIG    1      -31.298  85.341  33.324  0.00  0.00    +0.100 A 
BRANCH  24  34
ATOM     33  C   LIG    1      -31.872  84.193  35.886  0.00  0.00    +0.030 C 
ATOM     34  C   LIG    1      -30.599  85.018  35.713  0.00  0.00    +0.083 C 
ATOM     35  C   LIG    1      -29.356  84.131  35.860  0.00  0.00    +0.030 C 
ENDBRANCH  24  34
ENDBRANCH  22  31
ENDBRANCH   1  22
TORSDOF 6
ENDMDL
MODEL 8
REMARK VINA RESULT:      -5.7     13.058     16.874
REMARK  Name = pdb/CHEMBL3639603.pdb
REMARK                            x       y       z     vdW  Elec       q    Type
REMARK                         _______ _______ _______ _____ _____    ______ ____
ROOT
ATOM      1  C   LIG    1      -18.864  77.900  32.306  0.00  0.00    +0.042 A 
ATOM      2  C   LIG    1      -20.209  78.027  31.928  0.00  0.00    +0.038 A 
ATOM      3  C   LIG    1      -20.662  77.499  30.713  0.00  0.00    +0.052 A 
ATOM      4  C   LIG    1      -19.727  76.850  29.907  0.00  0.00    +0.134 A 
ATOM      5  N   LIG    1      -18.417  76.736  30.212  0.00  0.00    -0.261 NA
ATOM      6  C   LIG    1      -18.016  77.297  31.373  0.00  0.00    +0.122 A 
ENDROOT
BRANCH   3   7
ATOM      7  N   LIG    1      -22.024  77.630  30.365  0.00  0.00    -0.283 N 
ATOM      8  H   LIG    1      -22.338  78.555  30.053  0.00  0.00    +0.155 HD
ATOM      9  C   LIG    1      -22.993  76.642  30.422  0.00  0.00    +0.239 C 
ATOM     10  O   LIG    1      -22.792  75.477  30.771  0.00  0.00    -0.273 OA
BRANCH   9  11
ATOM     11  C   LIG    1      -24.417  77.068  30.128  0.00  0.00    +0.240 C 
BRANCH  11  12
ATOM     12  N   LIG    1      -25.324  76.974  31.255  0.00  0.00    -0.255 N 
ATOM     13  C   LIG    1      -25.187  77.565  32.488  0.00  0.00    +0.070 A 
ATOM     14  C   LIG    1      -24.184  78.367  33.054  0.00  0.00    +0.031 A 
ATOM     15  C   LIG    1      -24.376  78.804  34.369  0.00  0.00    +0.040 A 
ATOM     16  C   LIG    1      -25.522  78.455  35.071  0.00  0.00    +0.124 A 
ATOM     17  F   LIG    1      -25.676  78.891  36.328  0.00  0.00    -0.205 F 
ATOM     18  C   LIG    1      -26.520  77.662  34.505  0.00  0.00    +0.050 A 
ATOM     19  C   LIG    1      -26.340  77.209  33.189  0.00  0.00    +0.022 A 
ATOM     20  C   LIG    1      -27.081  76.415  32.290  0.00  0.00    +0.143 A 
ATOM     21  N   LIG    1      -26.471  76.264  31.113  0.00  0.00    -0.178 NA
ENDBRANCH  11  12
ENDBRANCH   9  11
ENDBRANCH   3   7
BRANCH   1  22
ATOM     22  C   LIG    1      -18.368  78.437  33.628  0.00  0.00    +0.197 C 
ATOM     23  O   LIG    1      -17.163  78.643  33.771  0.00  0.00    -0.287 OA
BRANCH  22  31
ATOM     24  N   LIG    1      -20.833  79.748  36.041  0.00  0.00    -0.329 N 
ATOM     25  C   LIG    1      -20.891  78.422  36.376  0.00  0.00    +0.145 A 
ATOM     26  N   LIG    1      -21.723  77.899  37.293  0.00  0.00    -0.218 NA
ATOM     27  C   LIG    1      -21.533  76.580  37.444  0.00  0.00    +0.223 A 
ATOM     28  N   LIG    1      -20.631  75.802  36.816  0.00  0.00    -0.243 NA
ATOM     29  C   LIG    1      -19.824  76.379  35.887  0.00  0.00    +0.124 A 
ATOM     30  C   LIG    1      -19.946  77.748  35.615  0.00  0.00    +0.048 A 
ATOM     31  C   LIG    1      -19.332  78.685  34.714  0.00  0.00    +0.051 A 
ATOM     32  C   LIG    1      -19.822  79.938  35.137  0.00  0.00    +0.100 A 
BRANCH  24  34
ATOM     33  C   LIG    1      -20.852  81.666  37.568  0.00  0.00    +0.030 C 
ATOM     34  C   LIG    1      -21.665  80.808  36.602  0.00  0.00    +0.083 C 
ATOM     35  C   LIG    1      -22.331  81.683  35.533  0.00  0.00    +0.030 C 
ENDBRANCH  24  34
ENDBRANCH  22  31
ENDBRANCH   1  22
TORSDOF 6
ENDMDL
MODEL 9
REMARK VINA RESULT:      -5.7     17.171     20.260
REMARK  Name = pdb/CHEMBL3639603.pdb
REMARK                            x       y       z     vdW  Elec       q    Type
REMARK                         _______ _______ _______ _____ _____    ______ ____
ROOT
ATOM      1  C   LIG    1      -19.635  77.594  15.127  0.00  0.00    +0.042 A 
ATOM      2  C   LIG    1      -19.586  76.298  15.661  0.00  0.00    +0.038 A 
ATOM      3  C   LIG    1      -18.594  75.945  16.584  0.00  0.00    +0.052 A 
ATOM      4  C   LIG    1      -17.672  76.927  16.943  0.00  0.00    +0.134 A 
ATOM      5  N   LIG    1      -17.658  78.175  16.428  0.00  0.00    -0.261 NA
ATOM      6  C   LIG    1      -18.606  78.459  15.510  0.00  0.00    +0.122 A 
ENDROOT
BRANCH   3   7
ATOM      7  N   LIG    1      -18.577  74.637  17.116  0.00  0.00    -0.283 N 
ATOM      8  H   LIG    1      -18.788  73.869  16.470  0.00  0.00    +0.155 HD
ATOM      9  C   LIG    1      -18.328  74.279  18.430  0.00  0.00    +0.239 C 
ATOM     10  O   LIG    1      -18.056  75.070  19.336  0.00  0.00    -0.273 OA
BRANCH   9  11
ATOM     11  C   LIG    1      -18.505  72.817  18.783  0.00  0.00    +0.240 C 
BRANCH  11  12
ATOM     12  N   LIG    1      -19.460  72.104  17.956  0.00  0.00    -0.255 N 
ATOM     13  C   LIG    1      -20.824  72.053  18.113  0.00  0.00    +0.070 A 
ATOM     14  C   LIG    1      -21.694  72.598  19.070  0.00  0.00    +0.031 A 
ATOM     15  C   LIG    1      -23.060  72.338  18.918  0.00  0.00    +0.040 A 
ATOM     16  C   LIG    1      -23.522  71.576  17.852  0.00  0.00    +0.124 A 
ATOM     17  F   LIG    1      -24.837  71.347  17.735  0.00  0.00    -0.205 F 
ATOM     18  C   LIG    1      -22.656  71.041  16.900  0.00  0.00    +0.050 A 
ATOM     19  C   LIG    1      -21.282  71.285  17.041  0.00  0.00    +0.022 A 
ATOM     20  C   LIG    1      -20.120  70.935  16.324  0.00  0.00    +0.143 A 
ATOM     21  N   LIG    1      -19.007  71.425  16.873  0.00  0.00    -0.178 NA
ENDBRANCH  11  12
ENDBRANCH   9  11
ENDBRANCH   3   7
BRANCH   1  22
ATOM     22  C   LIG    1      -20.718  77.999  14.154  0.00  0.00    +0.197 C 
ATOM     23  O   LIG    1      -20.683  77.554  13.007  0.00  0.00    -0.287 OA
BRANCH  22  31
ATOM     24  N   LIG    1      -22.838  80.846  15.163  0.00  0.00    -0.329 N 
ATOM     25  C   LIG    1      -23.807  79.883  15.062  0.00  0.00    +0.145 A 
ATOM     26  N   LIG    1      -25.122  80.099  15.236  0.00  0.00    -0.218 NA
ATOM     27  C   LIG    1      -25.833  78.968  15.117  0.00  0.00    +0.223 A 
ATOM     28  N   LIG    1      -25.369  77.727  14.877  0.00  0.00    -0.243 NA
ATOM     29  C   LIG    1      -24.031  77.567  14.694  0.00  0.00    +0.124 A 
ATOM     30  C   LIG    1      -23.183  78.680  14.764  0.00  0.00    +0.048 A 
ATOM     31  C   LIG    1      -21.776  78.924  14.595  0.00  0.00    +0.051 A 
ATOM     32  C   LIG    1      -21.609  80.262  15.008  0.00  0.00    +0.100 A 
BRANCH  24  34
ATOM     33  C   LIG    1      -22.451  82.622  16.809  0.00  0.00    +0.030 C 
ATOM     34  C   LIG    1      -23.064  82.257  15.459  0.00  0.00    +0.083 C 
ATOM     35  C   LIG    1      -22.546  83.194  14.360  0.00  0.00    +0.030 C 
ENDBRANCH  24  34
ENDBRANCH  22  31
ENDBRANCH   1  22
TORSDOF 6
ENDMDL
