MODEL 1
REMARK VINA RESULT:      -6.8      0.000      0.000
REMARK  Name = pdb/CHEMBL3964207.pdb
REMARK                            x       y       z     vdW  Elec       q    Type
REMARK                         _______ _______ _______ _____ _____    ______ ____
ROOT
ATOM      1  C   LIG    1      -34.007  76.452  27.573  0.00  0.00    +0.133 A 
ATOM      2  C   LIG    1      -35.366  76.267  27.415  0.00  0.00    +0.183 A 
ATOM      3  N   LIG    1      -36.301  76.752  26.525  0.00  0.00    -0.211 NA
ATOM      4  C   LIG    1      -37.573  76.455  26.703  0.00  0.00    +0.126 A 
ATOM      5  C   LIG    1      -38.010  75.541  27.829  0.00  0.00    +0.063 A 
ATOM      6  C   LIG    1      -37.063  75.091  28.666  0.00  0.00    +0.118 A 
ATOM      7  N   LIG    1      -35.737  75.450  28.485  0.00  0.00    -0.220 N 
ATOM      8  N   LIG    1      -34.684  75.105  29.277  0.00  0.00    -0.171 NA
ATOM      9  C   LIG    1      -33.653  75.763  28.742  0.00  0.00    +0.165 A 
ENDROOT
BRANCH   4  10
ATOM     10  N   LIG    1      -38.540  77.022  25.859  0.00  0.00    -0.308 N 
ATOM     11  C   LIG    1      -38.653  76.661  24.429  0.00  0.00    +0.107 C 
ATOM     12  C   LIG    1      -38.876  78.011  23.719  0.00  0.00    +0.029 C 
ATOM     13  C   LIG    1      -39.628  78.832  24.748  0.00  0.00    +0.021 C 
ATOM     14  C   LIG    1      -38.933  78.435  26.044  0.00  0.00    +0.107 C 
BRANCH  11  15
ATOM     15  C   LIG    1      -39.764  75.658  24.119  0.00  0.00    -0.006 A 
ATOM     16  C   LIG    1      -39.543  74.271  24.269  0.00  0.00    +0.046 A 
ATOM     17 CL   LIG    1      -38.023  73.637  24.803  0.00  0.00    -0.083 Cl
ATOM     18  C   LIG    1      -40.544  73.331  23.981  0.00  0.00    +0.023 A 
ATOM     19  C   LIG    1      -41.786  73.751  23.516  0.00  0.00    +0.040 A 
ATOM     20  C   LIG    1      -42.012  75.107  23.334  0.00  0.00    +0.124 A 
ATOM     21  F   LIG    1      -43.198  75.510  22.857  0.00  0.00    -0.205 F 
ATOM     22  C   LIG    1      -41.026  76.055  23.630  0.00  0.00    +0.045 A 
ENDBRANCH  11  15
ENDBRANCH   4  10
BRANCH   1  24
ATOM     23  C   LIG    1      -33.302  78.572  26.963  0.00  0.00    +0.283 C 
ATOM     24  N   LIG    1      -33.215  77.310  26.806  0.00  0.00    -0.194 NA
BRANCH  23  27
ATOM     25  C   LIG    1      -34.978  80.288  29.817  0.00  0.00    +0.133 C 
ATOM     26  C   LIG    1      -34.058  79.172  29.295  0.00  0.00    +0.140 C 
ATOM     27  N   LIG    1      -33.932  79.418  27.857  0.00  0.00    -0.283 N 
ATOM     28  C   LIG    1      -34.626  80.652  27.493  0.00  0.00    +0.112 C 
ATOM     29  C   LIG    1      -34.767  81.408  28.815  0.00  0.00    +0.052 C 
BRANCH  25  30
ATOM     30  O   LIG    1      -34.660  80.701  31.135  0.00  0.00    -0.390 OA
ATOM     31  H   LIG    1      -33.883  81.287  31.083  0.00  0.00    +0.210 HD
ENDBRANCH  25  30
ENDBRANCH  23  27
BRANCH  23  32
ATOM     32  O   LIG    1      -32.609  79.289  26.057  0.00  0.00    -0.481 OA
ATOM     33  H   LIG    1      -32.704  78.927  25.175  0.00  0.00    +0.295 HD
ENDBRANCH  23  32
ENDBRANCH   1  24
TORSDOF 6
ENDMDL
MODEL 2
REMARK VINA RESULT:      -6.7     13.692     17.454
REMARK  Name = pdb/CHEMBL3964207.pdb
REMARK                            x       y       z     vdW  Elec       q    Type
REMARK                         _______ _______ _______ _____ _____    ______ ____
ROOT
ATOM      1  C   LIG    1      -26.168  77.184  32.825  0.00  0.00    +0.133 A 
ATOM      2  C   LIG    1      -25.364  77.700  33.823  0.00  0.00    +0.183 A 
ATOM      3  N   LIG    1      -24.354  78.638  33.849  0.00  0.00    -0.211 NA
ATOM      4  C   LIG    1      -23.697  78.844  34.974  0.00  0.00    +0.126 A 
ATOM      5  C   LIG    1      -24.081  78.115  36.245  0.00  0.00    +0.063 A 
ATOM      6  C   LIG    1      -25.073  77.216  36.170  0.00  0.00    +0.118 A 
ATOM      7  N   LIG    1      -25.722  76.983  34.967  0.00  0.00    -0.220 N 
ATOM      8  N   LIG    1      -26.710  76.077  34.736  0.00  0.00    -0.171 NA
ATOM      9  C   LIG    1      -26.933  76.173  33.423  0.00  0.00    +0.165 A 
ENDROOT
BRANCH   4  10
ATOM     10  N   LIG    1      -22.605  79.726  34.985  0.00  0.00    -0.308 N 
ATOM     11  C   LIG    1      -21.290  79.351  35.548  0.00  0.00    +0.107 C 
ATOM     12  C   LIG    1      -20.857  80.596  36.346  0.00  0.00    +0.029 C 
ATOM     13  C   LIG    1      -21.480  81.745  35.577  0.00  0.00    +0.021 C 
ATOM     14  C   LIG    1      -22.837  81.171  35.190  0.00  0.00    +0.107 C 
BRANCH  11  15
ATOM     15  C   LIG    1      -20.250  78.948  34.502  0.00  0.00    -0.006 A 
ATOM     16  C   LIG    1      -18.902  78.741  34.873  0.00  0.00    +0.046 A 
ATOM     17 CL   LIG    1      -18.360  78.930  36.506  0.00  0.00    -0.083 Cl
ATOM     18  C   LIG    1      -17.928  78.380  33.930  0.00  0.00    +0.023 A 
ATOM     19  C   LIG    1      -18.270  78.237  32.589  0.00  0.00    +0.040 A 
ATOM     20  C   LIG    1      -19.582  78.466  32.202  0.00  0.00    +0.124 A 
ATOM     21  F   LIG    1      -19.905  78.358  30.906  0.00  0.00    -0.205 F 
ATOM     22  C   LIG    1      -20.566  78.814  33.135  0.00  0.00    +0.045 A 
ENDBRANCH  11  15
ENDBRANCH   4  10
BRANCH   1  24
ATOM     23  C   LIG    1      -25.107  77.062  30.770  0.00  0.00    +0.283 C 
ATOM     24  N   LIG    1      -26.076  77.506  31.469  0.00  0.00    -0.194 NA
BRANCH  23  27
ATOM     25  C   LIG    1      -21.913  75.172  31.117  0.00  0.00    +0.133 C 
ATOM     26  C   LIG    1      -22.668  76.511  31.108  0.00  0.00    +0.140 C 
ATOM     27  N   LIG    1      -24.081  76.156  30.962  0.00  0.00    -0.283 N 
ATOM     28  C   LIG    1      -24.242  74.703  30.981  0.00  0.00    +0.112 C 
ATOM     29  C   LIG    1      -22.954  74.191  31.629  0.00  0.00    +0.052 C 
BRANCH  25  30
ATOM     30  O   LIG    1      -20.762  75.186  31.943  0.00  0.00    -0.390 OA
ATOM     31  H   LIG    1      -20.257  74.373  31.763  0.00  0.00    +0.210 HD
ENDBRANCH  25  30
ENDBRANCH  23  27
BRANCH  23  32
ATOM     32  O   LIG    1      -25.047  77.573  29.525  0.00  0.00    -0.481 OA
ATOM     33  H   LIG    1      -25.686  78.276  29.401  0.00  0.00    +0.295 HD
ENDBRANCH  23  32
ENDBRANCH   1  24
TORSDOF 6
ENDMDL
MODEL 3
REMARK VINA RESULT:      -6.5      2.043      3.234
REMARK  Name = pdb/CHEMBL3964207.pdb
REMARK                            x       y       z     vdW  Elec       q    Type
REMARK                         _______ _______ _______ _____ _____    ______ ____
ROOT
ATOM      1  C   LIG    1      -35.089  79.609  28.243  0.00  0.00    +0.133 A 
ATOM      2  C   LIG    1      -36.429  79.306  28.103  0.00  0.00    +0.183 A 
ATOM      3  N   LIG    1      -37.228  78.971  27.030  0.00  0.00    -0.211 NA
ATOM      4  C   LIG    1      -38.527  78.833  27.215  0.00  0.00    +0.126 A 
ATOM      5  C   LIG    1      -39.138  78.973  28.594  0.00  0.00    +0.063 A 
ATOM      6  C   LIG    1      -38.319  79.295  29.606  0.00  0.00    +0.118 A 
ATOM      7  N   LIG    1      -36.963  79.478  29.382  0.00  0.00    -0.220 N 
ATOM      8  N   LIG    1      -36.028  79.846  30.301  0.00  0.00    -0.171 NA
ATOM      9  C   LIG    1      -34.908  79.973  29.584  0.00  0.00    +0.165 A 
ENDROOT
BRANCH   4  10
ATOM     10  N   LIG    1      -39.359  78.587  26.111  0.00  0.00    -0.308 N 
ATOM     11  C   LIG    1      -38.849  78.013  24.848  0.00  0.00    +0.107 C 
ATOM     12  C   LIG    1      -39.543  78.846  23.752  0.00  0.00    +0.029 C 
ATOM     13  C   LIG    1      -40.873  79.217  24.378  0.00  0.00    +0.021 C 
ATOM     14  C   LIG    1      -40.476  79.509  25.820  0.00  0.00    +0.107 C 
BRANCH  11  15
ATOM     15  C   LIG    1      -39.114  76.516  24.685  0.00  0.00    -0.006 A 
ATOM     16  C   LIG    1      -38.179  75.566  25.154  0.00  0.00    +0.046 A 
ATOM     17 CL   LIG    1      -36.703  76.036  25.928  0.00  0.00    -0.083 Cl
ATOM     18  C   LIG    1      -38.394  74.187  25.008  0.00  0.00    +0.023 A 
ATOM     19  C   LIG    1      -39.539  73.722  24.370  0.00  0.00    +0.040 A 
ATOM     20  C   LIG    1      -40.454  74.640  23.875  0.00  0.00    +0.124 A 
ATOM     21  F   LIG    1      -41.542  74.192  23.233  0.00  0.00    -0.205 F 
ATOM     22  C   LIG    1      -40.256  76.017  24.026  0.00  0.00    +0.045 A 
ENDBRANCH  11  15
ENDBRANCH   4  10
BRANCH   1  24
ATOM     23  C   LIG    1      -33.257  78.820  27.065  0.00  0.00    +0.283 C 
ATOM     24  N   LIG    1      -34.170  79.700  27.195  0.00  0.00    -0.194 NA
BRANCH  23  27
ATOM     25  C   LIG    1      -31.883  75.885  28.907  0.00  0.00    +0.133 C 
ATOM     26  C   LIG    1      -31.973  77.407  28.715  0.00  0.00    +0.140 C 
ATOM     27  N   LIG    1      -32.963  77.605  27.655  0.00  0.00    -0.283 N 
ATOM     28  C   LIG    1      -33.546  76.323  27.263  0.00  0.00    +0.112 C 
ATOM     29  C   LIG    1      -33.243  75.396  28.442  0.00  0.00    +0.052 C 
BRANCH  25  30
ATOM     30  O   LIG    1      -31.624  75.506  30.248  0.00  0.00    -0.390 OA
ATOM     31  H   LIG    1      -32.451  75.150  30.621  0.00  0.00    +0.210 HD
ENDBRANCH  25  30
ENDBRANCH  23  27
BRANCH  23  32
ATOM     32  O   LIG    1      -32.344  79.108  26.118  0.00  0.00    -0.481 OA
ATOM     33  H   LIG    1      -31.845  78.332  25.862  0.00  0.00    +0.295 HD
ENDBRANCH  23  32
ENDBRANCH   1  24
TORSDOF 6
ENDMDL
MODEL 4
REMARK VINA RESULT:      -6.4     18.772     21.553
REMARK  Name = pdb/CHEMBL3964207.pdb
REMARK                            x       y       z     vdW  Elec       q    Type
REMARK                         _______ _______ _______ _____ _____    ______ ____
ROOT
ATOM      1  C   LIG    1      -20.492  84.146  12.210  0.00  0.00    +0.133 A 
ATOM      2  C   LIG    1      -19.690  83.209  12.830  0.00  0.00    +0.183 A 
ATOM      3  N   LIG    1      -19.924  81.976  13.401  0.00  0.00    -0.211 NA
ATOM      4  C   LIG    1      -18.937  81.354  14.015  0.00  0.00    +0.126 A 
ATOM      5  C   LIG    1      -17.542  81.943  14.042  0.00  0.00    +0.063 A 
ATOM      6  C   LIG    1      -17.363  83.142  13.469  0.00  0.00    +0.118 A 
ATOM      7  N   LIG    1      -18.425  83.799  12.867  0.00  0.00    -0.220 N 
ATOM      8  N   LIG    1      -18.398  85.031  12.288  0.00  0.00    -0.171 NA
ATOM      9  C   LIG    1      -19.670  85.249  11.943  0.00  0.00    +0.165 A 
ENDROOT
BRANCH   4  10
ATOM     10  N   LIG    1      -19.189  80.144  14.681  0.00  0.00    -0.308 N 
ATOM     11  C   LIG    1      -20.012  80.072  15.907  0.00  0.00    +0.107 C 
ATOM     12  C   LIG    1      -19.235  79.107  16.823  0.00  0.00    +0.029 C 
ATOM     13  C   LIG    1      -18.559  78.162  15.850  0.00  0.00    +0.021 C 
ATOM     14  C   LIG    1      -18.140  79.105  14.728  0.00  0.00    +0.107 C 
BRANCH  11  15
ATOM     15  C   LIG    1      -21.451  79.609  15.673  0.00  0.00    -0.006 A 
ATOM     16  C   LIG    1      -22.539  80.449  16.003  0.00  0.00    +0.046 A 
ATOM     17 CL   LIG    1      -22.308  82.025  16.680  0.00  0.00    -0.083 Cl
ATOM     18  C   LIG    1      -23.867  80.042  15.806  0.00  0.00    +0.023 A 
ATOM     19  C   LIG    1      -24.144  78.778  15.296  0.00  0.00    +0.040 A 
ATOM     20  C   LIG    1      -23.090  77.929  14.996  0.00  0.00    +0.124 A 
ATOM     21  F   LIG    1      -23.357  76.700  14.533  0.00  0.00    -0.205 F 
ATOM     22  C   LIG    1      -21.760  78.327  15.175  0.00  0.00    +0.045 A 
ENDBRANCH  11  15
ENDBRANCH   4  10
BRANCH   1  24
ATOM     23  C   LIG    1      -22.648  84.797  12.754  0.00  0.00    +0.283 C 
ATOM     24  N   LIG    1      -21.879  84.050  12.064  0.00  0.00    -0.194 NA
BRANCH  23  27
ATOM     25  C   LIG    1      -22.271  87.214  15.567  0.00  0.00    +0.133 C 
ATOM     26  C   LIG    1      -22.187  85.775  15.034  0.00  0.00    +0.140 C 
ATOM     27  N   LIG    1      -22.481  85.875  13.603  0.00  0.00    -0.283 N 
ATOM     28  C   LIG    1      -22.640  87.276  13.218  0.00  0.00    +0.112 C 
ATOM     29  C   LIG    1      -21.958  88.056  14.343  0.00  0.00    +0.052 C 
BRANCH  25  30
ATOM     30  O   LIG    1      -21.362  87.472  16.623  0.00  0.00    -0.390 OA
ATOM     31  H   LIG    1      -21.806  88.061  17.260  0.00  0.00    +0.210 HD
ENDBRANCH  25  30
ENDBRANCH  23  27
BRANCH  23  32
ATOM     32  O   LIG    1      -23.956  84.497  12.638  0.00  0.00    -0.481 OA
ATOM     33  H   LIG    1      -24.371  84.397  13.495  0.00  0.00    +0.295 HD
ENDBRANCH  23  32
ENDBRANCH   1  24
TORSDOF 6
ENDMDL
MODEL 5
REMARK VINA RESULT:      -6.3     19.010     21.649
REMARK  Name = pdb/CHEMBL3964207.pdb
REMARK                            x       y       z     vdW  Elec       q    Type
REMARK                         _______ _______ _______ _____ _____    ______ ____
ROOT
ATOM      1  C   LIG    1      -21.573  84.492  11.449  0.00  0.00    +0.133 A 
ATOM      2  C   LIG    1      -20.999  83.604  12.338  0.00  0.00    +0.183 A 
ATOM      3  N   LIG    1      -21.495  82.802  13.344  0.00  0.00    -0.211 NA
ATOM      4  C   LIG    1      -20.652  82.124  14.098  0.00  0.00    +0.126 A 
ATOM      5  C   LIG    1      -19.161  82.163  13.832  0.00  0.00    +0.063 A 
ATOM      6  C   LIG    1      -18.729  82.955  12.839  0.00  0.00    +0.118 A 
ATOM      7  N   LIG    1      -19.628  83.693  12.086  0.00  0.00    -0.220 N 
ATOM      8  N   LIG    1      -19.330  84.564  11.084  0.00  0.00    -0.171 NA
ATOM      9  C   LIG    1      -20.514  85.079  10.744  0.00  0.00    +0.165 A 
ENDROOT
BRANCH   4  10
ATOM     10  N   LIG    1      -21.141  81.381  15.185  0.00  0.00    -0.308 N 
ATOM     11  C   LIG    1      -21.808  80.073  15.013  0.00  0.00    +0.107 C 
ATOM     12  C   LIG    1      -23.013  80.139  15.971  0.00  0.00    +0.029 C 
ATOM     13  C   LIG    1      -22.522  81.026  17.098  0.00  0.00    +0.021 C 
ATOM     14  C   LIG    1      -21.724  82.084  16.346  0.00  0.00    +0.107 C 
BRANCH  11  15
ATOM     15  C   LIG    1      -20.913  78.867  15.299  0.00  0.00    -0.006 A 
ATOM     16  C   LIG    1      -21.295  77.572  14.881  0.00  0.00    +0.046 A 
ATOM     17 CL   LIG    1      -22.777  77.282  14.035  0.00  0.00    -0.083 Cl
ATOM     18  C   LIG    1      -20.494  76.449  15.140  0.00  0.00    +0.023 A 
ATOM     19  C   LIG    1      -19.301  76.587  15.841  0.00  0.00    +0.040 A 
ATOM     20  C   LIG    1      -18.925  77.846  16.286  0.00  0.00    +0.124 A 
ATOM     21  F   LIG    1      -17.791  77.974  16.989  0.00  0.00    -0.205 F 
ATOM     22  C   LIG    1      -19.708  78.975  16.023  0.00  0.00    +0.045 A 
ENDBRANCH  11  15
ENDBRANCH   4  10
BRANCH   1  24
ATOM     23  C   LIG    1      -23.385  85.699  12.242  0.00  0.00    +0.283 C 
ATOM     24  N   LIG    1      -22.926  84.840  11.418  0.00  0.00    -0.194 NA
BRANCH  23  27
ATOM     25  C   LIG    1      -22.109  87.532  15.227  0.00  0.00    +0.133 C 
ATOM     26  C   LIG    1      -22.500  86.208  14.550  0.00  0.00    +0.140 C 
ATOM     27  N   LIG    1      -22.843  86.566  13.172  0.00  0.00    -0.283 N 
ATOM     28  C   LIG    1      -22.595  87.989  12.943  0.00  0.00    +0.112 C 
ATOM     29  C   LIG    1      -21.635  88.388  14.066  0.00  0.00    +0.052 C 
BRANCH  25  30
ATOM     30  O   LIG    1      -21.098  87.379  16.207  0.00  0.00    -0.390 OA
ATOM     31  H   LIG    1      -20.536  86.629  15.940  0.00  0.00    +0.210 HD
ENDBRANCH  25  30
ENDBRANCH  23  27
BRANCH  23  32
ATOM     32  O   LIG    1      -24.725  85.826  12.215  0.00  0.00    -0.481 OA
ATOM     33  H   LIG    1      -24.991  86.669  11.844  0.00  0.00    +0.295 HD
ENDBRANCH  23  32
ENDBRANCH   1  24
TORSDOF 6
ENDMDL
MODEL 6
REMARK VINA RESULT:      -6.2     18.925     21.458
REMARK  Name = pdb/CHEMBL3964207.pdb
REMARK                            x       y       z     vdW  Elec       q    Type
REMARK                         _______ _______ _______ _____ _____    ______ ____
ROOT
ATOM      1  C   LIG    1      -18.960  85.257  12.826  0.00  0.00    +0.133 A 
ATOM      2  C   LIG    1      -19.550  84.009  12.862  0.00  0.00    +0.183 A 
ATOM      3  N   LIG    1      -20.315  83.339  13.793  0.00  0.00    -0.211 NA
ATOM      4  C   LIG    1      -20.654  82.085  13.563  0.00  0.00    +0.126 A 
ATOM      5  C   LIG    1      -20.272  81.399  12.267  0.00  0.00    +0.063 A 
ATOM      6  C   LIG    1      -19.532  82.095  11.391  0.00  0.00    +0.118 A 
ATOM      7  N   LIG    1      -19.150  83.398  11.672  0.00  0.00    -0.220 N 
ATOM      8  N   LIG    1      -18.369  84.202  10.900  0.00  0.00    -0.171 NA
ATOM      9  C   LIG    1      -18.220  85.305  11.637  0.00  0.00    +0.165 A 
ENDROOT
BRANCH   4  10
ATOM     10  N   LIG    1      -21.350  81.365  14.547  0.00  0.00    -0.308 N 
ATOM     11  C   LIG    1      -22.664  81.801  15.067  0.00  0.00    +0.107 C 
ATOM     12  C   LIG    1      -22.556  81.581  16.588  0.00  0.00    +0.029 C 
ATOM     13  C   LIG    1      -21.622  80.393  16.709  0.00  0.00    +0.021 C 
ATOM     14  C   LIG    1      -20.597  80.681  15.618  0.00  0.00    +0.107 C 
BRANCH  11  15
ATOM     15  C   LIG    1      -23.857  81.061  14.462  0.00  0.00    -0.006 A 
ATOM     16  C   LIG    1      -24.398  81.462  13.220  0.00  0.00    +0.046 A 
ATOM     17 CL   LIG    1      -23.752  82.797  12.327  0.00  0.00    -0.083 Cl
ATOM     18  C   LIG    1      -25.499  80.804  12.650  0.00  0.00    +0.023 A 
ATOM     19  C   LIG    1      -26.100  79.741  13.315  0.00  0.00    +0.040 A 
ATOM     20  C   LIG    1      -25.602  79.352  14.550  0.00  0.00    +0.124 A 
ATOM     21  F   LIG    1      -26.200  78.348  15.205  0.00  0.00    -0.205 F 
ATOM     22  C   LIG    1      -24.497  79.992  15.123  0.00  0.00    +0.045 A 
ENDBRANCH  11  15
ENDBRANCH   4  10
BRANCH   1  24
ATOM     23  C   LIG    1      -19.983  86.946  14.038  0.00  0.00    +0.283 C 
ATOM     24  N   LIG    1      -18.974  86.186  13.870  0.00  0.00    -0.194 NA
BRANCH  23  27
ATOM     25  C   LIG    1      -23.164  87.800  12.291  0.00  0.00    +0.133 C 
ATOM     26  C   LIG    1      -21.636  87.930  12.404  0.00  0.00    +0.140 C 
ATOM     27  N   LIG    1      -21.254  87.038  13.501  0.00  0.00    -0.283 N 
ATOM     28  C   LIG    1      -22.423  86.309  13.990  0.00  0.00    +0.112 C 
ATOM     29  C   LIG    1      -23.436  86.415  12.849  0.00  0.00    +0.052 C 
BRANCH  25  30
ATOM     30  O   LIG    1      -23.636  87.928  10.961  0.00  0.00    -0.390 OA
ATOM     31  H   LIG    1      -24.604  87.814  10.978  0.00  0.00    +0.210 HD
ENDBRANCH  25  30
ENDBRANCH  23  27
BRANCH  23  32
ATOM     32  O   LIG    1      -19.805  87.899  14.973  0.00  0.00    -0.481 OA
ATOM     33  H   LIG    1      -18.978  88.365  14.848  0.00  0.00    +0.295 HD
ENDBRANCH  23  32
ENDBRANCH   1  24
TORSDOF 6
ENDMDL
MODEL 7
REMARK VINA RESULT:      -6.1     19.387     22.143
REMARK  Name = pdb/CHEMBL3964207.pdb
REMARK                            x       y       z     vdW  Elec       q    Type
REMARK                         _______ _______ _______ _____ _____    ______ ____
ROOT
ATOM      1  C   LIG    1      -18.920  85.187  12.931  0.00  0.00    +0.133 A 
ATOM      2  C   LIG    1      -19.391  83.899  13.097  0.00  0.00    +0.183 A 
ATOM      3  N   LIG    1      -20.058  83.249  14.114  0.00  0.00    -0.211 NA
ATOM      4  C   LIG    1      -20.288  81.955  14.006  0.00  0.00    +0.126 A 
ATOM      5  C   LIG    1      -19.891  81.194  12.759  0.00  0.00    +0.063 A 
ATOM      6  C   LIG    1      -19.249  81.872  11.796  0.00  0.00    +0.118 A 
ATOM      7  N   LIG    1      -18.979  83.223  11.948  0.00  0.00    -0.220 N 
ATOM      8  N   LIG    1      -18.302  84.021  11.077  0.00  0.00    -0.171 NA
ATOM      9  C   LIG    1      -18.229  85.194  11.711  0.00  0.00    +0.165 A 
ENDROOT
BRANCH   4  10
ATOM     10  N   LIG    1      -20.880  81.267  15.077  0.00  0.00    -0.308 N 
ATOM     11  C   LIG    1      -21.584  79.979  14.898  0.00  0.00    +0.107 C 
ATOM     12  C   LIG    1      -22.849  80.120  15.766  0.00  0.00    +0.029 C 
ATOM     13  C   LIG    1      -22.404  81.026  16.897  0.00  0.00    +0.021 C 
ATOM     14  C   LIG    1      -21.515  82.029  16.172  0.00  0.00    +0.107 C 
BRANCH  11  15
ATOM     15  C   LIG    1      -20.758  78.751  15.284  0.00  0.00    -0.006 A 
ATOM     16  C   LIG    1      -21.191  77.453  14.931  0.00  0.00    +0.046 A 
ATOM     17 CL   LIG    1      -22.661  77.183  14.057  0.00  0.00    -0.083 Cl
ATOM     18  C   LIG    1      -20.455  76.311  15.282  0.00  0.00    +0.023 A 
ATOM     19  C   LIG    1      -19.277  76.435  16.012  0.00  0.00    +0.040 A 
ATOM     20  C   LIG    1      -18.852  77.699  16.393  0.00  0.00    +0.124 A 
ATOM     21  F   LIG    1      -17.734  77.815  17.123  0.00  0.00    -0.205 F 
ATOM     22  C   LIG    1      -19.570  78.846  16.038  0.00  0.00    +0.045 A 
ENDBRANCH  11  15
ENDBRANCH   4  10
BRANCH   1  24
ATOM     23  C   LIG    1      -20.022  86.929  13.986  0.00  0.00    +0.283 C 
ATOM     24  N   LIG    1      -18.981  86.199  13.891  0.00  0.00    -0.194 NA
BRANCH  23  27
ATOM     25  C   LIG    1      -23.223  87.512  12.167  0.00  0.00    +0.133 C 
ATOM     26  C   LIG    1      -21.706  87.729  12.285  0.00  0.00    +0.140 C 
ATOM     27  N   LIG    1      -21.290  86.922  13.434  0.00  0.00    -0.283 N 
ATOM     28  C   LIG    1      -22.424  86.162  13.955  0.00  0.00    +0.112 C 
ATOM     29  C   LIG    1      -23.429  86.148  12.802  0.00  0.00    +0.052 C 
BRANCH  25  30
ATOM     30  O   LIG    1      -23.687  87.539  10.829  0.00  0.00    -0.390 OA
ATOM     31  H   LIG    1      -23.490  86.673  10.428  0.00  0.00    +0.210 HD
ENDBRANCH  25  30
ENDBRANCH  23  27
BRANCH  23  32
ATOM     32  O   LIG    1      -19.893  87.965  14.838  0.00  0.00    -0.481 OA
ATOM     33  H   LIG    1      -19.484  88.720  14.413  0.00  0.00    +0.295 HD
ENDBRANCH  23  32
ENDBRANCH   1  24
TORSDOF 6
ENDMDL
MODEL 8
REMARK VINA RESULT:      -6.1     19.693     22.702
REMARK  Name = pdb/CHEMBL3964207.pdb
REMARK                            x       y       z     vdW  Elec       q    Type
REMARK                         _______ _______ _______ _____ _____    ______ ____
ROOT
ATOM      1  C   LIG    1      -20.018  81.239  15.056  0.00  0.00    +0.133 A 
ATOM      2  C   LIG    1      -19.442  82.076  14.121  0.00  0.00    +0.183 A 
ATOM      3  N   LIG    1      -19.275  83.442  14.035  0.00  0.00    -0.211 NA
ATOM      4  C   LIG    1      -18.756  83.957  12.937  0.00  0.00    +0.126 A 
ATOM      5  C   LIG    1      -18.284  83.068  11.805  0.00  0.00    +0.063 A 
ATOM      6  C   LIG    1      -18.464  81.745  11.939  0.00  0.00    +0.118 A 
ATOM      7  N   LIG    1      -19.051  81.228  13.083  0.00  0.00    -0.220 N 
ATOM      8  N   LIG    1      -19.333  79.920  13.335  0.00  0.00    -0.171 NA
ATOM      9  C   LIG    1      -19.966  79.949  14.510  0.00  0.00    +0.165 A 
ENDROOT
BRANCH   4  10
ATOM     10  N   LIG    1      -18.671  85.352  12.801  0.00  0.00    -0.308 N 
ATOM     11  C   LIG    1      -19.689  86.141  12.075  0.00  0.00    +0.107 C 
ATOM     12  C   LIG    1      -18.864  87.143  11.245  0.00  0.00    +0.029 C 
ATOM     13  C   LIG    1      -17.635  87.384  12.099  0.00  0.00    +0.021 C 
ATOM     14  C   LIG    1      -17.348  85.990  12.644  0.00  0.00    +0.107 C 
BRANCH  11  15
ATOM     15  C   LIG    1      -20.705  86.841  12.978  0.00  0.00    -0.006 A 
ATOM     16  C   LIG    1      -21.771  87.584  12.421  0.00  0.00    +0.046 A 
ATOM     17 CL   LIG    1      -21.983  87.740  10.710  0.00  0.00    -0.083 Cl
ATOM     18  C   LIG    1      -22.709  88.243  13.229  0.00  0.00    +0.023 A 
ATOM     19  C   LIG    1      -22.595  88.196  14.615  0.00  0.00    +0.040 A 
ATOM     20  C   LIG    1      -21.538  87.498  15.179  0.00  0.00    +0.124 A 
ATOM     21  F   LIG    1      -21.411  87.478  16.513  0.00  0.00    -0.205 F 
ATOM     22  C   LIG    1      -20.603  86.825  14.384  0.00  0.00    +0.045 A 
ENDBRANCH  11  15
ENDBRANCH   4  10
BRANCH   1  24
ATOM     23  C   LIG    1      -21.938  81.824  16.213  0.00  0.00    +0.283 C 
ATOM     24  N   LIG    1      -20.674  81.656  16.217  0.00  0.00    -0.194 NA
BRANCH  23  27
ATOM     25  C   LIG    1      -24.632  81.807  13.637  0.00  0.00    +0.133 C 
ATOM     26  C   LIG    1      -23.337  82.415  14.198  0.00  0.00    +0.140 C 
ATOM     27  N   LIG    1      -22.969  81.562  15.329  0.00  0.00    -0.283 N 
ATOM     28  C   LIG    1      -23.890  80.432  15.431  0.00  0.00    +0.112 C 
ATOM     29  C   LIG    1      -24.535  80.348  14.046  0.00  0.00    +0.052 C 
BRANCH  25  30
ATOM     30  O   LIG    1      -24.750  81.946  12.231  0.00  0.00    -0.390 OA
ATOM     31  H   LIG    1      -24.521  82.865  12.004  0.00  0.00    +0.210 HD
ENDBRANCH  25  30
ENDBRANCH  23  27
BRANCH  23  32
ATOM     32  O   LIG    1      -22.423  82.379  17.340  0.00  0.00    -0.481 OA
ATOM     33  H   LIG    1      -21.917  82.114  18.109  0.00  0.00    +0.295 HD
ENDBRANCH  23  32
ENDBRANCH   1  24
TORSDOF 6
ENDMDL
MODEL 9
REMARK VINA RESULT:      -6.0     14.498     17.395
REMARK  Name = pdb/CHEMBL3964207.pdb
REMARK                            x       y       z     vdW  Elec       q    Type
REMARK                         _______ _______ _______ _____ _____    ______ ____
ROOT
ATOM      1  C   LIG    1      -21.717  77.321  30.158  0.00  0.00    +0.133 A 
ATOM      2  C   LIG    1      -21.176  77.625  31.391  0.00  0.00    +0.183 A 
ATOM      3  N   LIG    1      -21.664  78.241  32.524  0.00  0.00    -0.211 NA
ATOM      4  C   LIG    1      -20.845  78.476  33.531  0.00  0.00    +0.126 A 
ATOM      5  C   LIG    1      -19.400  78.022  33.483  0.00  0.00    +0.063 A 
ATOM      6  C   LIG    1      -18.975  77.424  32.361  0.00  0.00    +0.118 A 
ATOM      7  N   LIG    1      -19.842  77.225  31.298  0.00  0.00    -0.220 N 
ATOM      8  N   LIG    1      -19.538  76.674  30.091  0.00  0.00    -0.171 NA
ATOM      9  C   LIG    1      -20.670  76.788  29.393  0.00  0.00    +0.165 A 
ENDROOT
BRANCH   4  10
ATOM     10  N   LIG    1      -21.309  79.187  34.649  0.00  0.00    -0.308 N 
ATOM     11  C   LIG    1      -22.747  79.290  34.981  0.00  0.00    +0.107 C 
ATOM     12  C   LIG    1      -22.934  80.767  35.377  0.00  0.00    +0.029 C 
ATOM     13  C   LIG    1      -21.597  81.144  35.983  0.00  0.00    +0.021 C 
ATOM     14  C   LIG    1      -20.616  80.423  35.066  0.00  0.00    +0.107 C 
BRANCH  11  15
ATOM     15  C   LIG    1      -23.208  78.336  36.083  0.00  0.00    -0.006 A 
ATOM     16  C   LIG    1      -24.567  77.963  36.189  0.00  0.00    +0.046 A 
ATOM     17 CL   LIG    1      -25.768  78.556  35.093  0.00  0.00    -0.083 Cl
ATOM     18  C   LIG    1      -25.015  77.097  37.198  0.00  0.00    +0.023 A 
ATOM     19  C   LIG    1      -24.122  76.598  38.140  0.00  0.00    +0.040 A 
ATOM     20  C   LIG    1      -22.789  76.977  38.071  0.00  0.00    +0.124 A 
ATOM     21  F   LIG    1      -21.935  76.521  38.997  0.00  0.00    -0.205 F 
ATOM     22  C   LIG    1      -22.327  77.830  37.062  0.00  0.00    +0.045 A 
ENDBRANCH  11  15
ENDBRANCH   4  10
BRANCH   1  24
ATOM     23  C   LIG    1      -24.012  77.005  30.162  0.00  0.00    +0.283 C 
ATOM     24  N   LIG    1      -23.005  77.661  29.736  0.00  0.00    -0.194 NA
BRANCH  23  27
ATOM     25  C   LIG    1      -24.544  74.924  33.209  0.00  0.00    +0.133 C 
ATOM     26  C   LIG    1      -24.598  76.293  32.511  0.00  0.00    +0.140 C 
ATOM     27  N   LIG    1      -24.226  76.031  31.119  0.00  0.00    -0.283 N 
ATOM     28  C   LIG    1      -24.049  74.596  30.906  0.00  0.00    +0.112 C 
ATOM     29  C   LIG    1      -24.793  73.947  32.074  0.00  0.00    +0.052 C 
BRANCH  25  30
ATOM     30  O   LIG    1      -25.509  74.785  34.237  0.00  0.00    -0.390 OA
ATOM     31  H   LIG    1      -25.771  75.679  34.522  0.00  0.00    +0.210 HD
ENDBRANCH  25  30
ENDBRANCH  23  27
BRANCH  23  32
ATOM     32  O   LIG    1      -25.173  77.326  29.559  0.00  0.00    -0.481 OA
ATOM     33  H   LIG    1      -25.804  76.606  29.605  0.00  0.00    +0.295 HD
ENDBRANCH  23  32
ENDBRANCH   1  24
TORSDOF 6
ENDMDL
