MODEL 1
REMARK VINA RESULT:      -6.8      0.000      0.000
REMARK  Name = pdb/CHEMBL3940562.pdb
REMARK                            x       y       z     vdW  Elec       q    Type
REMARK                         _______ _______ _______ _____ _____    ______ ____
ROOT
ATOM      1  C   LIG    1      -29.836  75.750  31.499  0.00  0.00    +0.149 A 
ATOM      2  N   LIG    1      -29.245  74.545  31.437  0.00  0.00    -0.160 NA
ATOM      3  N   LIG    1      -28.058  74.709  32.101  0.00  0.00    -0.218 N 
ATOM      4  C   LIG    1      -27.821  76.054  32.392  0.00  0.00    +0.129 A 
ATOM      5  C   LIG    1      -28.989  76.707  32.087  0.00  0.00    +0.078 A 
ENDROOT
BRANCH   3   6
ATOM      6  C   LIG    1      -27.252  73.571  32.383  0.00  0.00    +0.067 A 
ATOM      7  C   LIG    1      -26.052  73.337  31.700  0.00  0.00    +0.028 A 
ATOM      8  C   LIG    1      -25.241  72.257  32.064  0.00  0.00    +0.002 A 
ATOM      9  C   LIG    1      -25.623  71.407  33.101  0.00  0.00    +0.000 A 
ATOM     10  C   LIG    1      -26.820  71.629  33.777  0.00  0.00    +0.002 A 
ATOM     11  C   LIG    1      -27.629  72.712  33.429  0.00  0.00    +0.028 A 
ENDBRANCH   3   6
BRANCH   4  12
ATOM     12  N   LIG    1      -26.643  76.663  32.851  0.00  0.00    -0.266 N 
ATOM     13  H   LIG    1      -26.461  76.690  33.845  0.00  0.00    +0.157 HD
ATOM     14  C   LIG    1      -25.613  77.107  31.943  0.00  0.00    +0.251 C 
ATOM     15  O   LIG    1      -25.726  76.959  30.744  0.00  0.00    -0.270 OA
BRANCH  14  16
ATOM     16  C   LIG    1      -24.354  77.642  32.508  0.00  0.00    +0.056 A 
ATOM     17  C   LIG    1      -23.088  77.143  32.209  0.00  0.00    +0.056 A 
ATOM     18 CL   LIG    1      -22.815  75.800  31.164  0.00  0.00    -0.083 Cl
ATOM     19  C   LIG    1      -21.972  77.718  32.804  0.00  0.00    +0.059 A 
ATOM     20  C   LIG    1      -22.115  78.772  33.705  0.00  0.00    +0.134 A 
ATOM     21  F   LIG    1      -20.978  79.251  34.224  0.00  0.00    -0.205 F 
ATOM     22  C   LIG    1      -23.365  79.298  34.061  0.00  0.00    +0.036 A 
ATOM     23  C   LIG    1      -24.482  78.703  33.433  0.00  0.00    +0.027 A 
BRANCH  22  24
ATOM     24  C   LIG    1      -23.544  80.400  35.041  0.00  0.00    +0.074 A 
ATOM     25  N   LIG    1      -24.727  80.403  35.712  0.00  0.00    -0.255 NA
ATOM     26  C   LIG    1      -24.947  81.381  36.623  0.00  0.00    +0.111 A 
ATOM     27  C   LIG    1      -24.040  82.383  36.911  0.00  0.00    +0.020 A 
ATOM     28  C   LIG    1      -22.837  82.382  36.228  0.00  0.00    +0.004 A 
ATOM     29  C   LIG    1      -22.589  81.386  35.288  0.00  0.00    +0.028 A 
ENDBRANCH  22  24
ENDBRANCH  14  16
ENDBRANCH   4  12
BRANCH   1  31
ATOM     30  N   LIG    1      -31.504  75.646  29.815  0.00  0.00    -0.244 NA
ATOM     31  C   LIG    1      -31.190  75.985  31.013  0.00  0.00    +0.236 C 
BRANCH  31  32
ATOM     32  O   LIG    1      -32.026  76.594  31.883  0.00  0.00    -0.491 OA
ATOM     33  H   LIG    1      -32.798  76.020  32.041  0.00  0.00    +0.294 HD
ENDBRANCH  31  32
BRANCH  30  34
ATOM     34  C   LIG    1      -32.871  75.974  29.378  0.00  0.00    +0.184 C 
BRANCH  34  36
ATOM     35  C   LIG    1      -33.648  78.352  28.889  0.00  0.00    +0.123 A 
ATOM     36  C   LIG    1      -32.954  77.196  28.494  0.00  0.00    +0.014 A 
ATOM     37  C   LIG    1      -32.268  77.227  27.266  0.00  0.00    +0.010 A 
ATOM     38  C   LIG    1      -32.339  78.347  26.452  0.00  0.00    +0.020 A 
ATOM     39  C   LIG    1      -33.071  79.422  26.906  0.00  0.00    +0.113 A 
ATOM     40  N   LIG    1      -33.705  79.449  28.097  0.00  0.00    -0.240 NA
BRANCH  35  42
ATOM     41  C   LIG    1      -34.780  79.719  30.513  0.00  0.00    +0.127 C 
ATOM     42  N   LIG    1      -34.271  78.403  30.150  0.00  0.00    -0.332 N 
ATOM     43  H   LIG    1      -35.007  77.705  30.180  0.00  0.00    +0.147 HD
ENDBRANCH  35  42
ENDBRANCH  34  36
ENDBRANCH  30  34
ENDBRANCH   1  31
TORSDOF 9
ENDMDL
MODEL 2
REMARK VINA RESULT:      -6.8      5.903     12.930
REMARK  Name = pdb/CHEMBL3940562.pdb
REMARK                            x       y       z     vdW  Elec       q    Type
REMARK                         _______ _______ _______ _____ _____    ______ ____
ROOT
ATOM      1  C   LIG    1      -31.501  74.455  29.973  0.00  0.00    +0.149 A 
ATOM      2  N   LIG    1      -31.445  75.737  29.574  0.00  0.00    -0.160 NA
ATOM      3  N   LIG    1      -32.551  75.900  28.783  0.00  0.00    -0.218 N 
ATOM      4  C   LIG    1      -33.176  74.678  28.526  0.00  0.00    +0.129 A 
ATOM      5  C   LIG    1      -32.561  73.771  29.350  0.00  0.00    +0.078 A 
ENDROOT
BRANCH   3   6
ATOM      6  C   LIG    1      -32.903  77.204  28.333  0.00  0.00    +0.067 A 
ATOM      7  C   LIG    1      -32.213  77.826  27.285  0.00  0.00    +0.028 A 
ATOM      8  C   LIG    1      -32.642  79.070  26.810  0.00  0.00    +0.002 A 
ATOM      9  C   LIG    1      -33.749  79.698  27.378  0.00  0.00    +0.000 A 
ATOM     10  C   LIG    1      -34.433  79.088  28.427  0.00  0.00    +0.002 A 
ATOM     11  C   LIG    1      -34.020  77.841  28.898  0.00  0.00    +0.028 A 
ENDBRANCH   3   6
BRANCH   4  12
ATOM     12  N   LIG    1      -34.186  74.382  27.597  0.00  0.00    -0.266 N 
ATOM     13  H   LIG    1      -33.924  74.055  26.677  0.00  0.00    +0.157 HD
ATOM     14  C   LIG    1      -35.581  74.375  27.968  0.00  0.00    +0.251 C 
ATOM     15  O   LIG    1      -35.930  74.617  29.104  0.00  0.00    -0.270 OA
BRANCH  14  16
ATOM     16  C   LIG    1      -36.578  73.948  26.962  0.00  0.00    +0.056 A 
ATOM     17  C   LIG    1      -36.807  72.623  26.599  0.00  0.00    +0.056 A 
ATOM     18 CL   LIG    1      -35.925  71.292  27.248  0.00  0.00    -0.083 Cl
ATOM     19  C   LIG    1      -37.765  72.335  25.635  0.00  0.00    +0.059 A 
ATOM     20  C   LIG    1      -38.480  73.363  25.021  0.00  0.00    +0.134 A 
ATOM     21  F   LIG    1      -39.377  72.979  24.105  0.00  0.00    -0.205 F 
ATOM     22  C   LIG    1      -38.275  74.716  25.329  0.00  0.00    +0.036 A 
ATOM     23  C   LIG    1      -37.304  74.978  26.321  0.00  0.00    +0.027 A 
BRANCH  22  24
ATOM     24  C   LIG    1      -39.004  75.828  24.667  0.00  0.00    +0.074 A 
ATOM     25  N   LIG    1      -38.366  77.029  24.667  0.00  0.00    -0.255 NA
ATOM     26  C   LIG    1      -38.979  78.083  24.074  0.00  0.00    +0.111 A 
ATOM     27  C   LIG    1      -40.220  78.011  23.470  0.00  0.00    +0.020 A 
ATOM     28  C   LIG    1      -40.870  76.790  23.471  0.00  0.00    +0.004 A 
ATOM     29  C   LIG    1      -40.259  75.694  24.074  0.00  0.00    +0.028 A 
ENDBRANCH  22  24
ENDBRANCH  14  16
ENDBRANCH   4  12
BRANCH   1  31
ATOM     30  N   LIG    1      -29.752  74.667  31.562  0.00  0.00    -0.244 NA
ATOM     31  C   LIG    1      -30.565  73.893  30.938  0.00  0.00    +0.236 C 
BRANCH  31  32
ATOM     32  O   LIG    1      -30.606  72.549  31.078  0.00  0.00    -0.491 OA
ATOM     33  H   LIG    1      -29.823  72.158  30.648  0.00  0.00    +0.294 HD
ENDBRANCH  31  32
BRANCH  30  34
ATOM     34  C   LIG    1      -28.795  74.017  32.472  0.00  0.00    +0.184 C 
BRANCH  34  36
ATOM     35  C   LIG    1      -26.681  75.255  31.767  0.00  0.00    +0.123 A 
ATOM     36  C   LIG    1      -27.366  74.048  31.983  0.00  0.00    +0.014 A 
ATOM     37  C   LIG    1      -26.657  72.847  31.799  0.00  0.00    +0.010 A 
ATOM     38  C   LIG    1      -25.344  72.869  31.353  0.00  0.00    +0.020 A 
ATOM     39  C   LIG    1      -24.764  74.099  31.135  0.00  0.00    +0.113 A 
ATOM     40  N   LIG    1      -25.396  75.274  31.343  0.00  0.00    -0.240 NA
BRANCH  35  42
ATOM     41  C   LIG    1      -26.950  77.088  33.302  0.00  0.00    +0.127 C 
ATOM     42  N   LIG    1      -27.319  76.483  32.029  0.00  0.00    -0.332 N 
ATOM     43  H   LIG    1      -27.139  77.117  31.257  0.00  0.00    +0.147 HD
ENDBRANCH  35  42
ENDBRANCH  34  36
ENDBRANCH  30  34
ENDBRANCH   1  31
TORSDOF 9
ENDMDL
MODEL 3
REMARK VINA RESULT:      -6.7      9.350     14.101
REMARK  Name = pdb/CHEMBL3940562.pdb
REMARK                            x       y       z     vdW  Elec       q    Type
REMARK                         _______ _______ _______ _____ _____    ______ ____
ROOT
ATOM      1  C   LIG    1      -34.928  82.328  29.470  0.00  0.00    +0.149 A 
ATOM      2  N   LIG    1      -34.236  81.177  29.434  0.00  0.00    -0.160 NA
ATOM      3  N   LIG    1      -34.742  80.506  28.352  0.00  0.00    -0.218 N 
ATOM      4  C   LIG    1      -35.877  81.142  27.845  0.00  0.00    +0.129 A 
ATOM      5  C   LIG    1      -35.946  82.345  28.499  0.00  0.00    +0.078 A 
ENDROOT
BRANCH   3   6
ATOM      6  C   LIG    1      -34.106  79.312  27.910  0.00  0.00    +0.067 A 
ATOM      7  C   LIG    1      -33.002  79.347  27.050  0.00  0.00    +0.028 A 
ATOM      8  C   LIG    1      -32.347  78.159  26.707  0.00  0.00    +0.002 A 
ATOM      9  C   LIG    1      -32.792  76.938  27.211  0.00  0.00    +0.000 A 
ATOM     10  C   LIG    1      -33.897  76.896  28.058  0.00  0.00    +0.002 A 
ATOM     11  C   LIG    1      -34.547  78.078  28.416  0.00  0.00    +0.028 A 
ENDBRANCH   3   6
BRANCH   4  12
ATOM     12  N   LIG    1      -36.806  80.671  26.904  0.00  0.00    -0.266 N 
ATOM     13  H   LIG    1      -36.686  80.917  25.932  0.00  0.00    +0.157 HD
ATOM     14  C   LIG    1      -37.833  79.720  27.260  0.00  0.00    +0.251 C 
ATOM     15  O   LIG    1      -37.921  79.284  28.389  0.00  0.00    -0.270 OA
BRANCH  14  16
ATOM     16  C   LIG    1      -38.707  79.190  26.190  0.00  0.00    +0.056 A 
ATOM     17  C   LIG    1      -39.593  79.966  25.448  0.00  0.00    +0.056 A 
ATOM     18 CL   LIG    1      -39.825  81.655  25.701  0.00  0.00    -0.083 Cl
ATOM     19  C   LIG    1      -40.374  79.362  24.470  0.00  0.00    +0.059 A 
ATOM     20  C   LIG    1      -40.286  77.989  24.243  0.00  0.00    +0.134 A 
ATOM     21  F   LIG    1      -41.082  77.507  23.282  0.00  0.00    -0.205 F 
ATOM     22  C   LIG    1      -39.429  77.155  24.977  0.00  0.00    +0.036 A 
ATOM     23  C   LIG    1      -38.639  77.797  25.956  0.00  0.00    +0.027 A 
BRANCH  22  24
ATOM     24  C   LIG    1      -39.340  75.686  24.773  0.00  0.00    +0.074 A 
ATOM     25  N   LIG    1      -38.156  75.117  25.124  0.00  0.00    -0.255 NA
ATOM     26  C   LIG    1      -38.014  73.778  24.966  0.00  0.00    +0.111 A 
ATOM     27  C   LIG    1      -39.004  72.954  24.465  0.00  0.00    +0.020 A 
ATOM     28  C   LIG    1      -40.208  73.532  24.108  0.00  0.00    +0.004 A 
ATOM     29  C   LIG    1      -40.376  74.905  24.261  0.00  0.00    +0.028 A 
ENDBRANCH  22  24
ENDBRANCH  14  16
ENDBRANCH   4  12
BRANCH   1  31
ATOM     30  N   LIG    1      -33.394  83.725  30.622  0.00  0.00    -0.244 NA
ATOM     31  C   LIG    1      -34.618  83.399  30.409  0.00  0.00    +0.236 C 
BRANCH  31  32
ATOM     32  O   LIG    1      -35.681  83.960  31.027  0.00  0.00    -0.491 OA
ATOM     33  H   LIG    1      -35.535  84.921  31.106  0.00  0.00    +0.294 HD
ENDBRANCH  31  32
BRANCH  30  34
ATOM     34  C   LIG    1      -33.160  84.771  31.631  0.00  0.00    +0.184 C 
BRANCH  34  36
ATOM     35  C   LIG    1      -33.093  86.932  30.280  0.00  0.00    +0.123 A 
ATOM     36  C   LIG    1      -32.445  85.989  31.095  0.00  0.00    +0.014 A 
ATOM     37  C   LIG    1      -31.113  86.245  31.467  0.00  0.00    +0.010 A 
ATOM     38  C   LIG    1      -30.452  87.363  30.980  0.00  0.00    +0.020 A 
ATOM     39  C   LIG    1      -31.157  88.215  30.160  0.00  0.00    +0.113 A 
ATOM     40  N   LIG    1      -32.449  88.029  29.817  0.00  0.00    -0.240 NA
BRANCH  35  42
ATOM     41  C   LIG    1      -34.714  86.577  28.539  0.00  0.00    +0.127 C 
ATOM     42  N   LIG    1      -34.454  86.768  29.959  0.00  0.00    -0.332 N 
ATOM     43  H   LIG    1      -34.829  86.000  30.507  0.00  0.00    +0.147 HD
ENDBRANCH  35  42
ENDBRANCH  34  36
ENDBRANCH  30  34
ENDBRANCH   1  31
TORSDOF 9
ENDMDL
MODEL 4
REMARK VINA RESULT:      -6.7     10.180     14.420
REMARK  Name = pdb/CHEMBL3940562.pdb
REMARK                            x       y       z     vdW  Elec       q    Type
REMARK                         _______ _______ _______ _____ _____    ______ ____
ROOT
ATOM      1  C   LIG    1      -37.504  79.851  27.795  0.00  0.00    +0.149 A 
ATOM      2  N   LIG    1      -36.432  79.167  28.227  0.00  0.00    -0.160 NA
ATOM      3  N   LIG    1      -36.558  77.930  27.651  0.00  0.00    -0.218 N 
ATOM      4  C   LIG    1      -37.802  77.782  27.035  0.00  0.00    +0.129 A 
ATOM      5  C   LIG    1      -38.370  79.031  27.050  0.00  0.00    +0.078 A 
ENDROOT
BRANCH   3   6
ATOM      6  C   LIG    1      -35.488  76.998  27.754  0.00  0.00    +0.067 A 
ATOM      7  C   LIG    1      -34.159  77.385  27.540  0.00  0.00    +0.028 A 
ATOM      8  C   LIG    1      -33.125  76.463  27.736  0.00  0.00    +0.002 A 
ATOM      9  C   LIG    1      -33.410  75.159  28.139  0.00  0.00    +0.000 A 
ATOM     10  C   LIG    1      -34.730  74.767  28.344  0.00  0.00    +0.002 A 
ATOM     11  C   LIG    1      -35.767  75.683  28.163  0.00  0.00    +0.028 A 
ENDBRANCH   3   6
BRANCH   4  12
ATOM     12  N   LIG    1      -38.406  76.618  26.535  0.00  0.00    -0.266 N 
ATOM     13  H   LIG    1      -39.172  76.205  27.050  0.00  0.00    +0.157 HD
ATOM     14  C   LIG    1      -38.075  76.088  25.234  0.00  0.00    +0.251 C 
ATOM     15  O   LIG    1      -37.266  76.640  24.518  0.00  0.00    -0.270 OA
BRANCH  14  16
ATOM     16  C   LIG    1      -38.832  74.920  24.732  0.00  0.00    +0.056 A 
ATOM     17  C   LIG    1      -40.086  74.998  24.131  0.00  0.00    +0.056 A 
ATOM     18 CL   LIG    1      -40.952  76.474  23.922  0.00  0.00    -0.083 Cl
ATOM     19  C   LIG    1      -40.711  73.834  23.702  0.00  0.00    +0.059 A 
ATOM     20  C   LIG    1      -40.099  72.595  23.888  0.00  0.00    +0.134 A 
ATOM     21  F   LIG    1      -40.786  71.535  23.442  0.00  0.00    -0.205 F 
ATOM     22  C   LIG    1      -38.849  72.453  24.509  0.00  0.00    +0.036 A 
ATOM     23  C   LIG    1      -38.232  73.654  24.923  0.00  0.00    +0.027 A 
BRANCH  22  24
ATOM     24  C   LIG    1      -38.192  71.142  24.743  0.00  0.00    +0.074 A 
ATOM     25  N   LIG    1      -38.023  70.796  26.047  0.00  0.00    -0.255 NA
ATOM     26  C   LIG    1      -37.433  69.607  26.326  0.00  0.00    +0.111 A 
ATOM     27  C   LIG    1      -36.989  68.724  25.361  0.00  0.00    +0.020 A 
ATOM     28  C   LIG    1      -37.160  69.075  24.034  0.00  0.00    +0.004 A 
ATOM     29  C   LIG    1      -37.764  70.291  23.725  0.00  0.00    +0.028 A 
ENDBRANCH  22  24
ENDBRANCH  14  16
ENDBRANCH   4  12
BRANCH   1  31
ATOM     30  N   LIG    1      -38.304  82.013  27.228  0.00  0.00    -0.244 NA
ATOM     31  C   LIG    1      -37.696  81.268  28.080  0.00  0.00    +0.236 C 
BRANCH  31  32
ATOM     32  O   LIG    1      -37.168  81.706  29.244  0.00  0.00    -0.491 OA
ATOM     33  H   LIG    1      -37.682  82.472  29.561  0.00  0.00    +0.294 HD
ENDBRANCH  31  32
BRANCH  30  34
ATOM     34  C   LIG    1      -38.402  83.443  27.560  0.00  0.00    +0.184 C 
BRANCH  34  36
ATOM     35  C   LIG    1      -36.290  84.572  26.685  0.00  0.00    +0.123 A 
ATOM     36  C   LIG    1      -37.674  84.347  26.593  0.00  0.00    +0.014 A 
ATOM     37  C   LIG    1      -38.366  84.935  25.519  0.00  0.00    +0.010 A 
ATOM     38  C   LIG    1      -37.703  85.764  24.626  0.00  0.00    +0.020 A 
ATOM     39  C   LIG    1      -36.351  85.954  24.815  0.00  0.00    +0.113 A 
ATOM     40  N   LIG    1      -35.643  85.372  25.804  0.00  0.00    -0.240 NA
BRANCH  35  42
ATOM     41  C   LIG    1      -35.161  84.793  28.797  0.00  0.00    +0.127 C 
ATOM     42  N   LIG    1      -35.537  83.929  27.686  0.00  0.00    -0.332 N 
ATOM     43  H   LIG    1      -36.052  83.117  28.012  0.00  0.00    +0.147 HD
ENDBRANCH  35  42
ENDBRANCH  34  36
ENDBRANCH  30  34
ENDBRANCH   1  31
TORSDOF 9
ENDMDL
MODEL 5
REMARK VINA RESULT:      -6.7     17.175     19.981
REMARK  Name = pdb/CHEMBL3940562.pdb
REMARK                            x       y       z     vdW  Elec       q    Type
REMARK                         _______ _______ _______ _____ _____    ______ ____
ROOT
ATOM      1  C   LIG    1      -22.137  82.512  15.754  0.00  0.00    +0.149 A 
ATOM      2  N   LIG    1      -20.881  82.087  15.976  0.00  0.00    -0.160 NA
ATOM      3  N   LIG    1      -20.931  80.737  15.746  0.00  0.00    -0.218 N 
ATOM      4  C   LIG    1      -22.246  80.297  15.586  0.00  0.00    +0.129 A 
ATOM      5  C   LIG    1      -23.006  81.436  15.505  0.00  0.00    +0.078 A 
ENDROOT
BRANCH   3   6
ATOM      6  C   LIG    1      -19.721  79.988  15.716  0.00  0.00    +0.067 A 
ATOM      7  C   LIG    1      -19.444  79.007  16.676  0.00  0.00    +0.028 A 
ATOM      8  C   LIG    1      -18.287  78.229  16.565  0.00  0.00    +0.002 A 
ATOM      9  C   LIG    1      -17.402  78.430  15.506  0.00  0.00    +0.000 A 
ATOM     10  C   LIG    1      -17.666  79.412  14.555  0.00  0.00    +0.002 A 
ATOM     11  C   LIG    1      -18.826  80.183  14.651  0.00  0.00    +0.028 A 
ENDBRANCH   3   6
BRANCH   4  12
ATOM     12  N   LIG    1      -22.740  78.984  15.558  0.00  0.00    -0.266 N 
ATOM     13  H   LIG    1      -23.367  78.681  16.290  0.00  0.00    +0.157 HD
ATOM     14  C   LIG    1      -22.508  78.109  14.433  0.00  0.00    +0.251 C 
ATOM     15  O   LIG    1      -21.884  78.484  13.463  0.00  0.00    -0.270 OA
BRANCH  14  16
ATOM     16  C   LIG    1      -23.151  76.776  14.429  0.00  0.00    +0.056 A 
ATOM     17  C   LIG    1      -24.206  76.417  13.593  0.00  0.00    +0.056 A 
ATOM     18 CL   LIG    1      -24.938  77.497  12.466  0.00  0.00    -0.083 Cl
ATOM     19  C   LIG    1      -24.740  75.138  13.679  0.00  0.00    +0.059 A 
ATOM     20  C   LIG    1      -24.240  74.225  14.606  0.00  0.00    +0.134 A 
ATOM     21  F   LIG    1      -24.826  73.021  14.610  0.00  0.00    -0.205 F 
ATOM     22  C   LIG    1      -23.196  74.538  15.490  0.00  0.00    +0.036 A 
ATOM     23  C   LIG    1      -22.664  75.841  15.372  0.00  0.00    +0.027 A 
BRANCH  22  24
ATOM     24  C   LIG    1      -22.667  73.591  16.505  0.00  0.00    +0.074 A 
ATOM     25  N   LIG    1      -21.927  72.561  16.016  0.00  0.00    -0.255 NA
ATOM     26  C   LIG    1      -21.412  71.665  16.893  0.00  0.00    +0.111 A 
ATOM     27  C   LIG    1      -21.598  71.734  18.261  0.00  0.00    +0.020 A 
ATOM     28  C   LIG    1      -22.351  72.782  18.759  0.00  0.00    +0.004 A 
ATOM     29  C   LIG    1      -22.889  73.713  17.876  0.00  0.00    +0.028 A 
ENDBRANCH  22  24
ENDBRANCH  14  16
ENDBRANCH   4  12
BRANCH   1  31
ATOM     30  N   LIG    1      -22.371  84.628  14.706  0.00  0.00    -0.244 NA
ATOM     31  C   LIG    1      -22.499  83.924  15.772  0.00  0.00    +0.236 C 
BRANCH  31  32
ATOM     32  O   LIG    1      -22.924  84.403  16.962  0.00  0.00    -0.491 OA
ATOM     33  H   LIG    1      -23.728  83.921  17.233  0.00  0.00    +0.294 HD
ENDBRANCH  31  32
BRANCH  30  34
ATOM     34  C   LIG    1      -22.698  86.059  14.822  0.00  0.00    +0.184 C 
BRANCH  34  36
ATOM     35  C   LIG    1      -20.719  86.870  13.434  0.00  0.00    +0.123 A 
ATOM     36  C   LIG    1      -22.090  86.915  13.736  0.00  0.00    +0.014 A 
ATOM     37  C   LIG    1      -22.911  87.737  12.942  0.00  0.00    +0.010 A 
ATOM     38  C   LIG    1      -22.360  88.523  11.943  0.00  0.00    +0.020 A 
ATOM     39  C   LIG    1      -21.000  88.439  11.741  0.00  0.00    +0.113 A 
ATOM     40  N   LIG    1      -20.185  87.630  12.449  0.00  0.00    -0.240 NA
BRANCH  35  42
ATOM     41  C   LIG    1      -18.676  85.600  13.404  0.00  0.00    +0.127 C 
ATOM     42  N   LIG    1      -19.872  85.992  14.138  0.00  0.00    -0.332 N 
ATOM     43  H   LIG    1      -19.632  86.413  15.030  0.00  0.00    +0.147 HD
ENDBRANCH  35  42
ENDBRANCH  34  36
ENDBRANCH  30  34
ENDBRANCH   1  31
TORSDOF 9
ENDMDL
MODEL 6
REMARK VINA RESULT:      -6.7      9.814     14.569
REMARK  Name = pdb/CHEMBL3940562.pdb
REMARK                            x       y       z     vdW  Elec       q    Type
REMARK                         _______ _______ _______ _____ _____    ______ ____
ROOT
ATOM      1  C   LIG    1      -37.841  70.370  24.264  0.00  0.00    +0.149 A 
ATOM      2  N   LIG    1      -39.110  70.742  24.025  0.00  0.00    -0.160 NA
ATOM      3  N   LIG    1      -39.108  72.101  24.200  0.00  0.00    -0.218 N 
ATOM      4  C   LIG    1      -37.901  72.541  24.744  0.00  0.00    +0.129 A 
ATOM      5  C   LIG    1      -37.063  71.456  24.705  0.00  0.00    +0.078 A 
ENDROOT
BRANCH   3   6
ATOM      6  C   LIG    1      -40.265  72.853  23.848  0.00  0.00    +0.067 A 
ATOM      7  C   LIG    1      -40.302  74.245  23.989  0.00  0.00    +0.028 A 
ATOM      8  C   LIG    1      -41.421  74.961  23.550  0.00  0.00    +0.002 A 
ATOM      9  C   LIG    1      -42.504  74.294  22.977  0.00  0.00    +0.000 A 
ATOM     10  C   LIG    1      -42.476  72.908  22.843  0.00  0.00    +0.002 A 
ATOM     11  C   LIG    1      -41.358  72.188  23.267  0.00  0.00    +0.028 A 
ENDBRANCH   3   6
BRANCH   4  12
ATOM     12  N   LIG    1      -37.579  73.800  25.276  0.00  0.00    -0.266 N 
ATOM     13  H   LIG    1      -37.237  74.520  24.655  0.00  0.00    +0.157 HD
ATOM     14  C   LIG    1      -37.872  74.143  26.647  0.00  0.00    +0.251 C 
ATOM     15  O   LIG    1      -38.419  73.354  27.389  0.00  0.00    -0.270 OA
BRANCH  14  16
ATOM     16  C   LIG    1      -37.601  75.524  27.104  0.00  0.00    +0.056 A 
ATOM     17  C   LIG    1      -38.589  76.465  27.382  0.00  0.00    +0.056 A 
ATOM     18 CL   LIG    1      -40.275  76.160  27.193  0.00  0.00    -0.083 Cl
ATOM     19  C   LIG    1      -38.221  77.738  27.799  0.00  0.00    +0.059 A 
ATOM     20  C   LIG    1      -36.875  78.079  27.921  0.00  0.00    +0.134 A 
ATOM     21  F   LIG    1      -36.627  79.331  28.327  0.00  0.00    -0.205 F 
ATOM     22  C   LIG    1      -35.837  77.181  27.632  0.00  0.00    +0.036 A 
ATOM     23  C   LIG    1      -36.240  75.891  27.222  0.00  0.00    +0.027 A 
BRANCH  22  24
ATOM     24  C   LIG    1      -34.397  77.532  27.726  0.00  0.00    +0.074 A 
ATOM     25  N   LIG    1      -34.039  78.705  27.138  0.00  0.00    -0.255 NA
ATOM     26  C   LIG    1      -32.738  79.082  27.195  0.00  0.00    +0.111 A 
ATOM     27  C   LIG    1      -31.749  78.342  27.815  0.00  0.00    +0.020 A 
ATOM     28  C   LIG    1      -32.112  77.149  28.412  0.00  0.00    +0.004 A 
ATOM     29  C   LIG    1      -33.442  76.742  28.366  0.00  0.00    +0.028 A 
ENDBRANCH  22  24
ENDBRANCH  14  16
ENDBRANCH   4  12
BRANCH   1  31
ATOM     30  N   LIG    1      -36.452  68.761  23.209  0.00  0.00    -0.244 NA
ATOM     31  C   LIG    1      -37.376  69.003  24.067  0.00  0.00    +0.236 C 
BRANCH  31  32
ATOM     32  O   LIG    1      -38.001  68.061  24.808  0.00  0.00    -0.491 OA
ATOM     33  H   LIG    1      -37.639  68.072  25.713  0.00  0.00    +0.294 HD
ENDBRANCH  31  32
BRANCH  30  34
ATOM     34  C   LIG    1      -36.082  67.349  23.023  0.00  0.00    +0.184 C 
BRANCH  34  36
ATOM     35  C   LIG    1      -36.141  67.258  20.475  0.00  0.00    +0.123 A 
ATOM     36  C   LIG    1      -35.451  67.053  21.683  0.00  0.00    +0.014 A 
ATOM     37  C   LIG    1      -34.113  66.626  21.611  0.00  0.00    +0.010 A 
ATOM     38  C   LIG    1      -33.527  66.355  20.384  0.00  0.00    +0.020 A 
ATOM     39  C   LIG    1      -34.291  66.552  19.255  0.00  0.00    +0.113 A 
ATOM     40  N   LIG    1      -35.562  67.003  19.278  0.00  0.00    -0.240 NA
BRANCH  35  42
ATOM     41  C   LIG    1      -38.430  66.939  19.809  0.00  0.00    +0.127 C 
ATOM     42  N   LIG    1      -37.450  67.774  20.492  0.00  0.00    -0.332 N 
ATOM     43  H   LIG    1      -37.723  67.945  21.455  0.00  0.00    +0.147 HD
ENDBRANCH  35  42
ENDBRANCH  34  36
ENDBRANCH  30  34
ENDBRANCH   1  31
TORSDOF 9
ENDMDL
MODEL 7
REMARK VINA RESULT:      -6.7      2.244      3.343
REMARK  Name = pdb/CHEMBL3940562.pdb
REMARK                            x       y       z     vdW  Elec       q    Type
REMARK                         _______ _______ _______ _____ _____    ______ ____
ROOT
ATOM      1  C   LIG    1      -27.470  76.119  31.952  0.00  0.00    +0.149 A 
ATOM      2  N   LIG    1      -27.010  74.890  31.659  0.00  0.00    -0.160 NA
ATOM      3  N   LIG    1      -25.699  74.910  32.059  0.00  0.00    -0.218 N 
ATOM      4  C   LIG    1      -25.293  76.201  32.404  0.00  0.00    +0.129 A 
ATOM      5  C   LIG    1      -26.439  76.954  32.419  0.00  0.00    +0.078 A 
ENDROOT
BRANCH   3   6
ATOM      6  C   LIG    1      -24.950  73.700  32.060  0.00  0.00    +0.067 A 
ATOM      7  C   LIG    1      -24.556  73.085  33.254  0.00  0.00    +0.028 A 
ATOM      8  C   LIG    1      -23.898  71.851  33.219  0.00  0.00    +0.002 A 
ATOM      9  C   LIG    1      -23.627  71.232  32.000  0.00  0.00    +0.000 A 
ATOM     10  C   LIG    1      -24.007  71.843  30.809  0.00  0.00    +0.002 A 
ATOM     11  C   LIG    1      -24.676  73.068  30.835  0.00  0.00    +0.028 A 
ENDBRANCH   3   6
BRANCH   4  12
ATOM     12  N   LIG    1      -23.998  76.683  32.645  0.00  0.00    -0.266 N 
ATOM     13  H   LIG    1      -23.527  76.418  33.499  0.00  0.00    +0.157 HD
ATOM     14  C   LIG    1      -23.260  77.413  31.641  0.00  0.00    +0.251 C 
ATOM     15  O   LIG    1      -23.733  77.627  30.545  0.00  0.00    -0.270 OA
BRANCH  14  16
ATOM     16  C   LIG    1      -21.860  77.796  31.931  0.00  0.00    +0.056 A 
ATOM     17  C   LIG    1      -20.780  77.502  31.102  0.00  0.00    +0.056 A 
ATOM     18 CL   LIG    1      -20.921  76.611  29.634  0.00  0.00    -0.083 Cl
ATOM     19  C   LIG    1      -19.504  77.904  31.476  0.00  0.00    +0.059 A 
ATOM     20  C   LIG    1      -19.301  78.580  32.678  0.00  0.00    +0.134 A 
ATOM     21  F   LIG    1      -18.034  78.920  32.946  0.00  0.00    -0.205 F 
ATOM     22  C   LIG    1      -20.346  78.881  33.563  0.00  0.00    +0.036 A 
ATOM     23  C   LIG    1      -21.634  78.472  33.152  0.00  0.00    +0.027 A 
BRANCH  22  24
ATOM     24  C   LIG    1      -20.149  79.574  34.862  0.00  0.00    +0.074 A 
ATOM     25  N   LIG    1      -19.243  79.003  35.700  0.00  0.00    -0.255 NA
ATOM     26  C   LIG    1      -19.015  79.592  36.899  0.00  0.00    +0.111 A 
ATOM     27  C   LIG    1      -19.653  80.740  37.326  0.00  0.00    +0.020 A 
ATOM     28  C   LIG    1      -20.576  81.321  36.475  0.00  0.00    +0.004 A 
ATOM     29  C   LIG    1      -20.826  80.734  35.239  0.00  0.00    +0.028 A 
ENDBRANCH  22  24
ENDBRANCH  14  16
ENDBRANCH   4  12
BRANCH   1  31
ATOM     30  N   LIG    1      -29.705  75.636  31.317  0.00  0.00    -0.244 NA
ATOM     31  C   LIG    1      -28.871  76.488  31.795  0.00  0.00    +0.236 C 
BRANCH  31  32
ATOM     32  O   LIG    1      -29.184  77.754  32.148  0.00  0.00    -0.491 OA
ATOM     33  H   LIG    1      -29.762  77.735  32.933  0.00  0.00    +0.294 HD
ENDBRANCH  31  32
BRANCH  30  34
ATOM     34  C   LIG    1      -31.087  76.105  31.131  0.00  0.00    +0.184 C 
BRANCH  34  36
ATOM     35  C   LIG    1      -32.792  75.852  29.251  0.00  0.00    +0.123 A 
ATOM     36  C   LIG    1      -31.891  75.271  30.161  0.00  0.00    +0.014 A 
ATOM     37  C   LIG    1      -31.699  73.879  30.098  0.00  0.00    +0.010 A 
ATOM     38  C   LIG    1      -32.432  73.110  29.208  0.00  0.00    +0.020 A 
ATOM     39  C   LIG    1      -33.317  73.761  28.378  0.00  0.00    +0.113 A 
ATOM     40  N   LIG    1      -33.497  75.099  28.375  0.00  0.00    -0.240 NA
BRANCH  35  42
ATOM     41  C   LIG    1      -32.393  77.880  28.021  0.00  0.00    +0.127 C 
ATOM     42  N   LIG    1      -32.949  77.250  29.212  0.00  0.00    -0.332 N 
ATOM     43  H   LIG    1      -33.933  77.473  29.318  0.00  0.00    +0.147 HD
ENDBRANCH  35  42
ENDBRANCH  34  36
ENDBRANCH  30  34
ENDBRANCH   1  31
TORSDOF 9
ENDMDL
MODEL 8
REMARK VINA RESULT:      -6.7      8.416     11.677
REMARK  Name = pdb/CHEMBL3940562.pdb
REMARK                            x       y       z     vdW  Elec       q    Type
REMARK                         _______ _______ _______ _____ _____    ______ ____
ROOT
ATOM      1  C   LIG    1      -37.305  70.197  24.862  0.00  0.00    +0.149 A 
ATOM      2  N   LIG    1      -36.767  69.062  25.340  0.00  0.00    -0.160 NA
ATOM      3  N   LIG    1      -35.812  69.481  26.228  0.00  0.00    -0.218 N 
ATOM      4  C   LIG    1      -35.617  70.861  26.150  0.00  0.00    +0.129 A 
ATOM      5  C   LIG    1      -36.624  71.329  25.345  0.00  0.00    +0.078 A 
ENDROOT
BRANCH   3   6
ATOM      6  C   LIG    1      -35.163  68.525  27.059  0.00  0.00    +0.067 A 
ATOM      7  C   LIG    1      -34.443  67.454  26.516  0.00  0.00    +0.028 A 
ATOM      8  C   LIG    1      -33.744  66.585  27.361  0.00  0.00    +0.002 A 
ATOM      9  C   LIG    1      -33.764  66.775  28.742  0.00  0.00    +0.000 A 
ATOM     10  C   LIG    1      -34.488  67.832  29.287  0.00  0.00    +0.002 A 
ATOM     11  C   LIG    1      -35.177  68.712  28.451  0.00  0.00    +0.028 A 
ENDBRANCH   3   6
BRANCH   4  12
ATOM     12  N   LIG    1      -34.596  71.641  26.715  0.00  0.00    -0.266 N 
ATOM     13  H   LIG    1      -33.756  71.811  26.179  0.00  0.00    +0.157 HD
ATOM     14  C   LIG    1      -34.776  72.338  27.967  0.00  0.00    +0.251 C 
ATOM     15  O   LIG    1      -35.825  72.281  28.572  0.00  0.00    -0.270 OA
BRANCH  14  16
ATOM     16  C   LIG    1      -33.693  73.226  28.444  0.00  0.00    +0.056 A 
ATOM     17  C   LIG    1      -32.637  72.810  29.252  0.00  0.00    +0.056 A 
ATOM     18 CL   LIG    1      -32.468  71.200  29.845  0.00  0.00    -0.083 Cl
ATOM     19  C   LIG    1      -31.677  73.732  29.648  0.00  0.00    +0.059 A 
ATOM     20  C   LIG    1      -31.775  75.066  29.256  0.00  0.00    +0.134 A 
ATOM     21  F   LIG    1      -30.800  75.873  29.693  0.00  0.00    -0.205 F 
ATOM     22  C   LIG    1      -32.828  75.547  28.464  0.00  0.00    +0.036 A 
ATOM     23  C   LIG    1      -33.783  74.585  28.066  0.00  0.00    +0.027 A 
BRANCH  22  24
ATOM     24  C   LIG    1      -32.968  76.969  28.059  0.00  0.00    +0.074 A 
ATOM     25  N   LIG    1      -33.819  77.713  28.816  0.00  0.00    -0.255 NA
ATOM     26  C   LIG    1      -33.986  79.020  28.500  0.00  0.00    +0.111 A 
ATOM     27  C   LIG    1      -33.345  79.645  27.447  0.00  0.00    +0.020 A 
ATOM     28  C   LIG    1      -32.480  78.889  26.676  0.00  0.00    +0.004 A 
ATOM     29  C   LIG    1      -32.293  77.545  26.983  0.00  0.00    +0.028 A 
ENDBRANCH  22  24
ENDBRANCH  14  16
ENDBRANCH   4  12
BRANCH   1  31
ATOM     30  N   LIG    1      -39.350  71.116  24.085  0.00  0.00    -0.244 NA
ATOM     31  C   LIG    1      -38.455  70.203  23.967  0.00  0.00    +0.236 C 
BRANCH  31  32
ATOM     32  O   LIG    1      -38.504  69.189  23.074  0.00  0.00    -0.491 OA
ATOM     33  H   LIG    1      -37.790  68.555  23.269  0.00  0.00    +0.294 HD
ENDBRANCH  31  32
BRANCH  30  34
ATOM     34  C   LIG    1      -40.511  71.016  23.186  0.00  0.00    +0.184 C 
BRANCH  34  36
ATOM     35  C   LIG    1      -42.461  72.382  22.273  0.00  0.00    +0.123 A 
ATOM     36  C   LIG    1      -41.298  72.299  23.057  0.00  0.00    +0.014 A 
ATOM     37  C   LIG    1      -40.915  73.438  23.788  0.00  0.00    +0.010 A 
ATOM     38  C   LIG    1      -41.635  74.618  23.676  0.00  0.00    +0.020 A 
ATOM     39  C   LIG    1      -42.742  74.616  22.857  0.00  0.00    +0.113 A 
ATOM     40  N   LIG    1      -43.168  73.532  22.174  0.00  0.00    -0.240 NA
BRANCH  35  42
ATOM     41  C   LIG    1      -42.729  71.272  20.155  0.00  0.00    +0.127 C 
ATOM     42  N   LIG    1      -42.936  71.242  21.597  0.00  0.00    -0.332 N 
ATOM     43  H   LIG    1      -42.514  70.416  22.010  0.00  0.00    +0.147 HD
ENDBRANCH  35  42
ENDBRANCH  34  36
ENDBRANCH  30  34
ENDBRANCH   1  31
TORSDOF 9
ENDMDL
MODEL 9
REMARK VINA RESULT:      -6.6     18.168     21.153
REMARK  Name = pdb/CHEMBL3940562.pdb
REMARK                            x       y       z     vdW  Elec       q    Type
REMARK                         _______ _______ _______ _____ _____    ______ ____
ROOT
ATOM      1  C   LIG    1      -23.012  81.738  15.282  0.00  0.00    +0.149 A 
ATOM      2  N   LIG    1      -22.308  80.629  15.565  0.00  0.00    -0.160 NA
ATOM      3  N   LIG    1      -22.852  79.663  14.761  0.00  0.00    -0.218 N 
ATOM      4  C   LIG    1      -24.016  80.116  14.138  0.00  0.00    +0.129 A 
ATOM      5  C   LIG    1      -24.072  81.461  14.399  0.00  0.00    +0.078 A 
ENDROOT
BRANCH   3   6
ATOM      6  C   LIG    1      -22.220  78.390  14.674  0.00  0.00    +0.067 A 
ATOM      7  C   LIG    1      -22.744  77.267  15.326  0.00  0.00    +0.028 A 
ATOM      8  C   LIG    1      -22.148  76.015  15.146  0.00  0.00    +0.002 A 
ATOM      9  C   LIG    1      -21.029  75.878  14.325  0.00  0.00    +0.000 A 
ATOM     10  C   LIG    1      -20.497  76.993  13.682  0.00  0.00    +0.002 A 
ATOM     11  C   LIG    1      -21.094  78.244  13.846  0.00  0.00    +0.028 A 
ENDBRANCH   3   6
BRANCH   4  12
ATOM     12  N   LIG    1      -24.979  79.383  13.427  0.00  0.00    -0.266 N 
ATOM     13  H   LIG    1      -24.905  79.324  12.421  0.00  0.00    +0.157 HD
ATOM     14  C   LIG    1      -25.974  78.582  14.101  0.00  0.00    +0.251 C 
ATOM     15  O   LIG    1      -26.005  78.506  15.311  0.00  0.00    -0.270 OA
BRANCH  14  16
ATOM     16  C   LIG    1      -26.887  77.753  13.282  0.00  0.00    +0.056 A 
ATOM     17  C   LIG    1      -26.761  76.376  13.120  0.00  0.00    +0.056 A 
ATOM     18 CL   LIG    1      -25.491  75.446  13.823  0.00  0.00    -0.083 Cl
ATOM     19  C   LIG    1      -27.672  75.697  12.322  0.00  0.00    +0.059 A 
ATOM     20  C   LIG    1      -28.694  76.388  11.673  0.00  0.00    +0.134 A 
ATOM     21  F   LIG    1      -29.517  75.641  10.925  0.00  0.00    -0.205 F 
ATOM     22  C   LIG    1      -28.855  77.777  11.780  0.00  0.00    +0.036 A 
ATOM     23  C   LIG    1      -27.922  78.440  12.607  0.00  0.00    +0.027 A 
BRANCH  22  24
ATOM     24  C   LIG    1      -29.919  78.537  11.074  0.00  0.00    +0.074 A 
ATOM     25  N   LIG    1      -30.868  79.096  11.872  0.00  0.00    -0.255 NA
ATOM     26  C   LIG    1      -31.863  79.807  11.287  0.00  0.00    +0.111 A 
ATOM     27  C   LIG    1      -31.973  79.997   9.923  0.00  0.00    +0.020 A 
ATOM     28  C   LIG    1      -31.009  79.428   9.111  0.00  0.00    +0.004 A 
ATOM     29  C   LIG    1      -29.978  78.694   9.689  0.00  0.00    +0.028 A 
ENDBRANCH  22  24
ENDBRANCH  14  16
ENDBRANCH   4  12
BRANCH   1  31
ATOM     30  N   LIG    1      -22.830  84.099  15.123  0.00  0.00    -0.244 NA
ATOM     31  C   LIG    1      -22.675  83.043  15.837  0.00  0.00    +0.236 C 
BRANCH  31  32
ATOM     32  O   LIG    1      -22.177  83.032  17.093  0.00  0.00    -0.491 OA
ATOM     33  H   LIG    1      -22.248  83.928  17.474  0.00  0.00    +0.294 HD
ENDBRANCH  31  32
BRANCH  30  34
ATOM     34  C   LIG    1      -22.408  85.371  15.731  0.00  0.00    +0.184 C 
BRANCH  34  36
ATOM     35  C   LIG    1      -20.768  86.098  13.919  0.00  0.00    +0.123 A 
ATOM     36  C   LIG    1      -21.875  86.377  14.739  0.00  0.00    +0.014 A 
ATOM     37  C   LIG    1      -22.531  87.609  14.562  0.00  0.00    +0.010 A 
ATOM     38  C   LIG    1      -22.048  88.536  13.651  0.00  0.00    +0.020 A 
ATOM     39  C   LIG    1      -20.936  88.189  12.915  0.00  0.00    +0.113 A 
ATOM     40  N   LIG    1      -20.306  87.001  13.023  0.00  0.00    -0.240 NA
BRANCH  35  42
ATOM     41  C   LIG    1      -19.254  84.550  12.871  0.00  0.00    +0.127 C 
ATOM     42  N   LIG    1      -20.136  84.842  13.994  0.00  0.00    -0.332 N 
ATOM     43  H   LIG    1      -19.640  84.777  14.876  0.00  0.00    +0.147 HD
ENDBRANCH  35  42
ENDBRANCH  34  36
ENDBRANCH  30  34
ENDBRANCH   1  31
TORSDOF 9
ENDMDL
