MODEL 1
REMARK VINA RESULT:      -6.9      0.000      0.000
REMARK  Name = pdb/CHEMBL3905830.pdb
REMARK                            x       y       z     vdW  Elec       q    Type
REMARK                         _______ _______ _______ _____ _____    ______ ____
ROOT
ATOM      1  N   LIG    1      -34.127  72.228  26.842  0.00  0.00    -0.266 N 
ATOM      2  H   LIG    1      -33.504  72.735  26.228  0.00  0.00    +0.157 HD
ATOM      3  C   LIG    1      -33.996  72.427  28.264  0.00  0.00    +0.251 C 
ATOM      4  O   LIG    1      -34.608  71.750  29.063  0.00  0.00    -0.270 OA
ENDROOT
BRANCH   3   5
ATOM      5  C   LIG    1      -33.074  73.502  28.717  0.00  0.00    +0.056 A 
ATOM      6  C   LIG    1      -31.932  73.275  29.485  0.00  0.00    +0.056 A 
ATOM      7 CL   LIG    1      -31.422  71.711  30.008  0.00  0.00    -0.083 Cl
ATOM      8  C   LIG    1      -31.151  74.351  29.895  0.00  0.00    +0.059 A 
ATOM      9  C   LIG    1      -31.491  75.650  29.524  0.00  0.00    +0.134 A 
ATOM     10  F   LIG    1      -30.719  76.639  29.994  0.00  0.00    -0.205 F 
ATOM     11  C   LIG    1      -32.610  75.927  28.728  0.00  0.00    +0.039 A 
ATOM     12  C   LIG    1      -33.416  74.825  28.363  0.00  0.00    +0.027 A 
BRANCH  11  13
ATOM     13  C   LIG    1      -32.967  77.291  28.294  0.00  0.00    +0.109 A 
ATOM     14  C   LIG    1      -32.435  77.919  27.165  0.00  0.00    +0.149 A 
ATOM     15  F   LIG    1      -31.583  77.290  26.343  0.00  0.00    -0.203 F 
ATOM     16  C   LIG    1      -32.830  79.212  26.843  0.00  0.00    +0.042 A 
ATOM     17  C   LIG    1      -33.771  79.852  27.638  0.00  0.00    +0.023 A 
ATOM     18  C   LIG    1      -34.285  79.162  28.723  0.00  0.00    +0.111 A 
ATOM     19  N   LIG    1      -33.909  77.906  29.064  0.00  0.00    -0.252 NA
ENDBRANCH  11  13
ENDBRANCH   3   5
BRANCH   1  23
ATOM     20  C   LIG    1      -35.513  69.357  25.209  0.00  0.00    +0.149 A 
ATOM     21  N   LIG    1      -36.575  70.173  25.158  0.00  0.00    -0.160 NA
ATOM     22  N   LIG    1      -36.242  71.250  25.906  0.00  0.00    -0.218 N 
ATOM     23  C   LIG    1      -34.899  71.203  26.286  0.00  0.00    +0.129 A 
ATOM     24  C   LIG    1      -34.450  69.962  25.917  0.00  0.00    +0.078 A 
BRANCH  22  25
ATOM     25  C   LIG    1      -37.211  72.267  26.123  0.00  0.00    +0.067 A 
ATOM     26  C   LIG    1      -37.570  72.683  27.411  0.00  0.00    +0.028 A 
ATOM     27  C   LIG    1      -38.548  73.671  27.572  0.00  0.00    +0.002 A 
ATOM     28  C   LIG    1      -39.161  74.249  26.459  0.00  0.00    +0.000 A 
ATOM     29  C   LIG    1      -38.818  73.827  25.178  0.00  0.00    +0.002 A 
ATOM     30  C   LIG    1      -37.859  72.828  25.009  0.00  0.00    +0.028 A 
ENDBRANCH  22  25
BRANCH  20  31
ATOM     31  C   LIG    1      -35.492  68.045  24.572  0.00  0.00    +0.236 C 
ATOM     32  N   LIG    1      -34.897  67.901  23.434  0.00  0.00    -0.246 NA
BRANCH  32  33
ATOM     33  C   LIG    1      -34.787  66.635  22.791  0.00  0.00    +0.109 C 
ATOM     34  C   LIG    1      -34.050  66.650  21.477  0.00  0.00    +0.029 C 
ATOM     35  C   LIG    1      -35.534  66.472  21.495  0.00  0.00    +0.029 C 
ENDBRANCH  32  33
BRANCH  31  36
ATOM     36  O   LIG    1      -36.122  67.066  25.254  0.00  0.00    -0.491 OA
ATOM     37  H   LIG    1      -35.504  66.470  25.684  0.00  0.00    +0.294 HD
ENDBRANCH  31  36
ENDBRANCH  20  31
ENDBRANCH   1  23
TORSDOF 7
ENDMDL
MODEL 2
REMARK VINA RESULT:      -6.4      5.721      8.720
REMARK  Name = pdb/CHEMBL3905830.pdb
REMARK                            x       y       z     vdW  Elec       q    Type
REMARK                         _______ _______ _______ _____ _____    ______ ____
ROOT
ATOM      1  N   LIG    1      -35.852  76.626  26.410  0.00  0.00    -0.266 N 
ATOM      2  H   LIG    1      -35.738  77.000  25.478  0.00  0.00    +0.157 HD
ATOM      3  C   LIG    1      -37.170  76.212  26.824  0.00  0.00    +0.251 C 
ATOM      4  O   LIG    1      -37.408  75.889  27.969  0.00  0.00    -0.270 OA
ENDROOT
BRANCH   3   5
ATOM      5  C   LIG    1      -38.234  76.198  25.787  0.00  0.00    +0.056 A 
ATOM      6  C   LIG    1      -38.736  75.035  25.203  0.00  0.00    +0.056 A 
ATOM      7 CL   LIG    1      -38.200  73.447  25.612  0.00  0.00    -0.083 Cl
ATOM      8  C   LIG    1      -39.707  75.124  24.209  0.00  0.00    +0.059 A 
ATOM      9  C   LIG    1      -40.195  76.368  23.812  0.00  0.00    +0.134 A 
ATOM     10  F   LIG    1      -41.094  76.378  22.819  0.00  0.00    -0.205 F 
ATOM     11  C   LIG    1      -39.745  77.562  24.390  0.00  0.00    +0.039 A 
ATOM     12  C   LIG    1      -38.726  77.451  25.361  0.00  0.00    +0.027 A 
BRANCH  11  13
ATOM     13  C   LIG    1      -40.274  78.885  24.008  0.00  0.00    +0.109 A 
ATOM     14  C   LIG    1      -41.585  79.304  24.250  0.00  0.00    +0.149 A 
ATOM     15  F   LIG    1      -42.461  78.537  24.912  0.00  0.00    -0.203 F 
ATOM     16  C   LIG    1      -41.992  80.571  23.844  0.00  0.00    +0.042 A 
ATOM     17  C   LIG    1      -41.077  81.411  23.226  0.00  0.00    +0.023 A 
ATOM     18  C   LIG    1      -39.784  80.948  23.047  0.00  0.00    +0.111 A 
ATOM     19  N   LIG    1      -39.366  79.716  23.422  0.00  0.00    -0.252 NA
ENDBRANCH  11  13
ENDBRANCH   3   5
BRANCH   1  23
ATOM     20  C   LIG    1      -33.096  76.287  28.674  0.00  0.00    +0.149 A 
ATOM     21  N   LIG    1      -33.557  77.485  29.065  0.00  0.00    -0.160 NA
ATOM     22  N   LIG    1      -34.508  77.820  28.163  0.00  0.00    -0.218 N 
ATOM     23  C   LIG    1      -34.781  76.757  27.301  0.00  0.00    +0.129 A 
ATOM     24  C   LIG    1      -33.829  75.807  27.566  0.00  0.00    +0.078 A 
BRANCH  22  25
ATOM     25  C   LIG    1      -35.127  79.096  28.255  0.00  0.00    +0.067 A 
ATOM     26  C   LIG    1      -34.532  80.247  27.725  0.00  0.00    +0.028 A 
ATOM     27  C   LIG    1      -35.171  81.484  27.863  0.00  0.00    +0.002 A 
ATOM     28  C   LIG    1      -36.400  81.576  28.518  0.00  0.00    +0.000 A 
ATOM     29  C   LIG    1      -36.988  80.437  29.060  0.00  0.00    +0.002 A 
ATOM     30  C   LIG    1      -36.347  79.204  28.944  0.00  0.00    +0.028 A 
ENDBRANCH  22  25
BRANCH  20  31
ATOM     31  C   LIG    1      -32.008  75.597  29.357  0.00  0.00    +0.236 C 
ATOM     32  N   LIG    1      -32.009  74.306  29.410  0.00  0.00    -0.246 NA
BRANCH  32  33
ATOM     33  C   LIG    1      -30.944  73.571  30.006  0.00  0.00    +0.109 C 
ATOM     34  C   LIG    1      -30.963  72.090  29.735  0.00  0.00    +0.029 C 
ATOM     35  C   LIG    1      -31.321  72.602  31.093  0.00  0.00    +0.029 C 
ENDBRANCH  32  33
BRANCH  31  36
ATOM     36  O   LIG    1      -31.067  76.401  29.893  0.00  0.00    -0.491 OA
ATOM     37  H   LIG    1      -30.218  75.959  29.973  0.00  0.00    +0.294 HD
ENDBRANCH  31  36
ENDBRANCH  20  31
ENDBRANCH   1  23
TORSDOF 7
ENDMDL
MODEL 3
REMARK VINA RESULT:      -6.3     18.468     20.584
REMARK  Name = pdb/CHEMBL3905830.pdb
REMARK                            x       y       z     vdW  Elec       q    Type
REMARK                         _______ _______ _______ _____ _____    ______ ____
ROOT
ATOM      1  N   LIG    1      -21.594  80.924  13.694  0.00  0.00    -0.266 N 
ATOM      2  H   LIG    1      -21.053  80.815  12.847  0.00  0.00    +0.157 HD
ATOM      3  C   LIG    1      -21.256  82.006  14.586  0.00  0.00    +0.251 C 
ATOM      4  O   LIG    1      -21.766  82.112  15.682  0.00  0.00    -0.270 OA
ENDROOT
BRANCH   3   5
ATOM      5  C   LIG    1      -20.252  82.992  14.108  0.00  0.00    +0.056 A 
ATOM      6  C   LIG    1      -18.894  82.711  13.961  0.00  0.00    +0.056 A 
ATOM      7 CL   LIG    1      -18.190  81.173  14.303  0.00  0.00    -0.083 Cl
ATOM      8  C   LIG    1      -18.022  83.713  13.543  0.00  0.00    +0.059 A 
ATOM      9  C   LIG    1      -18.504  84.987  13.250  0.00  0.00    +0.134 A 
ATOM     10  F   LIG    1      -17.600  85.911  12.899  0.00  0.00    -0.205 F 
ATOM     11  C   LIG    1      -19.863  85.310  13.352  0.00  0.00    +0.039 A 
ATOM     12  C   LIG    1      -20.722  84.292  13.823  0.00  0.00    +0.027 A 
BRANCH  11  13
ATOM     13  C   LIG    1      -20.397  86.642  13.012  0.00  0.00    +0.109 A 
ATOM     14  C   LIG    1      -20.420  87.725  13.895  0.00  0.00    +0.149 A 
ATOM     15  F   LIG    1      -19.895  87.645  15.125  0.00  0.00    -0.203 F 
ATOM     16  C   LIG    1      -20.952  88.942  13.482  0.00  0.00    +0.042 A 
ATOM     17  C   LIG    1      -21.431  89.068  12.186  0.00  0.00    +0.023 A 
ATOM     18  C   LIG    1      -21.348  87.967  11.350  0.00  0.00    +0.111 A 
ATOM     19  N   LIG    1      -20.844  86.769  11.730  0.00  0.00    -0.252 NA
ENDBRANCH  11  13
ENDBRANCH   3   5
BRANCH   1  23
ATOM     20  C   LIG    1      -24.308  78.732  14.509  0.00  0.00    +0.149 A 
ATOM     21  N   LIG    1      -23.324  78.127  15.190  0.00  0.00    -0.160 NA
ATOM     22  N   LIG    1      -22.186  78.762  14.825  0.00  0.00    -0.218 N 
ATOM     23  C   LIG    1      -22.464  79.889  14.050  0.00  0.00    +0.129 A 
ATOM     24  C   LIG    1      -23.806  79.831  13.775  0.00  0.00    +0.078 A 
BRANCH  22  25
ATOM     25  C   LIG    1      -20.941  78.282  15.314  0.00  0.00    +0.067 A 
ATOM     26  C   LIG    1      -20.174  79.015  16.228  0.00  0.00    +0.028 A 
ATOM     27  C   LIG    1      -18.943  78.510  16.661  0.00  0.00    +0.002 A 
ATOM     28  C   LIG    1      -18.479  77.279  16.194  0.00  0.00    +0.000 A 
ATOM     29  C   LIG    1      -19.231  76.555  15.274  0.00  0.00    +0.002 A 
ATOM     30  C   LIG    1      -20.449  77.061  14.822  0.00  0.00    +0.028 A 
ENDBRANCH  22  25
BRANCH  20  31
ATOM     31  C   LIG    1      -25.699  78.301  14.580  0.00  0.00    +0.236 C 
ATOM     32  N   LIG    1      -26.214  77.652  13.589  0.00  0.00    -0.246 NA
BRANCH  32  33
ATOM     33  C   LIG    1      -27.547  77.149  13.622  0.00  0.00    +0.109 C 
ATOM     34  C   LIG    1      -27.955  76.346  12.415  0.00  0.00    +0.029 C 
ATOM     35  C   LIG    1      -28.507  77.720  12.615  0.00  0.00    +0.029 C 
ENDBRANCH  32  33
BRANCH  31  36
ATOM     36  O   LIG    1      -26.346  78.636  15.716  0.00  0.00    -0.491 OA
ATOM     37  H   LIG    1      -26.035  79.470  16.076  0.00  0.00    +0.294 HD
ENDBRANCH  31  36
ENDBRANCH  20  31
ENDBRANCH   1  23
TORSDOF 7
ENDMDL
MODEL 4
REMARK VINA RESULT:      -6.2      8.013     14.663
REMARK  Name = pdb/CHEMBL3905830.pdb
REMARK                            x       y       z     vdW  Elec       q    Type
REMARK                         _______ _______ _______ _____ _____    ______ ____
ROOT
ATOM      1  N   LIG    1      -33.427  84.655  29.221  0.00  0.00    -0.266 N 
ATOM      2  H   LIG    1      -33.583  84.601  28.223  0.00  0.00    +0.157 HD
ATOM      3  C   LIG    1      -34.120  83.720  30.072  0.00  0.00    +0.251 C 
ATOM      4  O   LIG    1      -34.092  83.815  31.281  0.00  0.00    -0.270 OA
ENDROOT
BRANCH   3   5
ATOM      5  C   LIG    1      -34.876  82.627  29.406  0.00  0.00    +0.056 A 
ATOM      6  C   LIG    1      -36.257  82.640  29.215  0.00  0.00    +0.056 A 
ATOM      7 CL   LIG    1      -37.283  83.935  29.715  0.00  0.00    -0.083 Cl
ATOM      8  C   LIG    1      -36.882  81.551  28.615  0.00  0.00    +0.059 A 
ATOM      9  C   LIG    1      -36.132  80.458  28.185  0.00  0.00    +0.134 A 
ATOM     10  F   LIG    1      -36.807  79.428  27.659  0.00  0.00    -0.205 F 
ATOM     11  C   LIG    1      -34.740  80.411  28.326  0.00  0.00    +0.039 A 
ATOM     12  C   LIG    1      -34.131  81.505  28.980  0.00  0.00    +0.027 A 
BRANCH  11  13
ATOM     13  C   LIG    1      -33.924  79.279  27.845  0.00  0.00    +0.109 A 
ATOM     14  C   LIG    1      -33.940  78.004  28.416  0.00  0.00    +0.149 A 
ATOM     15  F   LIG    1      -34.758  77.695  29.431  0.00  0.00    -0.203 F 
ATOM     16  C   LIG    1      -33.127  77.003  27.895  0.00  0.00    +0.042 A 
ATOM     17  C   LIG    1      -32.329  77.282  26.794  0.00  0.00    +0.023 A 
ATOM     18  C   LIG    1      -32.386  78.556  26.254  0.00  0.00    +0.111 A 
ATOM     19  N   LIG    1      -33.160  79.551  26.749  0.00  0.00    -0.252 NA
ENDBRANCH  11  13
ENDBRANCH   3   5
BRANCH   1  23
ATOM     20  C   LIG    1      -31.273  87.057  30.778  0.00  0.00    +0.149 A 
ATOM     21  N   LIG    1      -32.384  87.800  30.660  0.00  0.00    -0.160 NA
ATOM     22  N   LIG    1      -33.239  87.060  29.918  0.00  0.00    -0.218 N 
ATOM     23  C   LIG    1      -32.744  85.771  29.715  0.00  0.00    +0.129 A 
ATOM     24  C   LIG    1      -31.457  85.786  30.187  0.00  0.00    +0.078 A 
BRANCH  22  25
ATOM     25  C   LIG    1      -34.488  87.622  29.538  0.00  0.00    +0.067 A 
ATOM     26  C   LIG    1      -34.615  88.448  28.415  0.00  0.00    +0.028 A 
ATOM     27  C   LIG    1      -35.862  88.997  28.096  0.00  0.00    +0.002 A 
ATOM     28  C   LIG    1      -36.979  88.721  28.885  0.00  0.00    +0.000 A 
ATOM     29  C   LIG    1      -36.854  87.913  30.011  0.00  0.00    +0.002 A 
ATOM     30  C   LIG    1      -35.610  87.378  30.347  0.00  0.00    +0.028 A 
ENDBRANCH  22  25
BRANCH  20  31
ATOM     31  C   LIG    1      -30.076  87.527  31.465  0.00  0.00    +0.236 C 
ATOM     32  N   LIG    1      -29.987  87.395  32.747  0.00  0.00    -0.246 NA
BRANCH  32  33
ATOM     33  C   LIG    1      -28.819  87.776  33.469  0.00  0.00    +0.109 C 
ATOM     34  C   LIG    1      -29.010  87.928  34.956  0.00  0.00    +0.029 C 
ATOM     35  C   LIG    1      -28.834  89.141  34.100  0.00  0.00    +0.029 C 
ENDBRANCH  32  33
BRANCH  31  36
ATOM     36  O   LIG    1      -29.138  88.080  30.669  0.00  0.00    -0.491 OA
ATOM     37  H   LIG    1      -28.618  88.744  31.130  0.00  0.00    +0.294 HD
ENDBRANCH  31  36
ENDBRANCH  20  31
ENDBRANCH   1  23
TORSDOF 7
ENDMDL
MODEL 5
REMARK VINA RESULT:      -6.2      4.487      9.599
REMARK  Name = pdb/CHEMBL3905830.pdb
REMARK                            x       y       z     vdW  Elec       q    Type
REMARK                         _______ _______ _______ _____ _____    ______ ____
ROOT
ATOM      1  N   LIG    1      -37.397  74.036  25.073  0.00  0.00    -0.266 N 
ATOM      2  H   LIG    1      -37.111  73.843  24.122  0.00  0.00    +0.157 HD
ATOM      3  C   LIG    1      -37.624  72.920  25.958  0.00  0.00    +0.251 C 
ATOM      4  O   LIG    1      -38.102  73.069  27.063  0.00  0.00    -0.270 OA
ENDROOT
BRANCH   3   5
ATOM      5  C   LIG    1      -37.247  71.571  25.460  0.00  0.00    +0.056 A 
ATOM      6  C   LIG    1      -36.129  70.864  25.899  0.00  0.00    +0.056 A 
ATOM      7 CL   LIG    1      -35.029  71.451  27.093  0.00  0.00    -0.083 Cl
ATOM      8  C   LIG    1      -35.836  69.621  25.345  0.00  0.00    +0.059 A 
ATOM      9  C   LIG    1      -36.666  69.071  24.371  0.00  0.00    +0.134 A 
ATOM     10  F   LIG    1      -36.296  67.894  23.851  0.00  0.00    -0.205 F 
ATOM     11  C   LIG    1      -37.818  69.728  23.920  0.00  0.00    +0.039 A 
ATOM     12  C   LIG    1      -38.070  71.009  24.460  0.00  0.00    +0.027 A 
BRANCH  11  13
ATOM     13  C   LIG    1      -38.730  69.147  22.915  0.00  0.00    +0.109 A 
ATOM     14  C   LIG    1      -38.390  68.940  21.576  0.00  0.00    +0.149 A 
ATOM     15  F   LIG    1      -37.163  69.208  21.109  0.00  0.00    -0.203 F 
ATOM     16  C   LIG    1      -39.323  68.392  20.703  0.00  0.00    +0.042 A 
ATOM     17  C   LIG    1      -40.575  68.035  21.185  0.00  0.00    +0.023 A 
ATOM     18  C   LIG    1      -40.836  68.234  22.530  0.00  0.00    +0.111 A 
ATOM     19  N   LIG    1      -39.950  68.776  23.398  0.00  0.00    -0.252 NA
ENDBRANCH  11  13
ENDBRANCH   3   5
BRANCH   1  23
ATOM     20  C   LIG    1      -37.887  77.346  26.350  0.00  0.00    +0.149 A 
ATOM     21  N   LIG    1      -39.104  77.129  25.830  0.00  0.00    -0.160 NA
ATOM     22  N   LIG    1      -39.005  75.963  25.150  0.00  0.00    -0.218 N 
ATOM     23  C   LIG    1      -37.776  75.345  25.387  0.00  0.00    +0.129 A 
ATOM     24  C   LIG    1      -37.027  76.258  26.083  0.00  0.00    +0.078 A 
BRANCH  22  25
ATOM     25  C   LIG    1      -40.122  75.503  24.401  0.00  0.00    +0.067 A 
ATOM     26  C   LIG    1      -40.373  74.139  24.210  0.00  0.00    +0.028 A 
ATOM     27  C   LIG    1      -41.473  73.739  23.443  0.00  0.00    +0.002 A 
ATOM     28  C   LIG    1      -42.324  74.688  22.876  0.00  0.00    +0.000 A 
ATOM     29  C   LIG    1      -42.069  76.045  23.051  0.00  0.00    +0.002 A 
ATOM     30  C   LIG    1      -40.963  76.453  23.796  0.00  0.00    +0.028 A 
ENDBRANCH  22  25
BRANCH  20  31
ATOM     31  C   LIG    1      -37.557  78.544  27.114  0.00  0.00    +0.236 C 
ATOM     32  N   LIG    1      -36.344  78.722  27.522  0.00  0.00    -0.246 NA
BRANCH  32  33
ATOM     33  C   LIG    1      -35.944  79.900  28.218  0.00  0.00    +0.109 C 
ATOM     34  C   LIG    1      -34.715  80.577  27.669  0.00  0.00    +0.029 C 
ATOM     35  C   LIG    1      -34.639  79.830  28.962  0.00  0.00    +0.029 C 
ENDBRANCH  32  33
BRANCH  31  36
ATOM     36  O   LIG    1      -38.588  79.385  27.335  0.00  0.00    -0.491 OA
ATOM     37  H   LIG    1      -39.100  79.134  28.108  0.00  0.00    +0.294 HD
ENDBRANCH  31  36
ENDBRANCH  20  31
ENDBRANCH   1  23
TORSDOF 7
ENDMDL
MODEL 6
REMARK VINA RESULT:      -6.2     17.339     19.537
REMARK  Name = pdb/CHEMBL3905830.pdb
REMARK                            x       y       z     vdW  Elec       q    Type
REMARK                         _______ _______ _______ _____ _____    ______ ____
ROOT
ATOM      1  N   LIG    1      -25.207  81.254  13.392  0.00  0.00    -0.266 N 
ATOM      2  H   LIG    1      -25.859  81.898  13.821  0.00  0.00    +0.157 HD
ATOM      3  C   LIG    1      -24.354  81.745  12.339  0.00  0.00    +0.251 C 
ATOM      4  O   LIG    1      -23.653  81.001  11.685  0.00  0.00    -0.270 OA
ENDROOT
BRANCH   3   5
ATOM      5  C   LIG    1      -24.368  83.209  12.081  0.00  0.00    +0.056 A 
ATOM      6  C   LIG    1      -25.379  83.867  11.384  0.00  0.00    +0.056 A 
ATOM      7 CL   LIG    1      -26.767  83.075  10.730  0.00  0.00    -0.083 Cl
ATOM      8  C   LIG    1      -25.284  85.238  11.158  0.00  0.00    +0.059 A 
ATOM      9  C   LIG    1      -24.195  85.957  11.645  0.00  0.00    +0.134 A 
ATOM     10  F   LIG    1      -24.149  87.263  11.350  0.00  0.00    -0.205 F 
ATOM     11  C   LIG    1      -23.170  85.348  12.379  0.00  0.00    +0.039 A 
ATOM     12  C   LIG    1      -23.262  83.949  12.555  0.00  0.00    +0.027 A 
BRANCH  11  13
ATOM     13  C   LIG    1      -22.027  86.098  12.934  0.00  0.00    +0.109 A 
ATOM     14  C   LIG    1      -21.884  86.421  14.286  0.00  0.00    +0.149 A 
ATOM     15  F   LIG    1      -22.770  86.016  15.206  0.00  0.00    -0.203 F 
ATOM     16  C   LIG    1      -20.772  87.139  14.711  0.00  0.00    +0.042 A 
ATOM     17  C   LIG    1      -19.804  87.502  13.784  0.00  0.00    +0.023 A 
ATOM     18  C   LIG    1      -19.988  87.120  12.466  0.00  0.00    +0.111 A 
ATOM     19  N   LIG    1      -21.067  86.431  12.024  0.00  0.00    -0.252 NA
ENDBRANCH  11  13
ENDBRANCH   3   5
BRANCH   1  23
ATOM     20  C   LIG    1      -26.216  77.870  13.996  0.00  0.00    +0.149 A 
ATOM     21  N   LIG    1      -25.124  77.916  14.773  0.00  0.00    -0.160 NA
ATOM     22  N   LIG    1      -24.535  79.103  14.501  0.00  0.00    -0.218 N 
ATOM     23  C   LIG    1      -25.347  79.893  13.686  0.00  0.00    +0.129 A 
ATOM     24  C   LIG    1      -26.381  79.084  13.292  0.00  0.00    +0.078 A 
BRANCH  22  25
ATOM     25  C   LIG    1      -23.287  79.410  15.108  0.00  0.00    +0.067 A 
ATOM     26  C   LIG    1      -22.129  78.674  14.830  0.00  0.00    +0.028 A 
ATOM     27  C   LIG    1      -20.929  79.001  15.472  0.00  0.00    +0.002 A 
ATOM     28  C   LIG    1      -20.879  80.059  16.381  0.00  0.00    +0.000 A 
ATOM     29  C   LIG    1      -22.031  80.782  16.672  0.00  0.00    +0.002 A 
ATOM     30  C   LIG    1      -23.235  80.450  16.052  0.00  0.00    +0.028 A 
ENDBRANCH  22  25
BRANCH  20  31
ATOM     31  C   LIG    1      -27.105  76.714  13.949  0.00  0.00    +0.236 C 
ATOM     32  N   LIG    1      -26.610  75.527  14.074  0.00  0.00    -0.246 NA
BRANCH  32  33
ATOM     33  C   LIG    1      -27.430  74.363  14.100  0.00  0.00    +0.109 C 
ATOM     34  C   LIG    1      -26.765  73.128  14.649  0.00  0.00    +0.029 C 
ATOM     35  C   LIG    1      -27.031  73.240  13.182  0.00  0.00    +0.029 C 
ENDBRANCH  32  33
BRANCH  31  36
ATOM     36  O   LIG    1      -28.410  77.002  13.769  0.00  0.00    -0.491 OA
ATOM     37  H   LIG    1      -28.819  76.430  13.115  0.00  0.00    +0.294 HD
ENDBRANCH  31  36
ENDBRANCH  20  31
ENDBRANCH   1  23
TORSDOF 7
ENDMDL
MODEL 7
REMARK VINA RESULT:      -6.2      4.330      5.691
REMARK  Name = pdb/CHEMBL3905830.pdb
REMARK                            x       y       z     vdW  Elec       q    Type
REMARK                         _______ _______ _______ _____ _____    ______ ____
ROOT
ATOM      1  N   LIG    1      -38.260  74.504  25.308  0.00  0.00    -0.266 N 
ATOM      2  H   LIG    1      -37.434  74.432  24.729  0.00  0.00    +0.157 HD
ATOM      3  C   LIG    1      -38.103  74.404  26.738  0.00  0.00    +0.251 C 
ATOM      4  O   LIG    1      -39.060  74.340  27.482  0.00  0.00    -0.270 OA
ENDROOT
BRANCH   3   5
ATOM      5  C   LIG    1      -36.716  74.382  27.269  0.00  0.00    +0.056 A 
ATOM      6  C   LIG    1      -36.112  73.253  27.822  0.00  0.00    +0.056 A 
ATOM      7 CL   LIG    1      -36.890  71.718  27.958  0.00  0.00    -0.083 Cl
ATOM      8  C   LIG    1      -34.819  73.340  28.331  0.00  0.00    +0.059 A 
ATOM      9  C   LIG    1      -34.118  74.542  28.269  0.00  0.00    +0.134 A 
ATOM     10  F   LIG    1      -32.897  74.562  28.819  0.00  0.00    -0.205 F 
ATOM     11  C   LIG    1      -34.668  75.695  27.695  0.00  0.00    +0.039 A 
ATOM     12  C   LIG    1      -35.998  75.598  27.229  0.00  0.00    +0.027 A 
BRANCH  11  13
ATOM     13  C   LIG    1      -33.929  76.968  27.588  0.00  0.00    +0.109 A 
ATOM     14  C   LIG    1      -34.142  78.069  28.421  0.00  0.00    +0.149 A 
ATOM     15  F   LIG    1      -35.013  78.028  29.437  0.00  0.00    -0.203 F 
ATOM     16  C   LIG    1      -33.398  79.229  28.235  0.00  0.00    +0.042 A 
ATOM     17  C   LIG    1      -32.435  79.265  27.237  0.00  0.00    +0.023 A 
ATOM     18  C   LIG    1      -32.250  78.128  26.468  0.00  0.00    +0.111 A 
ATOM     19  N   LIG    1      -32.968  76.990  26.621  0.00  0.00    -0.252 NA
ENDBRANCH  11  13
ENDBRANCH   3   5
BRANCH   1  23
ATOM     20  C   LIG    1      -41.248  73.779  23.470  0.00  0.00    +0.149 A 
ATOM     21  N   LIG    1      -41.300  75.119  23.455  0.00  0.00    -0.160 NA
ATOM     22  N   LIG    1      -40.307  75.530  24.277  0.00  0.00    -0.218 N 
ATOM     23  C   LIG    1      -39.506  74.458  24.674  0.00  0.00    +0.129 A 
ATOM     24  C   LIG    1      -40.146  73.329  24.232  0.00  0.00    +0.078 A 
BRANCH  22  25
ATOM     25  C   LIG    1      -40.163  76.918  24.545  0.00  0.00    +0.067 A 
ATOM     26  C   LIG    1      -40.309  77.441  25.836  0.00  0.00    +0.028 A 
ATOM     27  C   LIG    1      -40.181  78.819  26.043  0.00  0.00    +0.002 A 
ATOM     28  C   LIG    1      -39.903  79.673  24.976  0.00  0.00    +0.000 A 
ATOM     29  C   LIG    1      -39.773  79.159  23.689  0.00  0.00    +0.002 A 
ATOM     30  C   LIG    1      -39.919  77.790  23.470  0.00  0.00    +0.028 A 
ENDBRANCH  22  25
BRANCH  20  31
ATOM     31  C   LIG    1      -42.200  72.942  22.748  0.00  0.00    +0.236 C 
ATOM     32  N   LIG    1      -41.827  71.784  22.315  0.00  0.00    -0.246 NA
BRANCH  32  33
ATOM     33  C   LIG    1      -42.726  70.894  21.660  0.00  0.00    +0.109 C 
ATOM     34  C   LIG    1      -42.069  69.810  20.845  0.00  0.00    +0.029 C 
ATOM     35  C   LIG    1      -42.750  70.949  20.157  0.00  0.00    +0.029 C 
ENDBRANCH  32  33
BRANCH  31  36
ATOM     36  O   LIG    1      -43.429  73.477  22.592  0.00  0.00    -0.491 OA
ATOM     37  H   LIG    1      -43.967  73.383  23.382  0.00  0.00    +0.294 HD
ENDBRANCH  31  36
ENDBRANCH  20  31
ENDBRANCH   1  23
TORSDOF 7
ENDMDL
MODEL 8
REMARK VINA RESULT:      -6.1      4.822     10.378
REMARK  Name = pdb/CHEMBL3905830.pdb
REMARK                            x       y       z     vdW  Elec       q    Type
REMARK                         _______ _______ _______ _____ _____    ______ ____
ROOT
ATOM      1  N   LIG    1      -38.253  76.701  26.565  0.00  0.00    -0.266 N 
ATOM      2  H   LIG    1      -38.795  76.124  27.193  0.00  0.00    +0.157 HD
ATOM      3  C   LIG    1      -37.943  76.183  25.256  0.00  0.00    +0.251 C 
ATOM      4  O   LIG    1      -37.181  76.757  24.505  0.00  0.00    -0.270 OA
ENDROOT
BRANCH   3   5
ATOM      5  C   LIG    1      -38.596  74.909  24.857  0.00  0.00    +0.056 A 
ATOM      6  C   LIG    1      -39.799  74.837  24.156  0.00  0.00    +0.056 A 
ATOM      7 CL   LIG    1      -40.694  76.220  23.641  0.00  0.00    -0.083 Cl
ATOM      8  C   LIG    1      -40.355  73.595  23.861  0.00  0.00    +0.059 A 
ATOM      9  C   LIG    1      -39.703  72.424  24.244  0.00  0.00    +0.134 A 
ATOM     10  F   LIG    1      -40.320  71.268  23.967  0.00  0.00    -0.205 F 
ATOM     11  C   LIG    1      -38.478  72.443  24.922  0.00  0.00    +0.039 A 
ATOM     12  C   LIG    1      -37.956  73.714  25.253  0.00  0.00    +0.027 A 
BRANCH  11  13
ATOM     13  C   LIG    1      -37.755  71.215  25.304  0.00  0.00    +0.109 A 
ATOM     14  C   LIG    1      -37.275  70.273  24.391  0.00  0.00    +0.149 A 
ATOM     15  F   LIG    1      -37.390  70.449  23.068  0.00  0.00    -0.203 F 
ATOM     16  C   LIG    1      -36.610  69.141  24.852  0.00  0.00    +0.042 A 
ATOM     17  C   LIG    1      -36.412  68.979  26.216  0.00  0.00    +0.023 A 
ATOM     18  C   LIG    1      -36.882  69.967  27.065  0.00  0.00    +0.111 A 
ATOM     19  N   LIG    1      -37.541  71.072  26.643  0.00  0.00    -0.252 NA
ENDBRANCH  11  13
ENDBRANCH   3   5
BRANCH   1  23
ATOM     20  C   LIG    1      -37.098  79.968  27.474  0.00  0.00    +0.149 A 
ATOM     21  N   LIG    1      -36.032  79.245  27.849  0.00  0.00    -0.160 NA
ATOM     22  N   LIG    1      -36.407  77.952  27.720  0.00  0.00    -0.218 N 
ATOM     23  C   LIG    1      -37.649  77.848  27.091  0.00  0.00    +0.129 A 
ATOM     24  C   LIG    1      -38.133  79.128  27.007  0.00  0.00    +0.078 A 
BRANCH  22  25
ATOM     25  C   LIG    1      -35.511  76.929  28.134  0.00  0.00    +0.067 A 
ATOM     26  C   LIG    1      -34.657  76.284  27.232  0.00  0.00    +0.028 A 
ATOM     27  C   LIG    1      -33.811  75.266  27.686  0.00  0.00    +0.002 A 
ATOM     28  C   LIG    1      -33.807  74.896  29.031  0.00  0.00    +0.000 A 
ATOM     29  C   LIG    1      -34.666  75.524  29.928  0.00  0.00    +0.002 A 
ATOM     30  C   LIG    1      -35.527  76.525  29.480  0.00  0.00    +0.028 A 
ENDBRANCH  22  25
BRANCH  20  31
ATOM     31  C   LIG    1      -37.122  81.425  27.525  0.00  0.00    +0.236 C 
ATOM     32  N   LIG    1      -37.454  82.092  26.469  0.00  0.00    -0.246 NA
BRANCH  32  33
ATOM     33  C   LIG    1      -37.559  83.513  26.472  0.00  0.00    +0.109 C 
ATOM     34  C   LIG    1      -37.413  84.165  25.122  0.00  0.00    +0.029 C 
ATOM     35  C   LIG    1      -36.312  84.280  26.126  0.00  0.00    +0.029 C 
ENDBRANCH  32  33
BRANCH  31  36
ATOM     36  O   LIG    1      -36.781  81.963  28.715  0.00  0.00    -0.491 OA
ATOM     37  H   LIG    1      -36.247  81.364  29.242  0.00  0.00    +0.294 HD
ENDBRANCH  31  36
ENDBRANCH  20  31
ENDBRANCH   1  23
TORSDOF 7
ENDMDL
MODEL 9
REMARK VINA RESULT:      -6.1      4.368      8.219
REMARK  Name = pdb/CHEMBL3905830.pdb
REMARK                            x       y       z     vdW  Elec       q    Type
REMARK                         _______ _______ _______ _____ _____    ______ ____
ROOT
ATOM      1  N   LIG    1      -34.421  74.389  27.583  0.00  0.00    -0.266 N 
ATOM      2  H   LIG    1      -34.238  74.295  26.593  0.00  0.00    +0.157 HD
ATOM      3  C   LIG    1      -35.790  74.527  28.014  0.00  0.00    +0.251 C 
ATOM      4  O   LIG    1      -36.074  74.786  29.165  0.00  0.00    -0.270 OA
ENDROOT
BRANCH   3   5
ATOM      5  C   LIG    1      -36.848  74.341  26.987  0.00  0.00    +0.056 A 
ATOM      6  C   LIG    1      -37.212  73.102  26.460  0.00  0.00    +0.056 A 
ATOM      7 CL   LIG    1      -36.491  71.608  26.936  0.00  0.00    -0.083 Cl
ATOM      8  C   LIG    1      -38.189  73.032  25.471  0.00  0.00    +0.059 A 
ATOM      9  C   LIG    1      -38.821  74.189  25.022  0.00  0.00    +0.134 A 
ATOM     10  F   LIG    1      -39.718  74.049  24.037  0.00  0.00    -0.205 F 
ATOM     11  C   LIG    1      -38.513  75.453  25.542  0.00  0.00    +0.039 A 
ATOM     12  C   LIG    1      -37.485  75.507  26.510  0.00  0.00    +0.027 A 
BRANCH  11  13
ATOM     13  C   LIG    1      -39.196  76.687  25.106  0.00  0.00    +0.109 A 
ATOM     14  C   LIG    1      -38.724  77.527  24.094  0.00  0.00    +0.149 A 
ATOM     15  F   LIG    1      -37.620  77.235  23.392  0.00  0.00    -0.203 F 
ATOM     16  C   LIG    1      -39.436  78.673  23.759  0.00  0.00    +0.042 A 
ATOM     17  C   LIG    1      -40.623  78.951  24.422  0.00  0.00    +0.023 A 
ATOM     18  C   LIG    1      -41.054  78.060  25.391  0.00  0.00    +0.111 A 
ATOM     19  N   LIG    1      -40.374  76.943  25.743  0.00  0.00    -0.252 NA
ENDBRANCH  11  13
ENDBRANCH   3   5
BRANCH   1  23
ATOM     20  C   LIG    1      -31.794  74.369  30.017  0.00  0.00    +0.149 A 
ATOM     21  N   LIG    1      -31.911  75.692  29.831  0.00  0.00    -0.160 NA
ATOM     22  N   LIG    1      -32.764  75.838  28.791  0.00  0.00    -0.218 N 
ATOM     23  C   LIG    1      -33.331  74.615  28.429  0.00  0.00    +0.129 A 
ATOM     24  C   LIG    1      -32.657  73.663  29.149  0.00  0.00    +0.078 A 
BRANCH  22  25
ATOM     25  C   LIG    1      -33.021  77.142  28.287  0.00  0.00    +0.067 A 
ATOM     26  C   LIG    1      -32.242  77.709  27.272  0.00  0.00    +0.028 A 
ATOM     27  C   LIG    1      -32.522  79.006  26.827  0.00  0.00    +0.002 A 
ATOM     28  C   LIG    1      -33.575  79.733  27.384  0.00  0.00    +0.000 A 
ATOM     29  C   LIG    1      -34.342  79.179  28.404  0.00  0.00    +0.002 A 
ATOM     30  C   LIG    1      -34.057  77.894  28.866  0.00  0.00    +0.028 A 
ENDBRANCH  22  25
BRANCH  20  31
ATOM     31  C   LIG    1      -30.908  73.787  31.020  0.00  0.00    +0.236 C 
ATOM     32  N   LIG    1      -29.975  74.512  31.541  0.00  0.00    -0.246 NA
BRANCH  32  33
ATOM     33  C   LIG    1      -29.119  74.023  32.569  0.00  0.00    +0.109 C 
ATOM     34  C   LIG    1      -28.260  75.067  33.233  0.00  0.00    +0.029 C 
ATOM     35  C   LIG    1      -27.641  74.079  32.297  0.00  0.00    +0.029 C 
ENDBRANCH  32  33
BRANCH  31  36
ATOM     36  O   LIG    1      -31.153  72.494  31.319  0.00  0.00    -0.491 OA
ATOM     37  H   LIG    1      -31.201  72.346  32.267  0.00  0.00    +0.294 HD
ENDBRANCH  31  36
ENDBRANCH  20  31
ENDBRANCH   1  23
TORSDOF 7
ENDMDL
