MODEL 1
REMARK VINA RESULT:      -7.1      0.000      0.000
REMARK  Name = pdb/CHEMBL2152288.pdb
REMARK                            x       y       z     vdW  Elec       q    Type
REMARK                         _______ _______ _______ _____ _____    ______ ____
ROOT
ATOM      1  C   LIG    1      -19.285  80.204  37.336  0.00  0.00    +0.027 A 
ATOM      2  C   LIG    1      -19.154  79.486  36.138  0.00  0.00    +0.031 A 
ATOM      3  C   LIG    1      -19.919  79.787  34.990  0.00  0.00    -0.013 A 
ATOM      4  C   LIG    1      -20.815  80.867  35.091  0.00  0.00    +0.033 A 
ATOM      5  C   LIG    1      -20.884  81.645  36.248  0.00  0.00    +0.050 A 
ATOM      6  C   LIG    1      -20.099  81.336  37.356  0.00  0.00    +0.047 A 
ENDROOT
BRANCH   3   7
ATOM      7  C   LIG    1      -19.772  79.018  33.728  0.00  0.00    +0.001 A 
ATOM      8  C   LIG    1      -20.882  78.468  33.056  0.00  0.00    +0.022 A 
ATOM      9  C   LIG    1      -20.698  77.742  31.858  0.00  0.00    +0.027 A 
ATOM     10  C   LIG    1      -21.531  77.056  30.906  0.00  0.00    +0.009 A 
ATOM     11  C   LIG    1      -20.683  76.565  29.924  0.00  0.00    +0.093 A 
ATOM     12  N   LIG    1      -19.399  76.925  30.238  0.00  0.00    -0.345 N 
ATOM     13  H   LIG    1      -18.567  76.712  29.707  0.00  0.00    +0.167 HD
ATOM     14  C   LIG    1      -19.390  77.638  31.401  0.00  0.00    +0.139 A 
ATOM     15  N   LIG    1      -18.278  78.137  31.965  0.00  0.00    -0.237 NA
ATOM     16  C   LIG    1      -18.528  78.807  33.119  0.00  0.00    +0.121 A 
BRANCH  10  17
ATOM     17  C   LIG    1      -22.978  76.844  30.872  0.00  0.00    -0.013 A 
ATOM     18  C   LIG    1      -23.534  75.623  31.269  0.00  0.00    +0.028 A 
ATOM     19  C   LIG    1      -24.911  75.467  31.228  0.00  0.00    +0.111 A 
ATOM     20  N   LIG    1      -25.762  76.428  30.817  0.00  0.00    -0.263 NA
ATOM     21  C   LIG    1      -25.210  77.600  30.440  0.00  0.00    +0.111 A 
ATOM     22  C   LIG    1      -23.845  77.854  30.454  0.00  0.00    +0.028 A 
ENDBRANCH  10  17
ENDBRANCH   3   7
BRANCH   1  23
ATOM     23  N   LIG    1      -18.440  79.923  38.419  0.00  0.00    -0.358 N 
ATOM     24  H   LIG    1      -17.850  80.704  38.689  0.00  0.00    +0.142 HD
ATOM     25  H   LIG    1      -17.893  79.073  38.297  0.00  0.00    +0.142 HD
ENDBRANCH   1  23
BRANCH   5  26
ATOM     26  N   LIG    1      -21.791  82.740  36.291  0.00  0.00    -0.216 N 
ATOM     27  H   LIG    1      -21.392  83.667  36.458  0.00  0.00    +0.174 HD
BRANCH  26  28
ATOM     28  S   LIG    1      -23.230  82.563  37.165  0.00  0.00    +0.072 S 
ATOM     29  O   LIG    1      -24.234  83.306  36.441  0.00  0.00    -0.150 OA
ATOM     30  O   LIG    1      -22.976  82.824  38.569  0.00  0.00    -0.150 OA
BRANCH  28  31
ATOM     31  C   LIG    1      -23.600  80.833  36.980  0.00  0.00    +0.109 A 
ATOM     32  C   LIG    1      -23.909  80.310  35.719  0.00  0.00    +0.041 A 
ATOM     33  C   LIG    1      -24.172  78.939  35.569  0.00  0.00    +0.057 A 
ATOM     34  C   LIG    1      -24.088  78.104  36.696  0.00  0.00    +0.012 A 
ATOM     35  C   LIG    1      -23.753  78.626  37.947  0.00  0.00    +0.002 A 
ATOM     36  C   LIG    1      -23.508  79.992  38.093  0.00  0.00    +0.029 A 
BRANCH  33  37
ATOM     37  C   LIG    1      -24.549  78.380  34.216  0.00  0.00    +0.417 C 
ATOM     38  F   LIG    1      -24.028  77.142  33.997  0.00  0.00    -0.166 F 
ATOM     39  F   LIG    1      -24.104  79.163  33.196  0.00  0.00    -0.166 F 
ATOM     40  F   LIG    1      -25.893  78.257  34.033  0.00  0.00    -0.166 F 
ENDBRANCH  33  37
ENDBRANCH  28  31
ENDBRANCH  26  28
ENDBRANCH   5  26
TORSDOF 7
ENDMDL
MODEL 2
REMARK VINA RESULT:      -6.4     13.545     17.560
REMARK  Name = pdb/CHEMBL2152288.pdb
REMARK                            x       y       z     vdW  Elec       q    Type
REMARK                         _______ _______ _______ _____ _____    ______ ____
ROOT
ATOM      1  C   LIG    1      -34.281  68.969  26.794  0.00  0.00    +0.027 A 
ATOM      2  C   LIG    1      -33.849  69.890  27.760  0.00  0.00    +0.031 A 
ATOM      3  C   LIG    1      -34.190  71.259  27.703  0.00  0.00    -0.013 A 
ATOM      4  C   LIG    1      -35.011  71.664  26.636  0.00  0.00    +0.033 A 
ATOM      5  C   LIG    1      -35.522  70.738  25.724  0.00  0.00    +0.050 A 
ATOM      6  C   LIG    1      -35.185  69.390  25.820  0.00  0.00    +0.047 A 
ENDROOT
BRANCH   3   7
ATOM      7  C   LIG    1      -33.724  72.224  28.732  0.00  0.00    +0.001 A 
ATOM      8  C   LIG    1      -33.573  73.597  28.451  0.00  0.00    +0.022 A 
ATOM      9  C   LIG    1      -33.127  74.482  29.458  0.00  0.00    +0.027 A 
ATOM     10  C   LIG    1      -32.858  75.891  29.576  0.00  0.00    +0.009 A 
ATOM     11  C   LIG    1      -32.456  76.105  30.887  0.00  0.00    +0.093 A 
ATOM     12  N   LIG    1      -32.476  74.906  31.550  0.00  0.00    -0.345 N 
ATOM     13  H   LIG    1      -32.236  74.750  32.518  0.00  0.00    +0.167 HD
ATOM     14  C   LIG    1      -32.881  73.917  30.704  0.00  0.00    +0.139 A 
ATOM     15  N   LIG    1      -33.007  72.629  31.063  0.00  0.00    -0.237 NA
ATOM     16  C   LIG    1      -33.423  71.835  30.043  0.00  0.00    +0.121 A 
BRANCH  10  17
ATOM     17  C   LIG    1      -32.946  76.971  28.595  0.00  0.00    -0.013 A 
ATOM     18  C   LIG    1      -33.772  78.079  28.819  0.00  0.00    +0.028 A 
ATOM     19  C   LIG    1      -33.820  79.084  27.866  0.00  0.00    +0.111 A 
ATOM     20  N   LIG    1      -33.116  79.062  26.716  0.00  0.00    -0.263 NA
ATOM     21  C   LIG    1      -32.324  77.988  26.517  0.00  0.00    +0.111 A 
ATOM     22  C   LIG    1      -32.202  76.937  27.415  0.00  0.00    +0.028 A 
ENDBRANCH  10  17
ENDBRANCH   3   7
BRANCH   1  23
ATOM     23  N   LIG    1      -33.989  67.606  26.944  0.00  0.00    -0.358 N 
ATOM     24  H   LIG    1      -33.848  67.323  27.909  0.00  0.00    +0.142 HD
ATOM     25  H   LIG    1      -33.225  67.286  26.352  0.00  0.00    +0.142 HD
ENDBRANCH   1  23
BRANCH   5  26
ATOM     26  N   LIG    1      -36.367  71.197  24.674  0.00  0.00    -0.216 N 
ATOM     27  H   LIG    1      -36.245  72.166  24.371  0.00  0.00    +0.174 HD
BRANCH  26  28
ATOM     28  S   LIG    1      -38.014  70.812  24.737  0.00  0.00    +0.072 S 
ATOM     29  O   LIG    1      -38.268  70.349  26.081  0.00  0.00    -0.150 OA
ATOM     30  O   LIG    1      -38.363  69.997  23.589  0.00  0.00    -0.150 OA
BRANCH  28  31
ATOM     31  C   LIG    1      -38.803  72.396  24.553  0.00  0.00    +0.109 A 
ATOM     32  C   LIG    1      -38.111  73.568  24.880  0.00  0.00    +0.041 A 
ATOM     33  C   LIG    1      -38.723  74.820  24.707  0.00  0.00    +0.057 A 
ATOM     34  C   LIG    1      -40.022  74.873  24.172  0.00  0.00    +0.012 A 
ATOM     35  C   LIG    1      -40.697  73.702  23.822  0.00  0.00    +0.002 A 
ATOM     36  C   LIG    1      -40.090  72.460  24.010  0.00  0.00    +0.029 A 
BRANCH  33  37
ATOM     37  C   LIG    1      -37.996  76.085  25.101  0.00  0.00    +0.417 C 
ATOM     38  F   LIG    1      -37.313  75.953  26.271  0.00  0.00    -0.166 F 
ATOM     39  F   LIG    1      -38.847  77.132  25.277  0.00  0.00    -0.166 F 
ATOM     40  F   LIG    1      -37.082  76.497  24.179  0.00  0.00    -0.166 F 
ENDBRANCH  33  37
ENDBRANCH  28  31
ENDBRANCH  26  28
ENDBRANCH   5  26
TORSDOF 7
ENDMDL
MODEL 3
REMARK VINA RESULT:      -6.3      1.509      2.188
REMARK  Name = pdb/CHEMBL2152288.pdb
REMARK                            x       y       z     vdW  Elec       q    Type
REMARK                         _______ _______ _______ _____ _____    ______ ____
ROOT
ATOM      1  C   LIG    1      -18.052  79.271  36.901  0.00  0.00    +0.027 A 
ATOM      2  C   LIG    1      -18.136  78.740  35.606  0.00  0.00    +0.031 A 
ATOM      3  C   LIG    1      -19.252  78.960  34.770  0.00  0.00    -0.013 A 
ATOM      4  C   LIG    1      -20.283  79.764  35.289  0.00  0.00    +0.033 A 
ATOM      5  C   LIG    1      -20.166  80.373  36.540  0.00  0.00    +0.050 A 
ATOM      6  C   LIG    1      -19.041  80.154  37.331  0.00  0.00    +0.047 A 
ENDROOT
BRANCH   3   7
ATOM      7  C   LIG    1      -19.330  78.390  33.400  0.00  0.00    +0.001 A 
ATOM      8  C   LIG    1      -20.557  78.015  32.817  0.00  0.00    +0.022 A 
ATOM      9  C   LIG    1      -20.586  77.477  31.512  0.00  0.00    +0.027 A 
ATOM     10  C   LIG    1      -21.585  76.995  30.595  0.00  0.00    +0.009 A 
ATOM     11  C   LIG    1      -20.912  76.618  29.442  0.00  0.00    +0.093 A 
ATOM     12  N   LIG    1      -19.574  76.852  29.623  0.00  0.00    -0.345 N 
ATOM     13  H   LIG    1      -18.837  76.678  28.956  0.00  0.00    +0.167 HD
ATOM     14  C   LIG    1      -19.360  77.372  30.865  0.00  0.00    +0.139 A 
ATOM     15  N   LIG    1      -18.150  77.713  31.336  0.00  0.00    -0.237 NA
ATOM     16  C   LIG    1      -18.195  78.207  32.600  0.00  0.00    +0.121 A 
BRANCH  10  17
ATOM     17  C   LIG    1      -23.036  76.873  30.732  0.00  0.00    -0.013 A 
ATOM     18  C   LIG    1      -23.882  77.932  30.381  0.00  0.00    +0.028 A 
ATOM     19  C   LIG    1      -25.252  77.771  30.520  0.00  0.00    +0.111 A 
ATOM     20  N   LIG    1      -25.831  76.646  30.985  0.00  0.00    -0.263 NA
ATOM     21  C   LIG    1      -25.002  75.635  31.316  0.00  0.00    +0.111 A 
ATOM     22  C   LIG    1      -23.620  75.698  31.205  0.00  0.00    +0.028 A 
ENDBRANCH  10  17
ENDBRANCH   3   7
BRANCH   1  23
ATOM     23  N   LIG    1      -16.884  79.096  37.657  0.00  0.00    -0.358 N 
ATOM     24  H   LIG    1      -16.934  78.321  38.312  0.00  0.00    +0.142 HD
ATOM     25  H   LIG    1      -16.566  79.946  38.117  0.00  0.00    +0.142 HD
ENDBRANCH   1  23
BRANCH   5  26
ATOM     26  N   LIG    1      -21.228  81.195  37.010  0.00  0.00    -0.216 N 
ATOM     27  H   LIG    1      -20.974  81.983  37.612  0.00  0.00    +0.174 HD
BRANCH  26  28
ATOM     28  S   LIG    1      -22.630  80.449  37.596  0.00  0.00    +0.072 S 
ATOM     29  O   LIG    1      -23.599  81.502  37.781  0.00  0.00    -0.150 OA
ATOM     30  O   LIG    1      -22.281  79.556  38.685  0.00  0.00    -0.150 OA
BRANCH  28  31
ATOM     31  C   LIG    1      -23.163  79.459  36.217  0.00  0.00    +0.109 A 
ATOM     32  C   LIG    1      -23.068  78.064  36.274  0.00  0.00    +0.041 A 
ATOM     33  C   LIG    1      -23.516  77.281  35.197  0.00  0.00    +0.057 A 
ATOM     34  C   LIG    1      -24.087  77.921  34.084  0.00  0.00    +0.012 A 
ATOM     35  C   LIG    1      -24.204  79.313  34.044  0.00  0.00    +0.002 A 
ATOM     36  C   LIG    1      -23.743  80.086  35.110  0.00  0.00    +0.029 A 
BRANCH  33  37
ATOM     37  C   LIG    1      -23.373  75.777  35.237  0.00  0.00    +0.417 C 
ATOM     38  F   LIG    1      -24.503  75.133  34.836  0.00  0.00    -0.166 F 
ATOM     39  F   LIG    1      -23.105  75.322  36.492  0.00  0.00    -0.166 F 
ATOM     40  F   LIG    1      -22.371  75.304  34.446  0.00  0.00    -0.166 F 
ENDBRANCH  33  37
ENDBRANCH  28  31
ENDBRANCH  26  28
ENDBRANCH   5  26
TORSDOF 7
ENDMDL
MODEL 4
REMARK VINA RESULT:      -6.3     14.607     18.984
REMARK  Name = pdb/CHEMBL2152288.pdb
REMARK                            x       y       z     vdW  Elec       q    Type
REMARK                         _______ _______ _______ _____ _____    ______ ____
ROOT
ATOM      1  C   LIG    1      -40.378  74.458  23.934  0.00  0.00    +0.027 A 
ATOM      2  C   LIG    1      -39.853  73.180  24.181  0.00  0.00    +0.031 A 
ATOM      3  C   LIG    1      -38.559  72.985  24.708  0.00  0.00    -0.013 A 
ATOM      4  C   LIG    1      -37.813  74.141  25.001  0.00  0.00    +0.033 A 
ATOM      5  C   LIG    1      -38.362  75.415  24.847  0.00  0.00    +0.050 A 
ATOM      6  C   LIG    1      -39.651  75.574  24.346  0.00  0.00    +0.047 A 
ENDROOT
BRANCH   3   7
ATOM      7  C   LIG    1      -38.014  71.626  24.962  0.00  0.00    +0.001 A 
ATOM      8  C   LIG    1      -37.694  70.743  23.912  0.00  0.00    +0.022 A 
ATOM      9  C   LIG    1      -37.179  69.459  24.197  0.00  0.00    +0.027 A 
ATOM     10  C   LIG    1      -36.741  68.311  23.448  0.00  0.00    +0.009 A 
ATOM     11  C   LIG    1      -36.323  67.370  24.378  0.00  0.00    +0.093 A 
ATOM     12  N   LIG    1      -36.484  67.897  25.632  0.00  0.00    -0.345 N 
ATOM     13  H   LIG    1      -36.263  67.446  26.508  0.00  0.00    +0.167 HD
ATOM     14  C   LIG    1      -36.998  69.158  25.542  0.00  0.00    +0.139 A 
ATOM     15  N   LIG    1      -37.262  69.937  26.603  0.00  0.00    -0.237 NA
ATOM     16  C   LIG    1      -37.769  71.147  26.255  0.00  0.00    +0.121 A 
BRANCH  10  17
ATOM     17  C   LIG    1      -36.700  68.062  22.007  0.00  0.00    -0.013 A 
ATOM     18  C   LIG    1      -37.512  68.790  21.130  0.00  0.00    +0.028 A 
ATOM     19  C   LIG    1      -37.437  68.527  19.771  0.00  0.00    +0.111 A 
ATOM     20  N   LIG    1      -36.625  67.596  19.231  0.00  0.00    -0.263 NA
ATOM     21  C   LIG    1      -35.848  66.905  20.091  0.00  0.00    +0.111 A 
ATOM     22  C   LIG    1      -35.846  67.102  21.464  0.00  0.00    +0.028 A 
ENDBRANCH  10  17
ENDBRANCH   3   7
BRANCH   1  23
ATOM     23  N   LIG    1      -41.702  74.600  23.494  0.00  0.00    -0.358 N 
ATOM     24  H   LIG    1      -42.130  75.480  23.766  0.00  0.00    +0.142 HD
ATOM     25  H   LIG    1      -42.298  73.811  23.736  0.00  0.00    +0.142 HD
ENDBRANCH   1  23
BRANCH   5  26
ATOM     26  N   LIG    1      -37.573  76.552  25.179  0.00  0.00    -0.216 N 
ATOM     27  H   LIG    1      -36.659  76.630  24.727  0.00  0.00    +0.174 HD
BRANCH  26  28
ATOM     28  S   LIG    1      -37.456  77.006  26.805  0.00  0.00    +0.072 S 
ATOM     29  O   LIG    1      -38.533  76.332  27.489  0.00  0.00    -0.150 OA
ATOM     30  O   LIG    1      -37.300  78.446  26.894  0.00  0.00    -0.150 OA
BRANCH  28  31
ATOM     31  C   LIG    1      -35.930  76.251  27.323  0.00  0.00    +0.109 A 
ATOM     32  C   LIG    1      -34.744  76.993  27.327  0.00  0.00    +0.041 A 
ATOM     33  C   LIG    1      -33.545  76.405  27.763  0.00  0.00    +0.057 A 
ATOM     34  C   LIG    1      -33.568  75.077  28.223  0.00  0.00    +0.012 A 
ATOM     35  C   LIG    1      -34.760  74.350  28.242  0.00  0.00    +0.002 A 
ATOM     36  C   LIG    1      -35.945  74.934  27.793  0.00  0.00    +0.029 A 
BRANCH  33  37
ATOM     37  C   LIG    1      -32.254  77.190  27.726  0.00  0.00    +0.417 C 
ATOM     38  F   LIG    1      -31.757  77.323  26.466  0.00  0.00    -0.166 F 
ATOM     39  F   LIG    1      -31.272  76.596  28.458  0.00  0.00    -0.166 F 
ATOM     40  F   LIG    1      -32.372  78.455  28.217  0.00  0.00    -0.166 F 
ENDBRANCH  33  37
ENDBRANCH  28  31
ENDBRANCH  26  28
ENDBRANCH   5  26
TORSDOF 7
ENDMDL
MODEL 5
REMARK VINA RESULT:      -6.2      6.184      9.770
REMARK  Name = pdb/CHEMBL2152288.pdb
REMARK                            x       y       z     vdW  Elec       q    Type
REMARK                         _______ _______ _______ _____ _____    ______ ____
ROOT
ATOM      1  C   LIG    1      -28.340  75.204  34.386  0.00  0.00    +0.027 A 
ATOM      2  C   LIG    1      -29.349  74.793  33.503  0.00  0.00    +0.031 A 
ATOM      3  C   LIG    1      -29.398  75.223  32.159  0.00  0.00    -0.013 A 
ATOM      4  C   LIG    1      -28.366  76.076  31.729  0.00  0.00    +0.033 A 
ATOM      5  C   LIG    1      -27.307  76.415  32.574  0.00  0.00    +0.050 A 
ATOM      6  C   LIG    1      -27.276  75.955  33.888  0.00  0.00    +0.047 A 
ENDROOT
BRANCH   3   7
ATOM      7  C   LIG    1      -30.474  74.781  31.235  0.00  0.00    +0.001 A 
ATOM      8  C   LIG    1      -31.081  75.666  30.321  0.00  0.00    +0.022 A 
ATOM      9  C   LIG    1      -32.102  75.205  29.459  0.00  0.00    +0.027 A 
ATOM     10  C   LIG    1      -32.935  75.760  28.426  0.00  0.00    +0.009 A 
ATOM     11  C   LIG    1      -33.730  74.721  27.963  0.00  0.00    +0.093 A 
ATOM     12  N   LIG    1      -33.411  73.585  28.659  0.00  0.00    -0.345 N 
ATOM     13  H   LIG    1      -33.822  72.671  28.539  0.00  0.00    +0.167 HD
ATOM     14  C   LIG    1      -32.429  73.859  29.564  0.00  0.00    +0.139 A 
ATOM     15  N   LIG    1      -31.898  72.944  30.393  0.00  0.00    -0.237 NA
ATOM     16  C   LIG    1      -30.938  73.460  31.201  0.00  0.00    +0.121 A 
BRANCH  10  17
ATOM     17  C   LIG    1      -33.026  77.117  27.889  0.00  0.00    -0.013 A 
ATOM     18  C   LIG    1      -33.851  78.074  28.492  0.00  0.00    +0.028 A 
ATOM     19  C   LIG    1      -33.902  79.351  27.955  0.00  0.00    +0.111 A 
ATOM     20  N   LIG    1      -33.201  79.736  26.870  0.00  0.00    -0.263 NA
ATOM     21  C   LIG    1      -32.410  78.803  26.302  0.00  0.00    +0.111 A 
ATOM     22  C   LIG    1      -32.286  77.502  26.771  0.00  0.00    +0.028 A 
ENDBRANCH  10  17
ENDBRANCH   3   7
BRANCH   1  23
ATOM     23  N   LIG    1      -28.287  74.678  35.685  0.00  0.00    -0.358 N 
ATOM     24  H   LIG    1      -28.868  73.856  35.815  0.00  0.00    +0.142 HD
ATOM     25  H   LIG    1      -28.461  75.370  36.411  0.00  0.00    +0.142 HD
ENDBRANCH   1  23
BRANCH   5  26
ATOM     26  N   LIG    1      -26.276  77.263  32.083  0.00  0.00    -0.216 N 
ATOM     27  H   LIG    1      -26.554  78.194  31.763  0.00  0.00    +0.174 HD
BRANCH  26  28
ATOM     28  S   LIG    1      -25.125  76.609  31.028  0.00  0.00    +0.072 S 
ATOM     29  O   LIG    1      -25.317  77.275  29.761  0.00  0.00    -0.150 OA
ATOM     30  O   LIG    1      -25.153  75.161  31.122  0.00  0.00    -0.150 OA
BRANCH  28  31
ATOM     31  C   LIG    1      -23.585  77.180  31.711  0.00  0.00    +0.109 A 
ATOM     32  C   LIG    1      -23.582  78.053  32.804  0.00  0.00    +0.041 A 
ATOM     33  C   LIG    1      -22.365  78.481  33.362  0.00  0.00    +0.057 A 
ATOM     34  C   LIG    1      -21.162  77.992  32.824  0.00  0.00    +0.012 A 
ATOM     35  C   LIG    1      -21.172  77.099  31.750  0.00  0.00    +0.002 A 
ATOM     36  C   LIG    1      -22.383  76.690  31.191  0.00  0.00    +0.029 A 
BRANCH  33  37
ATOM     37  C   LIG    1      -22.358  79.459  34.514  0.00  0.00    +0.417 C 
ATOM     38  F   LIG    1      -23.340  80.396  34.412  0.00  0.00    -0.166 F 
ATOM     39  F   LIG    1      -21.187  80.149  34.593  0.00  0.00    -0.166 F 
ATOM     40  F   LIG    1      -22.527  78.870  35.729  0.00  0.00    -0.166 F 
ENDBRANCH  33  37
ENDBRANCH  28  31
ENDBRANCH  26  28
ENDBRANCH   5  26
TORSDOF 7
ENDMDL
MODEL 6
REMARK VINA RESULT:      -6.2     15.598     19.925
REMARK  Name = pdb/CHEMBL2152288.pdb
REMARK                            x       y       z     vdW  Elec       q    Type
REMARK                         _______ _______ _______ _____ _____    ______ ____
ROOT
ATOM      1  C   LIG    1      -39.861  77.694  24.330  0.00  0.00    +0.027 A 
ATOM      2  C   LIG    1      -40.645  76.560  24.072  0.00  0.00    +0.031 A 
ATOM      3  C   LIG    1      -40.164  75.248  24.274  0.00  0.00    -0.013 A 
ATOM      4  C   LIG    1      -38.855  75.123  24.773  0.00  0.00    +0.033 A 
ATOM      5  C   LIG    1      -38.102  76.247  25.120  0.00  0.00    +0.050 A 
ATOM      6  C   LIG    1      -38.615  77.528  24.930  0.00  0.00    +0.047 A 
ENDROOT
BRANCH   3   7
ATOM      7  C   LIG    1      -41.003  74.055  23.995  0.00  0.00    +0.001 A 
ATOM      8  C   LIG    1      -40.450  72.849  23.518  0.00  0.00    +0.022 A 
ATOM      9  C   LIG    1      -41.285  71.738  23.265  0.00  0.00    +0.027 A 
ATOM     10  C   LIG    1      -41.123  70.385  22.799  0.00  0.00    +0.009 A 
ATOM     11  C   LIG    1      -42.387  69.814  22.805  0.00  0.00    +0.093 A 
ATOM     12  N   LIG    1      -43.284  70.748  23.251  0.00  0.00    -0.345 N 
ATOM     13  H   LIG    1      -44.280  70.619  23.365  0.00  0.00    +0.167 HD
ATOM     14  C   LIG    1      -42.636  71.913  23.536  0.00  0.00    +0.139 A 
ATOM     15  N   LIG    1      -43.247  73.016  24.000  0.00  0.00    -0.237 NA
ATOM     16  C   LIG    1      -42.388  74.047  24.205  0.00  0.00    +0.121 A 
BRANCH  10  17
ATOM     17  C   LIG    1      -39.931  69.653  22.373  0.00  0.00    -0.013 A 
ATOM     18  C   LIG    1      -39.941  68.886  21.202  0.00  0.00    +0.028 A 
ATOM     19  C   LIG    1      -38.787  68.213  20.830  0.00  0.00    +0.111 A 
ATOM     20  N   LIG    1      -37.641  68.244  21.538  0.00  0.00    -0.263 NA
ATOM     21  C   LIG    1      -37.648  68.988  22.664  0.00  0.00    +0.111 A 
ATOM     22  C   LIG    1      -38.749  69.703  23.113  0.00  0.00    +0.028 A 
ENDBRANCH  10  17
ENDBRANCH   3   7
BRANCH   1  23
ATOM     23  N   LIG    1      -40.417  78.975  24.197  0.00  0.00    -0.358 N 
ATOM     24  H   LIG    1      -40.635  79.418  25.084  0.00  0.00    +0.142 HD
ATOM     25  H   LIG    1      -41.212  79.010  23.562  0.00  0.00    +0.142 HD
ENDBRANCH   1  23
BRANCH   5  26
ATOM     26  N   LIG    1      -36.791  76.066  25.642  0.00  0.00    -0.216 N 
ATOM     27  H   LIG    1      -36.125  75.556  25.057  0.00  0.00    +0.174 HD
BRANCH  26  28
ATOM     28  S   LIG    1      -36.623  75.591  27.258  0.00  0.00    +0.072 S 
ATOM     29  O   LIG    1      -36.701  74.150  27.264  0.00  0.00    -0.150 OA
ATOM     30  O   LIG    1      -37.504  76.390  28.089  0.00  0.00    -0.150 OA
BRANCH  28  31
ATOM     31  C   LIG    1      -34.944  76.043  27.636  0.00  0.00    +0.109 A 
ATOM     32  C   LIG    1      -34.425  77.261  27.184  0.00  0.00    +0.041 A 
ATOM     33  C   LIG    1      -33.108  77.631  27.507  0.00  0.00    +0.057 A 
ATOM     34  C   LIG    1      -32.341  76.774  28.314  0.00  0.00    +0.012 A 
ATOM     35  C   LIG    1      -32.874  75.571  28.785  0.00  0.00    +0.002 A 
ATOM     36  C   LIG    1      -34.176  75.203  28.448  0.00  0.00    +0.029 A 
BRANCH  33  37
ATOM     37  C   LIG    1      -32.531  78.925  26.983  0.00  0.00    +0.417 C 
ATOM     38  F   LIG    1      -32.191  78.852  25.667  0.00  0.00    -0.166 F 
ATOM     39  F   LIG    1      -31.397  79.285  27.645  0.00  0.00    -0.166 F 
ATOM     40  F   LIG    1      -33.379  79.984  27.092  0.00  0.00    -0.166 F 
ENDBRANCH  33  37
ENDBRANCH  28  31
ENDBRANCH  26  28
ENDBRANCH   5  26
TORSDOF 7
ENDMDL
MODEL 7
REMARK VINA RESULT:      -6.1     13.473     17.796
REMARK  Name = pdb/CHEMBL2152288.pdb
REMARK                            x       y       z     vdW  Elec       q    Type
REMARK                         _______ _______ _______ _____ _____    ______ ____
ROOT
ATOM      1  C   LIG    1      -38.729  72.702  28.987  0.00  0.00    +0.027 A 
ATOM      2  C   LIG    1      -37.433  73.154  29.276  0.00  0.00    +0.031 A 
ATOM      3  C   LIG    1      -36.294  72.657  28.606  0.00  0.00    -0.013 A 
ATOM      4  C   LIG    1      -36.517  71.693  27.607  0.00  0.00    +0.033 A 
ATOM      5  C   LIG    1      -37.810  71.307  27.248  0.00  0.00    +0.050 A 
ATOM      6  C   LIG    1      -38.915  71.833  27.913  0.00  0.00    +0.047 A 
ENDROOT
BRANCH   3   7
ATOM      7  C   LIG    1      -34.926  73.142  28.923  0.00  0.00    +0.001 A 
ATOM      8  C   LIG    1      -34.500  74.443  28.586  0.00  0.00    +0.022 A 
ATOM      9  C   LIG    1      -33.190  74.865  28.905  0.00  0.00    +0.027 A 
ATOM     10  C   LIG    1      -32.402  76.059  28.747  0.00  0.00    +0.009 A 
ATOM     11  C   LIG    1      -31.166  75.792  29.320  0.00  0.00    +0.093 A 
ATOM     12  N   LIG    1      -31.181  74.514  29.811  0.00  0.00    -0.345 N 
ATOM     13  H   LIG    1      -30.424  74.043  30.285  0.00  0.00    +0.167 HD
ATOM     14  C   LIG    1      -32.395  73.940  29.571  0.00  0.00    +0.139 A 
ATOM     15  N   LIG    1      -32.719  72.691  29.941  0.00  0.00    -0.237 NA
ATOM     16  C   LIG    1      -33.984  72.348  29.588  0.00  0.00    +0.121 A 
BRANCH  10  17
ATOM     17  C   LIG    1      -32.719  77.344  28.126  0.00  0.00    -0.013 A 
ATOM     18  C   LIG    1      -32.094  77.740  26.937  0.00  0.00    +0.028 A 
ATOM     19  C   LIG    1      -32.430  78.964  26.378  0.00  0.00    +0.111 A 
ATOM     20  N   LIG    1      -33.327  79.813  26.917  0.00  0.00    -0.263 NA
ATOM     21  C   LIG    1      -33.921  79.415  28.061  0.00  0.00    +0.111 A 
ATOM     22  C   LIG    1      -33.658  78.207  28.691  0.00  0.00    +0.028 A 
ENDBRANCH  10  17
ENDBRANCH   3   7
BRANCH   1  23
ATOM     23  N   LIG    1      -39.834  73.292  29.618  0.00  0.00    -0.358 N 
ATOM     24  H   LIG    1      -39.688  73.476  30.606  0.00  0.00    +0.142 HD
ATOM     25  H   LIG    1      -40.706  72.791  29.462  0.00  0.00    +0.142 HD
ENDBRANCH   1  23
BRANCH   5  26
ATOM     26  N   LIG    1      -37.982  70.343  26.215  0.00  0.00    -0.216 N 
ATOM     27  H   LIG    1      -37.552  69.427  26.360  0.00  0.00    +0.174 HD
BRANCH  26  28
ATOM     28  S   LIG    1      -37.773  70.835  24.609  0.00  0.00    +0.072 S 
ATOM     29  O   LIG    1      -38.415  69.832  23.795  0.00  0.00    -0.150 OA
ATOM     30  O   LIG    1      -36.385  71.197  24.393  0.00  0.00    -0.150 OA
BRANCH  28  31
ATOM     31  C   LIG    1      -38.753  72.317  24.513  0.00  0.00    +0.109 A 
ATOM     32  C   LIG    1      -38.176  73.561  24.791  0.00  0.00    +0.041 A 
ATOM     33  C   LIG    1      -38.942  74.734  24.687  0.00  0.00    +0.057 A 
ATOM     34  C   LIG    1      -40.280  74.636  24.269  0.00  0.00    +0.012 A 
ATOM     35  C   LIG    1      -40.844  73.394  23.967  0.00  0.00    +0.002 A 
ATOM     36  C   LIG    1      -40.082  72.231  24.087  0.00  0.00    +0.029 A 
BRANCH  33  37
ATOM     37  C   LIG    1      -38.334  76.074  25.030  0.00  0.00    +0.417 C 
ATOM     38  F   LIG    1      -39.038  77.117  24.511  0.00  0.00    -0.166 F 
ATOM     39  F   LIG    1      -37.066  76.200  24.549  0.00  0.00    -0.166 F 
ATOM     40  F   LIG    1      -38.250  76.307  26.369  0.00  0.00    -0.166 F 
ENDBRANCH  33  37
ENDBRANCH  28  31
ENDBRANCH  26  28
ENDBRANCH   5  26
TORSDOF 7
ENDMDL
MODEL 8
REMARK VINA RESULT:      -6.1     14.404     18.864
REMARK  Name = pdb/CHEMBL2152288.pdb
REMARK                            x       y       z     vdW  Elec       q    Type
REMARK                         _______ _______ _______ _____ _____    ______ ____
ROOT
ATOM      1  C   LIG    1      -39.791  77.001  24.411  0.00  0.00    +0.027 A 
ATOM      2  C   LIG    1      -40.201  75.681  24.173  0.00  0.00    +0.031 A 
ATOM      3  C   LIG    1      -39.376  74.571  24.456  0.00  0.00    -0.013 A 
ATOM      4  C   LIG    1      -38.115  74.846  25.014  0.00  0.00    +0.033 A 
ATOM      5  C   LIG    1      -37.736  76.150  25.341  0.00  0.00    +0.050 A 
ATOM      6  C   LIG    1      -38.583  77.221  25.071  0.00  0.00    +0.047 A 
ENDROOT
BRANCH   3   7
ATOM      7  C   LIG    1      -39.821  73.178  24.197  0.00  0.00    +0.001 A 
ATOM      8  C   LIG    1      -38.912  72.102  24.150  0.00  0.00    +0.022 A 
ATOM      9  C   LIG    1      -39.378  70.791  23.900  0.00  0.00    +0.027 A 
ATOM     10  C   LIG    1      -38.805  69.476  23.782  0.00  0.00    +0.009 A 
ATOM     11  C   LIG    1      -39.860  68.608  23.544  0.00  0.00    +0.093 A 
ATOM     12  N   LIG    1      -41.023  69.332  23.520  0.00  0.00    -0.345 N 
ATOM     13  H   LIG    1      -41.954  68.971  23.370  0.00  0.00    +0.167 HD
ATOM     14  C   LIG    1      -40.751  70.651  23.735  0.00  0.00    +0.139 A 
ATOM     15  N   LIG    1      -41.687  71.612  23.775  0.00  0.00    -0.237 NA
ATOM     16  C   LIG    1      -41.168  72.846  24.002  0.00  0.00    +0.121 A 
BRANCH  10  17
ATOM     17  C   LIG    1      -37.418  69.021  23.868  0.00  0.00    -0.013 A 
ATOM     18  C   LIG    1      -36.851  68.249  22.848  0.00  0.00    +0.028 A 
ATOM     19  C   LIG    1      -35.530  67.845  22.966  0.00  0.00    +0.111 A 
ATOM     20  N   LIG    1      -34.745  68.147  24.020  0.00  0.00    -0.263 NA
ATOM     21  C   LIG    1      -35.307  68.894  24.993  0.00  0.00    +0.111 A 
ATOM     22  C   LIG    1      -36.616  69.352  24.961  0.00  0.00    +0.028 A 
ENDBRANCH  10  17
ENDBRANCH   3   7
BRANCH   1  23
ATOM     23  N   LIG    1      -40.683  78.062  24.196  0.00  0.00    -0.358 N 
ATOM     24  H   LIG    1      -41.660  77.794  24.269  0.00  0.00    +0.142 HD
ATOM     25  H   LIG    1      -40.505  78.574  23.335  0.00  0.00    +0.142 HD
ENDBRANCH   1  23
BRANCH   5  26
ATOM     26  N   LIG    1      -36.458  76.372  25.926  0.00  0.00    -0.216 N 
ATOM     27  H   LIG    1      -35.781  75.608  25.864  0.00  0.00    +0.174 HD
BRANCH  26  28
ATOM     28  S   LIG    1      -36.383  77.091  27.456  0.00  0.00    +0.072 S 
ATOM     29  O   LIG    1      -37.220  76.289  28.317  0.00  0.00    -0.150 OA
ATOM     30  O   LIG    1      -36.595  78.520  27.329  0.00  0.00    -0.150 OA
BRANCH  28  31
ATOM     31  C   LIG    1      -34.693  76.822  27.943  0.00  0.00    +0.109 A 
ATOM     32  C   LIG    1      -34.283  75.562  28.396  0.00  0.00    +0.041 A 
ATOM     33  C   LIG    1      -32.943  75.342  28.752  0.00  0.00    +0.057 A 
ATOM     34  C   LIG    1      -32.022  76.395  28.614  0.00  0.00    +0.012 A 
ATOM     35  C   LIG    1      -32.430  77.642  28.136  0.00  0.00    +0.002 A 
ATOM     36  C   LIG    1      -33.767  77.859  27.798  0.00  0.00    +0.029 A 
BRANCH  33  37
ATOM     37  C   LIG    1      -32.507  73.997  29.285  0.00  0.00    +0.417 C 
ATOM     38  F   LIG    1      -32.958  72.962  28.525  0.00  0.00    -0.166 F 
ATOM     39  F   LIG    1      -32.972  73.769  30.544  0.00  0.00    -0.166 F 
ATOM     40  F   LIG    1      -31.155  73.850  29.353  0.00  0.00    -0.166 F 
ENDBRANCH  33  37
ENDBRANCH  28  31
ENDBRANCH  26  28
ENDBRANCH   5  26
TORSDOF 7
ENDMDL
MODEL 9
REMARK VINA RESULT:      -6.0     15.098     19.520
REMARK  Name = pdb/CHEMBL2152288.pdb
REMARK                            x       y       z     vdW  Elec       q    Type
REMARK                         _______ _______ _______ _____ _____    ______ ____
ROOT
ATOM      1  C   LIG    1      -40.321  76.221  23.988  0.00  0.00    +0.027 A 
ATOM      2  C   LIG    1      -40.661  74.871  23.814  0.00  0.00    +0.031 A 
ATOM      3  C   LIG    1      -39.797  73.821  24.192  0.00  0.00    -0.013 A 
ATOM      4  C   LIG    1      -38.573  74.188  24.779  0.00  0.00    +0.033 A 
ATOM      5  C   LIG    1      -38.267  75.525  25.041  0.00  0.00    +0.050 A 
ATOM      6  C   LIG    1      -39.151  76.537  24.676  0.00  0.00    +0.047 A 
ENDROOT
BRANCH   3   7
ATOM      7  C   LIG    1      -40.168  72.395  24.001  0.00  0.00    +0.001 A 
ATOM      8  C   LIG    1      -39.196  71.388  23.832  0.00  0.00    +0.022 A 
ATOM      9  C   LIG    1      -39.591  70.044  23.653  0.00  0.00    +0.027 A 
ATOM     10  C   LIG    1      -38.942  68.773  23.461  0.00  0.00    +0.009 A 
ATOM     11  C   LIG    1      -39.952  67.826  23.373  0.00  0.00    +0.093 A 
ATOM     12  N   LIG    1      -41.158  68.462  23.506  0.00  0.00    -0.345 N 
ATOM     13  H   LIG    1      -42.071  68.031  23.487  0.00  0.00    +0.167 HD
ATOM     14  C   LIG    1      -40.959  69.800  23.678  0.00  0.00    +0.139 A 
ATOM     15  N   LIG    1      -41.951  70.690  23.844  0.00  0.00    -0.237 NA
ATOM     16  C   LIG    1      -41.500  71.961  23.994  0.00  0.00    +0.121 A 
BRANCH  10  17
ATOM     17  C   LIG    1      -37.526  68.424  23.357  0.00  0.00    -0.013 A 
ATOM     18  C   LIG    1      -36.674  68.543  24.461  0.00  0.00    +0.028 A 
ATOM     19  C   LIG    1      -35.340  68.194  24.320  0.00  0.00    +0.111 A 
ATOM     20  N   LIG    1      -34.800  67.746  23.169  0.00  0.00    -0.263 NA
ATOM     21  C   LIG    1      -35.635  67.635  22.116  0.00  0.00    +0.111 A 
ATOM     22  C   LIG    1      -36.985  67.952  22.160  0.00  0.00    +0.028 A 
ENDBRANCH  10  17
ENDBRANCH   3   7
BRANCH   1  23
ATOM     23  N   LIG    1      -41.251  77.224  23.677  0.00  0.00    -0.358 N 
ATOM     24  H   LIG    1      -41.488  77.818  24.466  0.00  0.00    +0.142 HD
ATOM     25  H   LIG    1      -42.088  76.873  23.216  0.00  0.00    +0.142 HD
ENDBRANCH   1  23
BRANCH   5  26
ATOM     26  N   LIG    1      -37.024  75.842  25.657  0.00  0.00    -0.216 N 
ATOM     27  H   LIG    1      -36.176  75.533  25.176  0.00  0.00    +0.174 HD
BRANCH  26  28
ATOM     28  S   LIG    1      -36.865  75.599  27.325  0.00  0.00    +0.072 S 
ATOM     29  O   LIG    1      -36.117  74.375  27.483  0.00  0.00    -0.150 OA
ATOM     30  O   LIG    1      -38.156  75.774  27.963  0.00  0.00    -0.150 OA
BRANCH  28  31
ATOM     31  C   LIG    1      -35.812  76.944  27.826  0.00  0.00    +0.109 A 
ATOM     32  C   LIG    1      -34.545  77.097  27.251  0.00  0.00    +0.041 A 
ATOM     33  C   LIG    1      -33.726  78.175  27.625  0.00  0.00    +0.057 A 
ATOM     34  C   LIG    1      -34.215  79.108  28.556  0.00  0.00    +0.012 A 
ATOM     35  C   LIG    1      -35.491  78.965  29.106  0.00  0.00    +0.002 A 
ATOM     36  C   LIG    1      -36.294  77.884  28.742  0.00  0.00    +0.029 A 
BRANCH  33  37
ATOM     37  C   LIG    1      -32.340  78.317  27.040  0.00  0.00    +0.417 C 
ATOM     38  F   LIG    1      -32.354  78.824  25.777  0.00  0.00    -0.166 F 
ATOM     39  F   LIG    1      -31.694  77.122  26.959  0.00  0.00    -0.166 F 
ATOM     40  F   LIG    1      -31.525  79.134  27.763  0.00  0.00    -0.166 F 
ENDBRANCH  33  37
ENDBRANCH  28  31
ENDBRANCH  26  28
ENDBRANCH   5  26
TORSDOF 7
ENDMDL
