MODEL 1
REMARK VINA RESULT:      -6.1      0.000      0.000
REMARK  Name = pdb/CHEMBL3965077.pdb
REMARK                            x       y       z     vdW  Elec       q    Type
REMARK                         _______ _______ _______ _____ _____    ______ ____
ROOT
ATOM      1  C   LIG    1      -18.518  85.994  12.488  0.00  0.00    +0.179 A 
ATOM      2  N   LIG    1      -18.397  84.602  12.436  0.00  0.00    -0.193 N 
ATOM      3  N   LIG    1      -18.496  83.717  13.495  0.00  0.00    -0.148 NA
ATOM      4  C   LIG    1      -18.259  82.461  13.200  0.00  0.00    +0.143 A 
ATOM      5  C   LIG    1      -17.961  82.021  11.792  0.00  0.00    +0.049 A 
ATOM      6  C   LIG    1      -17.910  82.925  10.813  0.00  0.00    +0.051 A 
ATOM      7  C   LIG    1      -18.122  84.279  11.116  0.00  0.00    +0.157 A 
ATOM      8  N   LIG    1      -18.087  85.334  10.333  0.00  0.00    -0.232 NA
ATOM      9  C   LIG    1      -18.304  86.390  11.175  0.00  0.00    +0.161 A 
ENDROOT
BRANCH   4  10
ATOM     10  N   LIG    1      -18.285  81.494  14.203  0.00  0.00    -0.307 N 
ATOM     11  C   LIG    1      -19.164  80.311  14.139  0.00  0.00    +0.108 C 
ATOM     12  C   LIG    1      -18.277  79.169  14.647  0.00  0.00    +0.029 C 
ATOM     13  C   LIG    1      -17.399  79.852  15.679  0.00  0.00    +0.021 C 
ATOM     14  C   LIG    1      -17.103  81.202  15.026  0.00  0.00    +0.107 C 
BRANCH  11  15
ATOM     15  C   LIG    1      -20.426  80.494  14.962  0.00  0.00    +0.011 A 
ATOM     16  C   LIG    1      -21.361  79.451  15.028  0.00  0.00    +0.129 A 
ATOM     17  F   LIG    1      -21.128  78.309  14.365  0.00  0.00    -0.205 F 
ATOM     18  C   LIG    1      -22.544  79.567  15.759  0.00  0.00    +0.041 A 
ATOM     19  C   LIG    1      -22.812  80.746  16.452  0.00  0.00    +0.041 A 
ATOM     20  C   LIG    1      -21.892  81.785  16.406  0.00  0.00    +0.124 A 
ATOM     21  F   LIG    1      -22.143  82.918  17.074  0.00  0.00    -0.205 F 
ATOM     22  C   LIG    1      -20.711  81.670  15.676  0.00  0.00    +0.046 A 
ENDBRANCH  11  15
ENDBRANCH   4  10
BRANCH   1  24
ATOM     23  C   LIG    1      -19.892  86.899  14.116  0.00  0.00    +0.285 C 
ATOM     24  N   LIG    1      -18.702  86.655  13.663  0.00  0.00    -0.178 NA
BRANCH  23  27
ATOM     25  C   LIG    1      -22.594  86.115  15.046  0.00  0.00    +0.149 C 
ATOM     26  C   LIG    1      -21.654  85.296  14.150  0.00  0.00    +0.142 C 
ATOM     27  N   LIG    1      -21.136  86.535  13.609  0.00  0.00    -0.280 N 
ATOM     28  C   LIG    1      -22.307  87.259  14.059  0.00  0.00    +0.142 C 
BRANCH  25  29
ATOM     29  O   LIG    1      -22.142  86.349  16.405  0.00  0.00    -0.389 OA
ATOM     30  H   LIG    1      -21.239  85.982  16.439  0.00  0.00    +0.210 HD
ENDBRANCH  25  29
ENDBRANCH  23  27
BRANCH  23  31
ATOM     31  O   LIG    1      -19.898  87.592  15.279  0.00  0.00    -0.481 OA
ATOM     32  H   LIG    1      -20.311  88.469  15.208  0.00  0.00    +0.295 HD
ENDBRANCH  23  31
ENDBRANCH   1  24
TORSDOF 6
ENDMDL
MODEL 2
REMARK VINA RESULT:      -6.0     18.424     21.287
REMARK  Name = pdb/CHEMBL3965077.pdb
REMARK                            x       y       z     vdW  Elec       q    Type
REMARK                         _______ _______ _______ _____ _____    ______ ____
ROOT
ATOM      1  C   LIG    1      -25.522  77.317  31.720  0.00  0.00    +0.179 A 
ATOM      2  N   LIG    1      -25.382  77.639  33.075  0.00  0.00    -0.193 N 
ATOM      3  N   LIG    1      -24.696  78.714  33.609  0.00  0.00    -0.148 NA
ATOM      4  C   LIG    1      -24.641  78.749  34.919  0.00  0.00    +0.143 A 
ATOM      5  C   LIG    1      -25.332  77.718  35.768  0.00  0.00    +0.049 A 
ATOM      6  C   LIG    1      -26.002  76.722  35.186  0.00  0.00    +0.051 A 
ATOM      7  C   LIG    1      -26.039  76.646  33.785  0.00  0.00    +0.157 A 
ATOM      8  N   LIG    1      -26.600  75.750  33.003  0.00  0.00    -0.232 NA
ATOM      9  C   LIG    1      -26.263  76.144  31.738  0.00  0.00    +0.161 A 
ENDROOT
BRANCH   4  10
ATOM     10  N   LIG    1      -23.932  79.765  35.559  0.00  0.00    -0.307 N 
ATOM     11  C   LIG    1      -22.915  80.578  34.867  0.00  0.00    +0.108 C 
ATOM     12  C   LIG    1      -23.171  81.999  35.383  0.00  0.00    +0.029 C 
ATOM     13  C   LIG    1      -23.631  81.765  36.811  0.00  0.00    +0.021 C 
ATOM     14  C   LIG    1      -24.509  80.521  36.680  0.00  0.00    +0.107 C 
BRANCH  11  15
ATOM     15  C   LIG    1      -21.506  80.089  35.147  0.00  0.00    +0.011 A 
ATOM     16  C   LIG    1      -20.909  79.174  34.268  0.00  0.00    +0.129 A 
ATOM     17  F   LIG    1      -21.589  78.745  33.195  0.00  0.00    -0.205 F 
ATOM     18  C   LIG    1      -19.621  78.681  34.481  0.00  0.00    +0.041 A 
ATOM     19  C   LIG    1      -18.896  79.106  35.592  0.00  0.00    +0.041 A 
ATOM     20  C   LIG    1      -19.468  80.021  36.467  0.00  0.00    +0.124 A 
ATOM     21  F   LIG    1      -18.773  80.437  37.533  0.00  0.00    -0.205 F 
ATOM     22  C   LIG    1      -20.754  80.513  36.255  0.00  0.00    +0.046 A 
ENDBRANCH  11  15
ENDBRANCH   4  10
BRANCH   1  24
ATOM     23  C   LIG    1      -23.844  77.611  30.154  0.00  0.00    +0.285 C 
ATOM     24  N   LIG    1      -24.914  78.044  30.744  0.00  0.00    -0.178 NA
BRANCH  23  27
ATOM     25  C   LIG    1      -21.081  76.572  30.413  0.00  0.00    +0.149 C 
ATOM     26  C   LIG    1      -22.108  76.201  29.334  0.00  0.00    +0.142 C 
ATOM     27  N   LIG    1      -23.162  76.408  30.305  0.00  0.00    -0.280 N 
ATOM     28  C   LIG    1      -22.223  76.276  31.400  0.00  0.00    +0.142 C 
BRANCH  25  29
ATOM     29  O   LIG    1      -20.614  77.946  30.410  0.00  0.00    -0.389 OA
ATOM     30  H   LIG    1      -21.416  78.487  30.541  0.00  0.00    +0.210 HD
ENDBRANCH  25  29
ENDBRANCH  23  27
BRANCH  23  31
ATOM     31  O   LIG    1      -23.349  78.470  29.231  0.00  0.00    -0.481 OA
ATOM     32  H   LIG    1      -22.390  78.609  29.303  0.00  0.00    +0.295 HD
ENDBRANCH  23  31
ENDBRANCH   1  24
TORSDOF 6
ENDMDL
MODEL 3
REMARK VINA RESULT:      -6.0     19.648     22.006
REMARK  Name = pdb/CHEMBL3965077.pdb
REMARK                            x       y       z     vdW  Elec       q    Type
REMARK                         _______ _______ _______ _____ _____    ______ ____
ROOT
ATOM      1  C   LIG    1      -33.143  78.613  27.406  0.00  0.00    +0.179 A 
ATOM      2  N   LIG    1      -33.836  77.399  27.447  0.00  0.00    -0.193 N 
ATOM      3  N   LIG    1      -35.108  77.148  26.966  0.00  0.00    -0.148 NA
ATOM      4  C   LIG    1      -35.570  75.944  27.203  0.00  0.00    +0.143 A 
ATOM      5  C   LIG    1      -34.739  74.899  27.896  0.00  0.00    +0.049 A 
ATOM      6  C   LIG    1      -33.507  75.200  28.309  0.00  0.00    +0.051 A 
ATOM      7  C   LIG    1      -33.010  76.496  28.100  0.00  0.00    +0.157 A 
ATOM      8  N   LIG    1      -31.856  77.023  28.445  0.00  0.00    -0.232 NA
ATOM      9  C   LIG    1      -31.944  78.328  28.044  0.00  0.00    +0.161 A 
ENDROOT
BRANCH   4  10
ATOM     10  N   LIG    1      -36.861  75.602  26.803  0.00  0.00    -0.307 N 
ATOM     11  C   LIG    1      -37.446  76.072  25.533  0.00  0.00    +0.108 C 
ATOM     12  C   LIG    1      -38.188  74.843  24.996  0.00  0.00    +0.029 C 
ATOM     13  C   LIG    1      -38.670  74.155  26.260  0.00  0.00    +0.021 C 
ATOM     14  C   LIG    1      -37.487  74.337  27.212  0.00  0.00    +0.107 C 
BRANCH  11  15
ATOM     15  C   LIG    1      -38.354  77.272  25.733  0.00  0.00    +0.011 A 
ATOM     16  C   LIG    1      -38.928  77.894  24.615  0.00  0.00    +0.129 A 
ATOM     17  F   LIG    1      -38.669  77.420  23.388  0.00  0.00    -0.205 F 
ATOM     18  C   LIG    1      -39.761  79.007  24.737  0.00  0.00    +0.041 A 
ATOM     19  C   LIG    1      -40.040  79.522  26.001  0.00  0.00    +0.041 A 
ATOM     20  C   LIG    1      -39.489  78.911  27.120  0.00  0.00    +0.124 A 
ATOM     21  F   LIG    1      -39.759  79.399  28.338  0.00  0.00    -0.205 F 
ATOM     22  C   LIG    1      -38.657  77.800  26.999  0.00  0.00    +0.046 A 
ENDBRANCH  11  15
ENDBRANCH   4  10
BRANCH   1  24
ATOM     23  C   LIG    1      -34.396  80.542  27.666  0.00  0.00    +0.285 C 
ATOM     24  N   LIG    1      -33.709  79.745  26.907  0.00  0.00    -0.178 NA
BRANCH  23  27
ATOM     25  C   LIG    1      -36.541  81.137  29.621  0.00  0.00    +0.149 C 
ATOM     26  C   LIG    1      -35.123  81.726  29.601  0.00  0.00    +0.142 C 
ATOM     27  N   LIG    1      -34.645  80.483  29.034  0.00  0.00    -0.280 N 
ATOM     28  C   LIG    1      -35.826  79.782  29.493  0.00  0.00    +0.142 C 
BRANCH  25  29
ATOM     29  O   LIG    1      -37.398  81.486  28.504  0.00  0.00    -0.389 OA
ATOM     30  H   LIG    1      -38.002  80.727  28.400  0.00  0.00    +0.210 HD
ENDBRANCH  25  29
ENDBRANCH  23  27
BRANCH  23  31
ATOM     31  O   LIG    1      -34.916  81.603  27.006  0.00  0.00    -0.481 OA
ATOM     32  H   LIG    1      -35.886  81.588  26.945  0.00  0.00    +0.295 HD
ENDBRANCH  23  31
ENDBRANCH   1  24
TORSDOF 6
ENDMDL
MODEL 4
REMARK VINA RESULT:      -5.9      1.872      3.276
REMARK  Name = pdb/CHEMBL3965077.pdb
REMARK                            x       y       z     vdW  Elec       q    Type
REMARK                         _______ _______ _______ _____ _____    ______ ____
ROOT
ATOM      1  C   LIG    1      -19.236  85.295  12.729  0.00  0.00    +0.179 A 
ATOM      2  N   LIG    1      -19.889  84.060  12.652  0.00  0.00    -0.193 N 
ATOM      3  N   LIG    1      -20.582  83.418  13.663  0.00  0.00    -0.148 NA
ATOM      4  C   LIG    1      -21.034  82.225  13.363  0.00  0.00    +0.143 A 
ATOM      5  C   LIG    1      -20.857  81.633  11.991  0.00  0.00    +0.049 A 
ATOM      6  C   LIG    1      -20.203  82.319  11.053  0.00  0.00    +0.051 A 
ATOM      7  C   LIG    1      -19.677  83.582  11.367  0.00  0.00    +0.157 A 
ATOM      8  N   LIG    1      -18.978  84.413  10.626  0.00  0.00    -0.232 NA
ATOM      9  C   LIG    1      -18.684  85.452  11.466  0.00  0.00    +0.161 A 
ENDROOT
BRANCH   4  10
ATOM     10  N   LIG    1      -21.705  81.472  14.325  0.00  0.00    -0.307 N 
ATOM     11  C   LIG    1      -21.112  81.158  15.639  0.00  0.00    +0.108 C 
ATOM     12  C   LIG    1      -22.279  81.334  16.618  0.00  0.00    +0.029 C 
ATOM     13  C   LIG    1      -23.479  80.892  15.800  0.00  0.00    +0.021 C 
ATOM     14  C   LIG    1      -23.172  81.465  14.417  0.00  0.00    +0.107 C 
BRANCH  11  15
ATOM     15  C   LIG    1      -20.512  79.765  15.675  0.00  0.00    +0.011 A 
ATOM     16  C   LIG    1      -19.241  79.578  16.238  0.00  0.00    +0.129 A 
ATOM     17  F   LIG    1      -18.575  80.630  16.734  0.00  0.00    -0.205 F 
ATOM     18  C   LIG    1      -18.634  78.322  16.287  0.00  0.00    +0.041 A 
ATOM     19  C   LIG    1      -19.303  77.214  15.772  0.00  0.00    +0.041 A 
ATOM     20  C   LIG    1      -20.567  77.379  15.222  0.00  0.00    +0.124 A 
ATOM     21  F   LIG    1      -21.216  76.316  14.730  0.00  0.00    -0.205 F 
ATOM     22  C   LIG    1      -21.173  78.633  15.171  0.00  0.00    +0.046 A 
ENDBRANCH  11  15
ENDBRANCH   4  10
BRANCH   1  24
ATOM     23  C   LIG    1      -20.010  86.955  14.143  0.00  0.00    +0.285 C 
ATOM     24  N   LIG    1      -19.171  86.000  13.891  0.00  0.00    -0.178 NA
BRANCH  23  27
ATOM     25  C   LIG    1      -22.590  88.362  14.521  0.00  0.00    +0.149 C 
ATOM     26  C   LIG    1      -22.382  86.965  13.921  0.00  0.00    +0.142 C 
ATOM     27  N   LIG    1      -21.102  87.406  13.408  0.00  0.00    -0.280 N 
ATOM     28  C   LIG    1      -21.495  88.795  13.532  0.00  0.00    +0.142 C 
BRANCH  25  29
ATOM     29  O   LIG    1      -22.247  88.516  15.923  0.00  0.00    -0.389 OA
ATOM     30  H   LIG    1      -22.601  87.719  16.360  0.00  0.00    +0.210 HD
ENDBRANCH  25  29
ENDBRANCH  23  27
BRANCH  23  31
ATOM     31  O   LIG    1      -19.786  87.575  15.326  0.00  0.00    -0.481 OA
ATOM     32  H   LIG    1      -20.480  87.416  15.987  0.00  0.00    +0.295 HD
ENDBRANCH  23  31
ENDBRANCH   1  24
TORSDOF 6
ENDMDL
MODEL 5
REMARK VINA RESULT:      -5.7     17.266     20.585
REMARK  Name = pdb/CHEMBL3965077.pdb
REMARK                            x       y       z     vdW  Elec       q    Type
REMARK                         _______ _______ _______ _____ _____    ______ ____
ROOT
ATOM      1  C   LIG    1      -30.154  69.854  18.131  0.00  0.00    +0.179 A 
ATOM      2  N   LIG    1      -30.347  68.514  18.483  0.00  0.00    -0.193 N 
ATOM      3  N   LIG    1      -31.540  67.815  18.480  0.00  0.00    -0.148 NA
ATOM      4  C   LIG    1      -31.472  66.588  18.936  0.00  0.00    +0.143 A 
ATOM      5  C   LIG    1      -30.169  65.976  19.372  0.00  0.00    +0.049 A 
ATOM      6  C   LIG    1      -29.049  66.698  19.321  0.00  0.00    +0.051 A 
ATOM      7  C   LIG    1      -29.108  68.027  18.873  0.00  0.00    +0.157 A 
ATOM      8  N   LIG    1      -28.155  68.927  18.771  0.00  0.00    -0.232 NA
ATOM      9  C   LIG    1      -28.797  70.056  18.341  0.00  0.00    +0.161 A 
ENDROOT
BRANCH   4  10
ATOM     10  N   LIG    1      -32.627  65.811  19.021  0.00  0.00    -0.307 N 
ATOM     11  C   LIG    1      -33.966  66.348  18.712  0.00  0.00    +0.108 C 
ATOM     12  C   LIG    1      -34.641  65.215  17.930  0.00  0.00    +0.029 C 
ATOM     13  C   LIG    1      -34.058  63.966  18.566  0.00  0.00    +0.021 C 
ATOM     14  C   LIG    1      -32.600  64.359  18.799  0.00  0.00    +0.107 C 
BRANCH  11  15
ATOM     15  C   LIG    1      -34.726  66.739  19.965  0.00  0.00    +0.011 A 
ATOM     16  C   LIG    1      -36.024  67.258  19.848  0.00  0.00    +0.129 A 
ATOM     17  F   LIG    1      -36.573  67.401  18.633  0.00  0.00    -0.205 F 
ATOM     18  C   LIG    1      -36.766  67.645  20.965  0.00  0.00    +0.041 A 
ATOM     19  C   LIG    1      -36.215  67.513  22.237  0.00  0.00    +0.041 A 
ATOM     20  C   LIG    1      -34.936  66.990  22.372  0.00  0.00    +0.124 A 
ATOM     21  F   LIG    1      -34.404  66.856  23.594  0.00  0.00    -0.205 F 
ATOM     22  C   LIG    1      -34.194  66.604  21.258  0.00  0.00    +0.046 A 
ENDBRANCH  11  15
ENDBRANCH   4  10
BRANCH   1  24
ATOM     23  C   LIG    1      -31.446  70.927  16.539  0.00  0.00    +0.285 C 
ATOM     24  N   LIG    1      -31.193  70.661  17.782  0.00  0.00    -0.178 NA
BRANCH  23  27
ATOM     25  C   LIG    1      -32.076  70.342  13.703  0.00  0.00    +0.149 C 
ATOM     26  C   LIG    1      -31.527  69.359  14.747  0.00  0.00    +0.142 C 
ATOM     27  N   LIG    1      -30.833  70.462  15.379  0.00  0.00    -0.280 N 
ATOM     28  C   LIG    1      -30.935  71.258  14.174  0.00  0.00    +0.142 C 
BRANCH  25  29
ATOM     29  O   LIG    1      -33.413  70.854  13.944  0.00  0.00    -0.389 OA
ATOM     30  H   LIG    1      -33.997  70.074  13.891  0.00  0.00    +0.210 HD
ENDBRANCH  25  29
ENDBRANCH  23  27
BRANCH  23  31
ATOM     31  O   LIG    1      -32.492  71.770  16.368  0.00  0.00    -0.481 OA
ATOM     32  H   LIG    1      -32.407  72.345  15.589  0.00  0.00    +0.295 HD
ENDBRANCH  23  31
ENDBRANCH   1  24
TORSDOF 6
ENDMDL
MODEL 6
REMARK VINA RESULT:      -5.6     18.136     20.633
REMARK  Name = pdb/CHEMBL3965077.pdb
REMARK                            x       y       z     vdW  Elec       q    Type
REMARK                         _______ _______ _______ _____ _____    ______ ____
ROOT
ATOM      1  C   LIG    1      -23.493  77.502  30.824  0.00  0.00    +0.179 A 
ATOM      2  N   LIG    1      -22.167  77.584  31.262  0.00  0.00    -0.193 N 
ATOM      3  N   LIG    1      -21.722  78.037  32.491  0.00  0.00    -0.148 NA
ATOM      4  C   LIG    1      -20.419  78.096  32.628  0.00  0.00    +0.143 A 
ATOM      5  C   LIG    1      -19.487  77.642  31.538  0.00  0.00    +0.049 A 
ATOM      6  C   LIG    1      -19.985  77.189  30.387  0.00  0.00    +0.051 A 
ATOM      7  C   LIG    1      -21.377  77.155  30.206  0.00  0.00    +0.157 A 
ATOM      8  N   LIG    1      -22.083  76.787  29.162  0.00  0.00    -0.232 NA
ATOM      9  C   LIG    1      -23.380  77.022  29.527  0.00  0.00    +0.161 A 
ENDROOT
BRANCH   4  10
ATOM     10  N   LIG    1      -19.865  78.583  33.811  0.00  0.00    -0.307 N 
ATOM     11  C   LIG    1      -20.562  78.493  35.107  0.00  0.00    +0.108 C 
ATOM     12  C   LIG    1      -19.453  78.108  36.093  0.00  0.00    +0.029 C 
ATOM     13  C   LIG    1      -18.234  78.813  35.527  0.00  0.00    +0.021 C 
ATOM     14  C   LIG    1      -18.411  78.631  34.020  0.00  0.00    +0.107 C 
BRANCH  11  15
ATOM     15  C   LIG    1      -21.255  79.793  35.472  0.00  0.00    +0.011 A 
ATOM     16  C   LIG    1      -22.651  79.881  35.368  0.00  0.00    +0.129 A 
ATOM     17  F   LIG    1      -23.352  78.819  34.947  0.00  0.00    -0.205 F 
ATOM     18  C   LIG    1      -23.341  81.054  35.678  0.00  0.00    +0.041 A 
ATOM     19  C   LIG    1      -22.634  82.174  36.111  0.00  0.00    +0.041 A 
ATOM     20  C   LIG    1      -21.253  82.100  36.232  0.00  0.00    +0.124 A 
ATOM     21  F   LIG    1      -20.570  83.173  36.653  0.00  0.00    -0.205 F 
ATOM     22  C   LIG    1      -20.563  80.930  35.921  0.00  0.00    +0.046 A 
ENDBRANCH  11  15
ENDBRANCH   4  10
BRANCH   1  24
ATOM     23  C   LIG    1      -25.199  77.115  32.340  0.00  0.00    +0.285 C 
ATOM     24  N   LIG    1      -24.530  77.936  31.591  0.00  0.00    -0.178 NA
BRANCH  23  27
ATOM     25  C   LIG    1      -26.738  74.586  32.459  0.00  0.00    +0.149 C 
ATOM     26  C   LIG    1      -25.888  75.201  33.580  0.00  0.00    +0.142 C 
ATOM     27  N   LIG    1      -25.010  75.756  32.572  0.00  0.00    -0.280 N 
ATOM     28  C   LIG    1      -25.493  74.811  31.586  0.00  0.00    +0.142 C 
BRANCH  25  29
ATOM     29  O   LIG    1      -27.913  75.337  32.058  0.00  0.00    -0.389 OA
ATOM     30  H   LIG    1      -28.252  74.875  31.269  0.00  0.00    +0.210 HD
ENDBRANCH  25  29
ENDBRANCH  23  27
BRANCH  23  31
ATOM     31  O   LIG    1      -26.217  77.702  33.013  0.00  0.00    -0.481 OA
ATOM     32  H   LIG    1      -26.024  77.862  33.952  0.00  0.00    +0.295 HD
ENDBRANCH  23  31
ENDBRANCH   1  24
TORSDOF 6
ENDMDL
MODEL 7
REMARK VINA RESULT:      -5.5     17.486     19.955
REMARK  Name = pdb/CHEMBL3965077.pdb
REMARK                            x       y       z     vdW  Elec       q    Type
REMARK                         _______ _______ _______ _____ _____    ______ ____
ROOT
ATOM      1  C   LIG    1      -23.910  77.094  30.065  0.00  0.00    +0.179 A 
ATOM      2  N   LIG    1      -24.464  76.075  30.848  0.00  0.00    -0.193 N 
ATOM      3  N   LIG    1      -23.938  74.815  31.070  0.00  0.00    -0.148 NA
ATOM      4  C   LIG    1      -24.693  74.010  31.777  0.00  0.00    +0.143 A 
ATOM      5  C   LIG    1      -26.009  74.458  32.352  0.00  0.00    +0.049 A 
ATOM      6  C   LIG    1      -26.443  75.699  32.124  0.00  0.00    +0.051 A 
ATOM      7  C   LIG    1      -25.667  76.563  31.335  0.00  0.00    +0.157 A 
ATOM      8  N   LIG    1      -25.904  77.798  30.954  0.00  0.00    -0.232 NA
ATOM      9  C   LIG    1      -24.842  78.118  30.154  0.00  0.00    +0.161 A 
ENDROOT
BRANCH   4  10
ATOM     10  N   LIG    1      -24.279  72.701  32.019  0.00  0.00    -0.307 N 
ATOM     11  C   LIG    1      -23.574  71.894  31.005  0.00  0.00    +0.108 C 
ATOM     12  C   LIG    1      -22.487  71.169  31.807  0.00  0.00    +0.029 C 
ATOM     13  C   LIG    1      -23.152  70.939  33.152  0.00  0.00    +0.021 C 
ATOM     14  C   LIG    1      -23.928  72.238  33.369  0.00  0.00    +0.107 C 
BRANCH  11  15
ATOM     15  C   LIG    1      -24.510  70.944  30.280  0.00  0.00    +0.011 A 
ATOM     16  C   LIG    1      -24.005  70.130  29.255  0.00  0.00    +0.129 A 
ATOM     17  F   LIG    1      -22.707  70.203  28.931  0.00  0.00    -0.205 F 
ATOM     18  C   LIG    1      -24.821  69.247  28.547  0.00  0.00    +0.041 A 
ATOM     19  C   LIG    1      -26.176  69.158  28.861  0.00  0.00    +0.041 A 
ATOM     20  C   LIG    1      -26.689  69.948  29.881  0.00  0.00    +0.124 A 
ATOM     21  F   LIG    1      -27.989  69.862  30.190  0.00  0.00    -0.205 F 
ATOM     22  C   LIG    1      -25.876  70.831  30.589  0.00  0.00    +0.046 A 
ENDBRANCH  11  15
ENDBRANCH   4  10
BRANCH   1  24
ATOM     23  C   LIG    1      -21.605  77.178  29.883  0.00  0.00    +0.285 C 
ATOM     24  N   LIG    1      -22.760  76.912  29.360  0.00  0.00    -0.178 NA
BRANCH  23  27
ATOM     25  C   LIG    1      -19.508  76.816  31.946  0.00  0.00    +0.149 C 
ATOM     26  C   LIG    1      -21.009  76.530  32.097  0.00  0.00    +0.142 C 
ATOM     27  N   LIG    1      -21.279  77.606  31.167  0.00  0.00    -0.280 N 
ATOM     28  C   LIG    1      -19.967  78.176  31.396  0.00  0.00    +0.142 C 
BRANCH  25  29
ATOM     29  O   LIG    1      -18.788  75.983  31.000  0.00  0.00    -0.389 OA
ATOM     30  H   LIG    1      -18.005  76.506  30.746  0.00  0.00    +0.210 HD
ENDBRANCH  25  29
ENDBRANCH  23  27
BRANCH  23  31
ATOM     31  O   LIG    1      -20.567  76.973  29.039  0.00  0.00    -0.481 OA
ATOM     32  H   LIG    1      -20.815  76.513  28.220  0.00  0.00    +0.295 HD
ENDBRANCH  23  31
ENDBRANCH   1  24
TORSDOF 6
ENDMDL
MODEL 8
REMARK VINA RESULT:      -5.5      2.533      3.353
REMARK  Name = pdb/CHEMBL3965077.pdb
REMARK                            x       y       z     vdW  Elec       q    Type
REMARK                         _______ _______ _______ _____ _____    ______ ____
ROOT
ATOM      1  C   LIG    1      -19.975  85.123  12.344  0.00  0.00    +0.179 A 
ATOM      2  N   LIG    1      -20.731  83.959  12.518  0.00  0.00    -0.193 N 
ATOM      3  N   LIG    1      -21.176  83.425  13.713  0.00  0.00    -0.148 NA
ATOM      4  C   LIG    1      -21.797  82.274  13.617  0.00  0.00    +0.143 A 
ATOM      5  C   LIG    1      -22.053  81.621  12.286  0.00  0.00    +0.049 A 
ATOM      6  C   LIG    1      -21.620  82.206  11.168  0.00  0.00    +0.051 A 
ATOM      7  C   LIG    1      -20.919  83.419  11.254  0.00  0.00    +0.157 A 
ATOM      8  N   LIG    1      -20.377  84.149  10.305  0.00  0.00    -0.232 NA
ATOM      9  C   LIG    1      -19.775  85.181  10.972  0.00  0.00    +0.161 A 
ENDROOT
BRANCH   4  10
ATOM     10  N   LIG    1      -22.245  81.626  14.767  0.00  0.00    -0.307 N 
ATOM     11  C   LIG    1      -21.900  80.224  15.071  0.00  0.00    +0.108 C 
ATOM     12  C   LIG    1      -21.609  80.238  16.576  0.00  0.00    +0.029 C 
ATOM     13  C   LIG    1      -22.571  81.290  17.100  0.00  0.00    +0.021 C 
ATOM     14  C   LIG    1      -22.522  82.360  16.010  0.00  0.00    +0.107 C 
BRANCH  11  15
ATOM     15  C   LIG    1      -23.014  79.268  14.690  0.00  0.00    +0.011 A 
ATOM     16  C   LIG    1      -22.770  77.887  14.707  0.00  0.00    +0.129 A 
ATOM     17  F   LIG    1      -21.559  77.432  15.058  0.00  0.00    -0.205 F 
ATOM     18  C   LIG    1      -23.754  76.961  14.355  0.00  0.00    +0.041 A 
ATOM     19  C   LIG    1      -25.018  77.408  13.980  0.00  0.00    +0.041 A 
ATOM     20  C   LIG    1      -25.280  78.772  13.969  0.00  0.00    +0.124 A 
ATOM     21  F   LIG    1      -26.496  79.207  13.614  0.00  0.00    -0.205 F 
ATOM     22  C   LIG    1      -24.299  79.697  14.319  0.00  0.00    +0.046 A 
ENDBRANCH  11  15
ENDBRANCH   4  10
BRANCH   1  24
ATOM     23  C   LIG    1      -20.156  86.929  13.780  0.00  0.00    +0.285 C 
ATOM     24  N   LIG    1      -19.533  85.856  13.402  0.00  0.00    -0.178 NA
BRANCH  23  27
ATOM     25  C   LIG    1      -22.575  88.333  14.756  0.00  0.00    +0.149 C 
ATOM     26  C   LIG    1      -22.530  87.024  13.955  0.00  0.00    +0.142 C 
ATOM     27  N   LIG    1      -21.330  87.500  13.299  0.00  0.00    -0.280 N 
ATOM     28  C   LIG    1      -21.635  88.869  13.664  0.00  0.00    +0.142 C 
BRANCH  25  29
ATOM     29  O   LIG    1      -22.005  88.289  16.089  0.00  0.00    -0.389 OA
ATOM     30  H   LIG    1      -22.672  88.711  16.665  0.00  0.00    +0.210 HD
ENDBRANCH  25  29
ENDBRANCH  23  27
BRANCH  23  31
ATOM     31  O   LIG    1      -19.568  87.556  14.826  0.00  0.00    -0.481 OA
ATOM     32  H   LIG    1      -19.780  87.161  15.687  0.00  0.00    +0.295 HD
ENDBRANCH  23  31
ENDBRANCH   1  24
TORSDOF 6
ENDMDL
MODEL 9
REMARK VINA RESULT:      -5.5     22.192     24.190
REMARK  Name = pdb/CHEMBL3965077.pdb
REMARK                            x       y       z     vdW  Elec       q    Type
REMARK                         _______ _______ _______ _____ _____    ______ ____
ROOT
ATOM      1  C   LIG    1      -38.515  76.534  24.382  0.00  0.00    +0.179 A 
ATOM      2  N   LIG    1      -39.487  75.530  24.311  0.00  0.00    -0.193 N 
ATOM      3  N   LIG    1      -39.378  74.230  24.771  0.00  0.00    -0.148 NA
ATOM      4  C   LIG    1      -40.402  73.454  24.508  0.00  0.00    +0.143 A 
ATOM      5  C   LIG    1      -41.629  73.972  23.809  0.00  0.00    +0.049 A 
ATOM      6  C   LIG    1      -41.680  75.246  23.418  0.00  0.00    +0.051 A 
ATOM      7  C   LIG    1      -40.577  76.082  23.655  0.00  0.00    +0.157 A 
ATOM      8  N   LIG    1      -40.389  77.343  23.334  0.00  0.00    -0.232 NA
ATOM      9  C   LIG    1      -39.116  77.615  23.756  0.00  0.00    +0.161 A 
ENDROOT
BRANCH   4  10
ATOM     10  N   LIG    1      -40.374  72.112  24.885  0.00  0.00    -0.307 N 
ATOM     11  C   LIG    1      -39.145  71.299  24.825  0.00  0.00    +0.108 C 
ATOM     12  C   LIG    1      -39.189  70.474  26.116  0.00  0.00    +0.029 C 
ATOM     13  C   LIG    1      -40.675  70.238  26.320  0.00  0.00    +0.021 C 
ATOM     14  C   LIG    1      -41.286  71.577  25.906  0.00  0.00    +0.107 C 
BRANCH  11  15
ATOM     15  C   LIG    1      -39.090  70.441  23.574  0.00  0.00    +0.011 A 
ATOM     16  C   LIG    1      -37.892  69.797  23.234  0.00  0.00    +0.129 A 
ATOM     17  F   LIG    1      -36.814  69.947  24.016  0.00  0.00    -0.205 F 
ATOM     18  C   LIG    1      -37.779  69.006  22.090  0.00  0.00    +0.041 A 
ATOM     19  C   LIG    1      -38.883  68.839  21.257  0.00  0.00    +0.041 A 
ATOM     20  C   LIG    1      -40.081  69.460  21.585  0.00  0.00    +0.124 A 
ATOM     21  F   LIG    1      -41.147  69.299  20.790  0.00  0.00    -0.205 F 
ATOM     22  C   LIG    1      -40.194  70.251  22.726  0.00  0.00    +0.046 A 
ENDBRANCH  11  15
ENDBRANCH   4  10
BRANCH   1  24
ATOM     23  C   LIG    1      -36.974  76.641  26.105  0.00  0.00    +0.285 C 
ATOM     24  N   LIG    1      -37.276  76.297  24.892  0.00  0.00    -0.178 NA
BRANCH  23  27
ATOM     25  C   LIG    1      -36.863  78.768  28.165  0.00  0.00    +0.149 C 
ATOM     26  C   LIG    1      -37.127  77.274  28.397  0.00  0.00    +0.142 C 
ATOM     27  N   LIG    1      -37.763  77.213  27.098  0.00  0.00    -0.280 N 
ATOM     28  C   LIG    1      -37.955  78.649  27.090  0.00  0.00    +0.142 C 
BRANCH  25  29
ATOM     29  O   LIG    1      -35.546  79.117  27.666  0.00  0.00    -0.389 OA
ATOM     30  H   LIG    1      -35.518  78.767  26.755  0.00  0.00    +0.210 HD
ENDBRANCH  25  29
ENDBRANCH  23  27
BRANCH  23  31
ATOM     31  O   LIG    1      -35.692  76.364  26.443  0.00  0.00    -0.481 OA
ATOM     32  H   LIG    1      -35.040  76.682  25.797  0.00  0.00    +0.295 HD
ENDBRANCH  23  31
ENDBRANCH   1  24
TORSDOF 6
ENDMDL
