MODEL 1
REMARK VINA RESULT:      -6.4      0.000      0.000
REMARK  Name = pdb/CHEMBL3671145.pdb
REMARK                            x       y       z     vdW  Elec       q    Type
REMARK                         _______ _______ _______ _____ _____    ______ ____
ROOT
ATOM      1  C   LIG    1      -22.776  76.855  30.476  0.00  0.00    +0.100 A 
ATOM      2  C   LIG    1      -21.839  77.337  31.369  0.00  0.00    +0.170 A 
ATOM      3  N   LIG    1      -21.936  77.729  32.674  0.00  0.00    -0.212 NA
ATOM      4  C   LIG    1      -20.843  78.106  33.310  0.00  0.00    +0.126 A 
ATOM      5  C   LIG    1      -19.503  78.161  32.611  0.00  0.00    +0.063 A 
ATOM      6  C   LIG    1      -19.465  77.791  31.326  0.00  0.00    +0.118 A 
ATOM      7  N   LIG    1      -20.619  77.365  30.688  0.00  0.00    -0.221 N 
ATOM      8  N   LIG    1      -20.736  76.937  29.410  0.00  0.00    -0.173 NA
ATOM      9  C   LIG    1      -22.024  76.623  29.293  0.00  0.00    +0.150 A 
ENDROOT
BRANCH   4  10
ATOM     10  N   LIG    1      -20.936  78.468  34.653  0.00  0.00    -0.308 N 
ATOM     11  C   LIG    1      -20.683  79.864  35.069  0.00  0.00    +0.108 C 
ATOM     12  C   LIG    1      -19.637  79.679  36.185  0.00  0.00    +0.029 C 
ATOM     13  C   LIG    1      -20.114  78.421  36.891  0.00  0.00    +0.021 C 
ATOM     14  C   LIG    1      -20.536  77.540  35.722  0.00  0.00    +0.107 C 
BRANCH  11  15
ATOM     15  C   LIG    1      -21.971  80.585  35.452  0.00  0.00    +0.011 A 
ATOM     16  C   LIG    1      -21.924  81.896  35.962  0.00  0.00    +0.129 A 
ATOM     17  F   LIG    1      -20.762  82.550  36.061  0.00  0.00    -0.205 F 
ATOM     18  C   LIG    1      -23.060  82.548  36.450  0.00  0.00    +0.041 A 
ATOM     19  C   LIG    1      -24.290  81.904  36.432  0.00  0.00    +0.041 A 
ATOM     20  C   LIG    1      -24.366  80.620  35.916  0.00  0.00    +0.124 A 
ATOM     21  F   LIG    1      -25.543  79.983  35.902  0.00  0.00    -0.205 F 
ATOM     22  C   LIG    1      -23.233  79.964  35.432  0.00  0.00    +0.046 A 
ENDBRANCH  11  15
ENDBRANCH   4  10
BRANCH   1  25
ATOM     23  N   LIG    1      -24.571  75.836  31.717  0.00  0.00    -0.308 N 
ATOM     24  H   LIG    1      -23.848  75.583  32.391  0.00  0.00    +0.149 HD
ATOM     25  C   LIG    1      -24.201  76.594  30.626  0.00  0.00    +0.249 C 
ATOM     26  O   LIG    1      -25.020  77.029  29.829  0.00  0.00    -0.270 OA
BRANCH  23  27
ATOM     27  C   LIG    1      -25.976  75.568  32.007  0.00  0.00    +0.138 C 
BRANCH  27  29
ATOM     28  C   LIG    1      -25.804  77.512  33.651  0.00  0.00    +0.042 C 
ATOM     29  C   LIG    1      -26.725  76.712  32.731  0.00  0.00    +0.076 C 
ATOM     30  C   LIG    1      -27.885  76.154  33.568  0.00  0.00    +0.042 C 
BRANCH  29  31
ATOM     31  O   LIG    1      -27.266  77.598  31.742  0.00  0.00    -0.388 OA
ATOM     32  H   LIG    1      -28.186  77.797  31.981  0.00  0.00    +0.210 HD
ENDBRANCH  29  31
ENDBRANCH  27  29
ENDBRANCH  23  27
ENDBRANCH   1  25
TORSDOF 6
ENDMDL
MODEL 2
REMARK VINA RESULT:      -6.1     18.142     20.759
REMARK  Name = pdb/CHEMBL3671145.pdb
REMARK                            x       y       z     vdW  Elec       q    Type
REMARK                         _______ _______ _______ _____ _____    ______ ____
ROOT
ATOM      1  C   LIG    1      -18.157  84.692  12.926  0.00  0.00    +0.100 A 
ATOM      2  C   LIG    1      -18.631  83.433  13.242  0.00  0.00    +0.170 A 
ATOM      3  N   LIG    1      -19.652  83.016  14.048  0.00  0.00    -0.212 NA
ATOM      4  C   LIG    1      -19.917  81.726  14.124  0.00  0.00    +0.126 A 
ATOM      5  C   LIG    1      -19.088  80.703  13.380  0.00  0.00    +0.063 A 
ATOM      6  C   LIG    1      -18.084  81.161  12.623  0.00  0.00    +0.118 A 
ATOM      7  N   LIG    1      -17.844  82.523  12.531  0.00  0.00    -0.221 N 
ATOM      8  N   LIG    1      -16.892  83.137  11.792  0.00  0.00    -0.173 NA
ATOM      9  C   LIG    1      -17.091  84.432  12.023  0.00  0.00    +0.150 A 
ENDROOT
BRANCH   4  10
ATOM     10  N   LIG    1      -20.984  81.303  14.916  0.00  0.00    -0.308 N 
ATOM     11  C   LIG    1      -22.303  81.027  14.307  0.00  0.00    +0.108 C 
ATOM     12  C   LIG    1      -23.242  81.878  15.181  0.00  0.00    +0.029 C 
ATOM     13  C   LIG    1      -22.650  81.717  16.571  0.00  0.00    +0.021 C 
ATOM     14  C   LIG    1      -21.155  81.796  16.292  0.00  0.00    +0.107 C 
BRANCH  11  15
ATOM     15  C   LIG    1      -22.597  79.532  14.242  0.00  0.00    +0.011 A 
ATOM     16  C   LIG    1      -23.754  79.065  13.593  0.00  0.00    +0.129 A 
ATOM     17  F   LIG    1      -24.580  79.914  12.971  0.00  0.00    -0.205 F 
ATOM     18  C   LIG    1      -24.135  77.720  13.621  0.00  0.00    +0.041 A 
ATOM     19  C   LIG    1      -23.354  76.793  14.299  0.00  0.00    +0.041 A 
ATOM     20  C   LIG    1      -22.199  77.225  14.929  0.00  0.00    +0.124 A 
ATOM     21  F   LIG    1      -21.442  76.344  15.595  0.00  0.00    -0.205 F 
ATOM     22  C   LIG    1      -21.817  78.567  14.906  0.00  0.00    +0.046 A 
ENDBRANCH  11  15
ENDBRANCH   4  10
BRANCH   1  25
ATOM     23  N   LIG    1      -19.754  86.069  14.088  0.00  0.00    -0.308 N 
ATOM     24  H   LIG    1      -20.185  85.187  14.367  0.00  0.00    +0.149 HD
ATOM     25  C   LIG    1      -18.592  86.016  13.348  0.00  0.00    +0.249 C 
ATOM     26  O   LIG    1      -17.955  87.020  13.064  0.00  0.00    -0.270 OA
BRANCH  23  27
ATOM     27  C   LIG    1      -20.249  87.334  14.623  0.00  0.00    +0.138 C 
BRANCH  27  29
ATOM     28  C   LIG    1      -22.354  85.936  14.982  0.00  0.00    +0.042 C 
ATOM     29  C   LIG    1      -21.660  87.270  15.255  0.00  0.00    +0.076 C 
ATOM     30  C   LIG    1      -22.547  88.401  14.715  0.00  0.00    +0.042 C 
BRANCH  29  31
ATOM     31  O   LIG    1      -21.530  87.436  16.674  0.00  0.00    -0.388 OA
ATOM     32  H   LIG    1      -22.164  88.113  16.961  0.00  0.00    +0.210 HD
ENDBRANCH  29  31
ENDBRANCH  27  29
ENDBRANCH  23  27
ENDBRANCH   1  25
TORSDOF 6
ENDMDL
MODEL 3
REMARK VINA RESULT:      -5.8      1.914      2.477
REMARK  Name = pdb/CHEMBL3671145.pdb
REMARK                            x       y       z     vdW  Elec       q    Type
REMARK                         _______ _______ _______ _____ _____    ______ ____
ROOT
ATOM      1  C   LIG    1      -20.886  77.362  30.741  0.00  0.00    +0.100 A 
ATOM      2  C   LIG    1      -20.254  77.876  31.856  0.00  0.00    +0.170 A 
ATOM      3  N   LIG    1      -20.733  78.495  32.976  0.00  0.00    -0.212 NA
ATOM      4  C   LIG    1      -19.884  78.844  33.924  0.00  0.00    +0.126 A 
ATOM      5  C   LIG    1      -18.396  78.617  33.775  0.00  0.00    +0.063 A 
ATOM      6  C   LIG    1      -17.975  78.029  32.649  0.00  0.00    +0.118 A 
ATOM      7  N   LIG    1      -18.887  77.640  31.681  0.00  0.00    -0.221 N 
ATOM      8  N   LIG    1      -18.621  77.016  30.511  0.00  0.00    -0.173 NA
ATOM      9  C   LIG    1      -19.820  76.842  29.960  0.00  0.00    +0.150 A 
ENDROOT
BRANCH   4  10
ATOM     10  N   LIG    1      -20.377  79.440  35.084  0.00  0.00    -0.308 N 
ATOM     11  C   LIG    1      -21.519  80.377  35.014  0.00  0.00    +0.108 C 
ATOM     12  C   LIG    1      -20.972  81.604  35.767  0.00  0.00    +0.029 C 
ATOM     13  C   LIG    1      -20.167  80.978  36.894  0.00  0.00    +0.021 C 
ATOM     14  C   LIG    1      -19.481  79.815  36.189  0.00  0.00    +0.107 C 
BRANCH  11  15
ATOM     15  C   LIG    1      -22.800  79.754  35.561  0.00  0.00    +0.011 A 
ATOM     16  C   LIG    1      -23.901  79.537  34.713  0.00  0.00    +0.129 A 
ATOM     17  F   LIG    1      -23.823  79.815  33.407  0.00  0.00    -0.205 F 
ATOM     18  C   LIG    1      -25.137  79.095  35.193  0.00  0.00    +0.041 A 
ATOM     19  C   LIG    1      -25.305  78.843  36.548  0.00  0.00    +0.041 A 
ATOM     20  C   LIG    1      -24.229  79.030  37.401  0.00  0.00    +0.124 A 
ATOM     21  F   LIG    1      -24.379  78.801  38.712  0.00  0.00    -0.205 F 
ATOM     22  C   LIG    1      -22.994  79.476  36.926  0.00  0.00    +0.046 A 
ENDBRANCH  11  15
ENDBRANCH   4  10
BRANCH   1  25
ATOM     23  N   LIG    1      -23.197  77.534  31.394  0.00  0.00    -0.308 N 
ATOM     24  H   LIG    1      -22.831  77.816  32.304  0.00  0.00    +0.149 HD
ATOM     25  C   LIG    1      -22.296  77.302  30.378  0.00  0.00    +0.249 C 
ATOM     26  O   LIG    1      -22.653  77.065  29.233  0.00  0.00    -0.270 OA
BRANCH  23  27
ATOM     27  C   LIG    1      -24.633  77.568  31.135  0.00  0.00    +0.138 C 
BRANCH  27  29
ATOM     28  C   LIG    1      -26.911  76.811  31.999  0.00  0.00    +0.042 C 
ATOM     29  C   LIG    1      -25.446  76.431  31.798  0.00  0.00    +0.076 C 
ATOM     30  C   LIG    1      -24.846  76.061  33.162  0.00  0.00    +0.042 C 
BRANCH  29  31
ATOM     31  O   LIG    1      -25.385  75.276  30.950  0.00  0.00    -0.388 OA
ATOM     32  H   LIG    1      -24.453  75.026  30.841  0.00  0.00    +0.210 HD
ENDBRANCH  29  31
ENDBRANCH  27  29
ENDBRANCH  23  27
ENDBRANCH   1  25
TORSDOF 6
ENDMDL
MODEL 4
REMARK VINA RESULT:      -5.7     12.884     17.280
REMARK  Name = pdb/CHEMBL3671145.pdb
REMARK                            x       y       z     vdW  Elec       q    Type
REMARK                         _______ _______ _______ _____ _____    ______ ____
ROOT
ATOM      1  C   LIG    1      -33.651  75.069  28.569  0.00  0.00    +0.100 A 
ATOM      2  C   LIG    1      -34.881  74.608  28.139  0.00  0.00    +0.170 A 
ATOM      3  N   LIG    1      -35.928  75.234  27.525  0.00  0.00    -0.212 NA
ATOM      4  C   LIG    1      -36.981  74.521  27.175  0.00  0.00    +0.126 A 
ATOM      5  C   LIG    1      -37.071  73.042  27.482  0.00  0.00    +0.063 A 
ATOM      6  C   LIG    1      -36.029  72.482  28.107  0.00  0.00    +0.118 A 
ATOM      7  N   LIG    1      -34.918  73.243  28.435  0.00  0.00    -0.221 N 
ATOM      8  N   LIG    1      -33.785  72.819  29.039  0.00  0.00    -0.173 NA
ATOM      9  C   LIG    1      -33.028  73.910  29.105  0.00  0.00    +0.150 A 
ENDROOT
BRANCH   4  10
ATOM     10  N   LIG    1      -38.033  75.152  26.512  0.00  0.00    -0.308 N 
ATOM     11  C   LIG    1      -38.114  75.118  25.037  0.00  0.00    +0.108 C 
ATOM     12  C   LIG    1      -38.271  76.611  24.692  0.00  0.00    +0.029 C 
ATOM     13  C   LIG    1      -39.173  77.122  25.803  0.00  0.00    +0.021 C 
ATOM     14  C   LIG    1      -38.615  76.403  27.024  0.00  0.00    +0.107 C 
BRANCH  11  15
ATOM     15  C   LIG    1      -39.217  74.185  24.549  0.00  0.00    +0.011 A 
ATOM     16  C   LIG    1      -38.969  72.807  24.411  0.00  0.00    +0.129 A 
ATOM     17  F   LIG    1      -37.788  72.285  24.762  0.00  0.00    -0.205 F 
ATOM     18  C   LIG    1      -39.902  71.933  23.844  0.00  0.00    +0.041 A 
ATOM     19  C   LIG    1      -41.126  72.419  23.403  0.00  0.00    +0.041 A 
ATOM     20  C   LIG    1      -41.402  73.769  23.546  0.00  0.00    +0.124 A 
ATOM     21  F   LIG    1      -42.574  74.252  23.116  0.00  0.00    -0.205 F 
ATOM     22  C   LIG    1      -40.471  74.644  24.108  0.00  0.00    +0.046 A 
ENDBRANCH  11  15
ENDBRANCH   4  10
BRANCH   1  25
ATOM     23  N   LIG    1      -33.880  77.428  28.145  0.00  0.00    -0.308 N 
ATOM     24  H   LIG    1      -34.873  77.225  28.027  0.00  0.00    +0.149 HD
ATOM     25  C   LIG    1      -33.047  76.393  28.509  0.00  0.00    +0.249 C 
ATOM     26  O   LIG    1      -31.866  76.570  28.775  0.00  0.00    -0.270 OA
BRANCH  23  27
ATOM     27  C   LIG    1      -33.402  78.807  28.118  0.00  0.00    +0.138 C 
BRANCH  27  29
ATOM     28  C   LIG    1      -34.499  80.719  29.403  0.00  0.00    +0.042 C 
ATOM     29  C   LIG    1      -34.512  79.885  28.123  0.00  0.00    +0.076 C 
ATOM     30  C   LIG    1      -35.896  79.238  27.976  0.00  0.00    +0.042 C 
BRANCH  29  31
ATOM     31  O   LIG    1      -34.300  80.758  27.005  0.00  0.00    -0.388 OA
ATOM     32  H   LIG    1      -34.699  80.349  26.219  0.00  0.00    +0.210 HD
ENDBRANCH  29  31
ENDBRANCH  27  29
ENDBRANCH  23  27
ENDBRANCH   1  25
TORSDOF 6
ENDMDL
MODEL 5
REMARK VINA RESULT:      -5.7     13.715     18.128
REMARK  Name = pdb/CHEMBL3671145.pdb
REMARK                            x       y       z     vdW  Elec       q    Type
REMARK                         _______ _______ _______ _____ _____    ______ ____
ROOT
ATOM      1  C   LIG    1      -35.222  78.908  28.362  0.00  0.00    +0.100 A 
ATOM      2  C   LIG    1      -36.202  78.018  27.965  0.00  0.00    +0.170 A 
ATOM      3  N   LIG    1      -37.225  78.126  27.067  0.00  0.00    -0.212 NA
ATOM      4  C   LIG    1      -37.993  77.076  26.847  0.00  0.00    +0.126 A 
ATOM      5  C   LIG    1      -37.794  75.780  27.601  0.00  0.00    +0.063 A 
ATOM      6  C   LIG    1      -36.793  75.734  28.488  0.00  0.00    +0.118 A 
ATOM      7  N   LIG    1      -35.977  76.838  28.678  0.00  0.00    -0.221 N 
ATOM      8  N   LIG    1      -34.917  76.937  29.512  0.00  0.00    -0.173 NA
ATOM      9  C   LIG    1      -34.463  78.171  29.310  0.00  0.00    +0.150 A 
ENDROOT
BRANCH   4  10
ATOM     10  N   LIG    1      -39.013  77.173  25.901  0.00  0.00    -0.308 N 
ATOM     11  C   LIG    1      -38.820  76.637  24.537  0.00  0.00    +0.108 C 
ATOM     12  C   LIG    1      -39.203  77.846  23.663  0.00  0.00    +0.029 C 
ATOM     13  C   LIG    1      -40.373  78.453  24.419  0.00  0.00    +0.021 C 
ATOM     14  C   LIG    1      -39.913  78.337  25.866  0.00  0.00    +0.107 C 
BRANCH  11  15
ATOM     15  C   LIG    1      -39.611  75.353  24.313  0.00  0.00    +0.011 A 
ATOM     16  C   LIG    1      -39.006  74.101  24.526  0.00  0.00    +0.129 A 
ATOM     17  F   LIG    1      -37.752  74.017  24.986  0.00  0.00    -0.205 F 
ATOM     18  C   LIG    1      -39.644  72.899  24.208  0.00  0.00    +0.041 A 
ATOM     19  C   LIG    1      -40.926  72.916  23.672  0.00  0.00    +0.041 A 
ATOM     20  C   LIG    1      -41.551  74.136  23.471  0.00  0.00    +0.124 A 
ATOM     21  F   LIG    1      -42.782  74.167  22.945  0.00  0.00    -0.205 F 
ATOM     22  C   LIG    1      -40.915  75.338  23.784  0.00  0.00    +0.046 A 
ENDBRANCH  11  15
ENDBRANCH   4  10
BRANCH   1  25
ATOM     23  N   LIG    1      -35.614  81.268  28.634  0.00  0.00    -0.308 N 
ATOM     24  H   LIG    1      -36.187  80.995  29.433  0.00  0.00    +0.149 HD
ATOM     25  C   LIG    1      -34.944  80.277  27.950  0.00  0.00    +0.249 C 
ATOM     26  O   LIG    1      -34.154  80.527  27.050  0.00  0.00    -0.270 OA
BRANCH  23  27
ATOM     27  C   LIG    1      -35.363  82.679  28.355  0.00  0.00    +0.138 C 
BRANCH  27  29
ATOM     28  C   LIG    1      -36.442  84.792  27.417  0.00  0.00    +0.042 C 
ATOM     29  C   LIG    1      -36.236  83.290  27.233  0.00  0.00    +0.076 C 
ATOM     30  C   LIG    1      -37.612  82.611  27.187  0.00  0.00    +0.042 C 
BRANCH  29  31
ATOM     31  O   LIG    1      -35.581  83.068  25.977  0.00  0.00    -0.388 OA
ATOM     32  H   LIG    1      -35.892  82.222  25.616  0.00  0.00    +0.210 HD
ENDBRANCH  29  31
ENDBRANCH  27  29
ENDBRANCH  23  27
ENDBRANCH   1  25
TORSDOF 6
ENDMDL
MODEL 6
REMARK VINA RESULT:      -5.6      2.688      5.739
REMARK  Name = pdb/CHEMBL3671145.pdb
REMARK                            x       y       z     vdW  Elec       q    Type
REMARK                         _______ _______ _______ _____ _____    ______ ____
ROOT
ATOM      1  C   LIG    1      -24.411  79.849  35.546  0.00  0.00    +0.100 A 
ATOM      2  C   LIG    1      -23.057  79.890  35.280  0.00  0.00    +0.170 A 
ATOM      3  N   LIG    1      -22.237  79.055  34.574  0.00  0.00    -0.212 NA
ATOM      4  C   LIG    1      -20.965  79.376  34.439  0.00  0.00    +0.126 A 
ATOM      5  C   LIG    1      -20.389  80.615  35.087  0.00  0.00    +0.063 A 
ATOM      6  C   LIG    1      -21.228  81.387  35.788  0.00  0.00    +0.118 A 
ATOM      7  N   LIG    1      -22.568  81.049  35.888  0.00  0.00    -0.221 N 
ATOM      8  N   LIG    1      -23.538  81.736  36.534  0.00  0.00    -0.173 NA
ATOM      9  C   LIG    1      -24.638  81.021  36.315  0.00  0.00    +0.150 A 
ENDROOT
BRANCH   4  10
ATOM     10  N   LIG    1      -20.136  78.544  33.686  0.00  0.00    -0.308 N 
ATOM     11  C   LIG    1      -20.490  77.123  33.484  0.00  0.00    +0.108 C 
ATOM     12  C   LIG    1      -19.197  76.408  33.921  0.00  0.00    +0.029 C 
ATOM     13  C   LIG    1      -18.108  77.326  33.393  0.00  0.00    +0.021 C 
ATOM     14  C   LIG    1      -18.674  78.706  33.703  0.00  0.00    +0.107 C 
BRANCH  11  15
ATOM     15  C   LIG    1      -20.973  76.853  32.063  0.00  0.00    +0.011 A 
ATOM     16  C   LIG    1      -22.165  76.138  31.844  0.00  0.00    +0.129 A 
ATOM     17  F   LIG    1      -22.922  75.739  32.872  0.00  0.00    -0.205 F 
ATOM     18  C   LIG    1      -22.580  75.751  30.566  0.00  0.00    +0.041 A 
ATOM     19  C   LIG    1      -21.809  76.082  29.458  0.00  0.00    +0.041 A 
ATOM     20  C   LIG    1      -20.642  76.804  29.647  0.00  0.00    +0.124 A 
ATOM     21  F   LIG    1      -19.885  77.120  28.589  0.00  0.00    -0.205 F 
ATOM     22  C   LIG    1      -20.223  77.188  30.922  0.00  0.00    +0.046 A 
ENDBRANCH  11  15
ENDBRANCH   4  10
BRANCH   1  25
ATOM     23  N   LIG    1      -25.191  78.163  34.013  0.00  0.00    -0.308 N 
ATOM     24  H   LIG    1      -24.282  78.271  33.564  0.00  0.00    +0.149 HD
ATOM     25  C   LIG    1      -25.438  78.891  35.157  0.00  0.00    +0.249 C 
ATOM     26  O   LIG    1      -26.457  78.742  35.816  0.00  0.00    -0.270 OA
BRANCH  23  27
ATOM     27  C   LIG    1      -26.116  77.127  33.565  0.00  0.00    +0.138 C 
BRANCH  27  29
ATOM     28  C   LIG    1      -26.071  75.540  31.568  0.00  0.00    +0.042 C 
ATOM     29  C   LIG    1      -26.247  76.985  32.030  0.00  0.00    +0.076 C 
ATOM     30  C   LIG    1      -25.206  77.857  31.315  0.00  0.00    +0.042 C 
BRANCH  29  31
ATOM     31  O   LIG    1      -27.554  77.434  31.643  0.00  0.00    -0.388 OA
ATOM     32  H   LIG    1      -27.803  76.975  30.824  0.00  0.00    +0.210 HD
ENDBRANCH  29  31
ENDBRANCH  27  29
ENDBRANCH  23  27
ENDBRANCH   1  25
TORSDOF 6
ENDMDL
MODEL 7
REMARK VINA RESULT:      -5.6     20.794     22.496
REMARK  Name = pdb/CHEMBL3671145.pdb
REMARK                            x       y       z     vdW  Elec       q    Type
REMARK                         _______ _______ _______ _____ _____    ______ ____
ROOT
ATOM      1  C   LIG    1      -32.228  94.028  23.614  0.00  0.00    +0.100 A 
ATOM      2  C   LIG    1      -32.342  93.606  22.303  0.00  0.00    +0.170 A 
ATOM      3  N   LIG    1      -33.340  92.957  21.635  0.00  0.00    -0.212 NA
ATOM      4  C   LIG    1      -33.196  92.720  20.345  0.00  0.00    +0.126 A 
ATOM      5  C   LIG    1      -31.933  93.108  19.608  0.00  0.00    +0.063 A 
ATOM      6  C   LIG    1      -30.974  93.720  20.314  0.00  0.00    +0.118 A 
ATOM      7  N   LIG    1      -31.162  93.989  21.660  0.00  0.00    -0.221 N 
ATOM      8  N   LIG    1      -30.304  94.619  22.495  0.00  0.00    -0.173 NA
ATOM      9  C   LIG    1      -30.952  94.651  23.657  0.00  0.00    +0.150 A 
ENDROOT
BRANCH   4  10
ATOM     10  N   LIG    1      -34.232  92.093  19.655  0.00  0.00    -0.308 N 
ATOM     11  C   LIG    1      -34.457  92.383  18.223  0.00  0.00    +0.108 C 
ATOM     12  C   LIG    1      -35.953  92.747  18.203  0.00  0.00    +0.029 C 
ATOM     13  C   LIG    1      -36.551  91.774  19.206  0.00  0.00    +0.021 C 
ATOM     14  C   LIG    1      -35.508  91.778  20.316  0.00  0.00    +0.107 C 
BRANCH  11  15
ATOM     15  C   LIG    1      -34.024  91.222  17.333  0.00  0.00    +0.011 A 
ATOM     16  C   LIG    1      -34.066  91.349  15.932  0.00  0.00    +0.129 A 
ATOM     17  F   LIG    1      -34.426  92.504  15.361  0.00  0.00    -0.205 F 
ATOM     18  C   LIG    1      -33.808  90.275  15.077  0.00  0.00    +0.041 A 
ATOM     19  C   LIG    1      -33.485  89.031  15.604  0.00  0.00    +0.041 A 
ATOM     20  C   LIG    1      -33.417  88.886  16.980  0.00  0.00    +0.124 A 
ATOM     21  F   LIG    1      -33.118  87.690  17.503  0.00  0.00    -0.205 F 
ATOM     22  C   LIG    1      -33.679  89.956  17.838  0.00  0.00    +0.046 A 
ENDBRANCH  11  15
ENDBRANCH   4  10
BRANCH   1  25
ATOM     23  N   LIG    1      -34.027  92.866  24.713  0.00  0.00    -0.308 N 
ATOM     24  H   LIG    1      -33.926  92.178  23.967  0.00  0.00    +0.149 HD
ATOM     25  C   LIG    1      -33.147  93.926  24.740  0.00  0.00    +0.249 C 
ATOM     26  O   LIG    1      -33.129  94.734  25.657  0.00  0.00    -0.270 OA
BRANCH  23  27
ATOM     27  C   LIG    1      -34.947  92.622  25.820  0.00  0.00    +0.138 C 
BRANCH  27  29
ATOM     28  C   LIG    1      -35.692  91.112  27.737  0.00  0.00    +0.042 C 
ATOM     29  C   LIG    1      -34.795  91.245  26.508  0.00  0.00    +0.076 C 
ATOM     30  C   LIG    1      -33.340  91.012  26.938  0.00  0.00    +0.042 C 
BRANCH  29  31
ATOM     31  O   LIG    1      -35.156  90.225  25.565  0.00  0.00    -0.388 OA
ATOM     32  H   LIG    1      -36.125  90.165  25.538  0.00  0.00    +0.210 HD
ENDBRANCH  29  31
ENDBRANCH  27  29
ENDBRANCH  23  27
ENDBRANCH   1  25
TORSDOF 6
ENDMDL
MODEL 8
REMARK VINA RESULT:      -5.6     18.610     21.177
REMARK  Name = pdb/CHEMBL3671145.pdb
REMARK                            x       y       z     vdW  Elec       q    Type
REMARK                         _______ _______ _______ _____ _____    ______ ____
ROOT
ATOM      1  C   LIG    1      -39.968  69.129  21.621  0.00  0.00    +0.100 A 
ATOM      2  C   LIG    1      -39.313  69.798  22.636  0.00  0.00    +0.170 A 
ATOM      3  N   LIG    1      -39.680  70.851  23.424  0.00  0.00    -0.212 NA
ATOM      4  C   LIG    1      -38.856  71.260  24.369  0.00  0.00    +0.126 A 
ATOM      5  C   LIG    1      -37.499  70.619  24.564  0.00  0.00    +0.063 A 
ATOM      6  C   LIG    1      -37.176  69.607  23.751  0.00  0.00    +0.118 A 
ATOM      7  N   LIG    1      -38.072  69.172  22.787  0.00  0.00    -0.221 N 
ATOM      8  N   LIG    1      -37.903  68.153  21.915  0.00  0.00    -0.173 NA
ATOM      9  C   LIG    1      -39.043  68.124  21.230  0.00  0.00    +0.150 A 
ENDROOT
BRANCH   4  10
ATOM     10  N   LIG    1      -39.248  72.309  25.199  0.00  0.00    -0.308 N 
ATOM     11  C   LIG    1      -38.404  73.517  25.323  0.00  0.00    +0.108 C 
ATOM     12  C   LIG    1      -38.247  73.641  26.850  0.00  0.00    +0.029 C 
ATOM     13  C   LIG    1      -39.618  73.234  27.365  0.00  0.00    +0.021 C 
ATOM     14  C   LIG    1      -39.963  72.059  26.460  0.00  0.00    +0.107 C 
BRANCH  11  15
ATOM     15  C   LIG    1      -39.015  74.713  24.599  0.00  0.00    +0.011 A 
ATOM     16  C   LIG    1      -38.351  75.953  24.595  0.00  0.00    +0.129 A 
ATOM     17  F   LIG    1      -37.150  76.088  25.169  0.00  0.00    -0.205 F 
ATOM     18  C   LIG    1      -38.930  77.109  24.062  0.00  0.00    +0.041 A 
ATOM     19  C   LIG    1      -40.200  77.053  23.503  0.00  0.00    +0.041 A 
ATOM     20  C   LIG    1      -40.866  75.838  23.477  0.00  0.00    +0.124 A 
ATOM     21  F   LIG    1      -42.095  75.772  22.950  0.00  0.00    -0.205 F 
ATOM     22  C   LIG    1      -40.293  74.684  24.012  0.00  0.00    +0.046 A 
ENDBRANCH  11  15
ENDBRANCH   4  10
BRANCH   1  25
ATOM     23  N   LIG    1      -41.635  70.616  20.724  0.00  0.00    -0.308 N 
ATOM     24  H   LIG    1      -40.924  71.341  20.828  0.00  0.00    +0.149 HD
ATOM     25  C   LIG    1      -41.291  69.321  21.041  0.00  0.00    +0.249 C 
ATOM     26  O   LIG    1      -42.046  68.380  20.845  0.00  0.00    -0.270 OA
BRANCH  23  27
ATOM     27  C   LIG    1      -42.907  70.921  20.075  0.00  0.00    +0.138 C 
BRANCH  27  29
ATOM     28  C   LIG    1      -42.979  72.694  21.908  0.00  0.00    +0.042 C 
ATOM     29  C   LIG    1      -43.707  72.081  20.713  0.00  0.00    +0.076 C 
ATOM     30  C   LIG    1      -45.087  71.595  21.178  0.00  0.00    +0.042 C 
BRANCH  29  31
ATOM     31  O   LIG    1      -43.897  73.100  19.721  0.00  0.00    -0.388 OA
ATOM     32  H   LIG    1      -43.261  72.949  19.003  0.00  0.00    +0.210 HD
ENDBRANCH  29  31
ENDBRANCH  27  29
ENDBRANCH  23  27
ENDBRANCH   1  25
TORSDOF 6
ENDMDL
MODEL 9
REMARK VINA RESULT:      -5.4     18.166     21.184
REMARK  Name = pdb/CHEMBL3671145.pdb
REMARK                            x       y       z     vdW  Elec       q    Type
REMARK                         _______ _______ _______ _____ _____    ______ ____
ROOT
ATOM      1  C   LIG    1      -18.280  84.690  12.814  0.00  0.00    +0.100 A 
ATOM      2  C   LIG    1      -18.801  83.439  13.083  0.00  0.00    +0.170 A 
ATOM      3  N   LIG    1      -19.795  83.024  13.923  0.00  0.00    -0.212 NA
ATOM      4  C   LIG    1      -20.124  81.746  13.939  0.00  0.00    +0.126 A 
ATOM      5  C   LIG    1      -19.394  80.732  13.087  0.00  0.00    +0.063 A 
ATOM      6  C   LIG    1      -18.412  81.186  12.299  0.00  0.00    +0.118 A 
ATOM      7  N   LIG    1      -18.106  82.537  12.273  0.00  0.00    -0.221 N 
ATOM      8  N   LIG    1      -17.166  83.148  11.516  0.00  0.00    -0.173 NA
ATOM      9  C   LIG    1      -17.284  84.434  11.834  0.00  0.00    +0.150 A 
ENDROOT
BRANCH   4  10
ATOM     10  N   LIG    1      -21.164  81.328  14.768  0.00  0.00    -0.308 N 
ATOM     11  C   LIG    1      -22.436  82.081  14.806  0.00  0.00    +0.108 C 
ATOM     12  C   LIG    1      -22.616  82.327  16.316  0.00  0.00    +0.029 C 
ATOM     13  C   LIG    1      -22.120  81.029  16.932  0.00  0.00    +0.021 C 
ATOM     14  C   LIG    1      -20.896  80.718  16.080  0.00  0.00    +0.107 C 
BRANCH  11  15
ATOM     15  C   LIG    1      -23.561  81.333  14.097  0.00  0.00    +0.011 A 
ATOM     16  C   LIG    1      -23.830  81.580  12.739  0.00  0.00    +0.129 A 
ATOM     17  F   LIG    1      -23.069  82.425  12.033  0.00  0.00    -0.205 F 
ATOM     18  C   LIG    1      -24.929  81.021  12.081  0.00  0.00    +0.041 A 
ATOM     19  C   LIG    1      -25.794  80.181  12.770  0.00  0.00    +0.041 A 
ATOM     20  C   LIG    1      -25.539  79.905  14.103  0.00  0.00    +0.124 A 
ATOM     21  F   LIG    1      -26.371  79.105  14.782  0.00  0.00    -0.205 F 
ATOM     22  C   LIG    1      -24.444  80.465  14.764  0.00  0.00    +0.046 A 
ENDBRANCH  11  15
ENDBRANCH   4  10
BRANCH   1  25
ATOM     23  N   LIG    1      -19.797  86.093  14.049  0.00  0.00    -0.308 N 
ATOM     24  H   LIG    1      -20.309  85.230  14.237  0.00  0.00    +0.149 HD
ATOM     25  C   LIG    1      -18.619  86.005  13.339  0.00  0.00    +0.249 C 
ATOM     26  O   LIG    1      -17.893  86.973  13.162  0.00  0.00    -0.270 OA
BRANCH  23  27
ATOM     27  C   LIG    1      -20.206  87.345  14.680  0.00  0.00    +0.138 C 
BRANCH  27  29
ATOM     28  C   LIG    1      -22.548  88.355  14.721  0.00  0.00    +0.042 C 
ATOM     29  C   LIG    1      -21.274  88.152  13.904  0.00  0.00    +0.076 C 
ATOM     30  C   LIG    1      -21.641  87.443  12.593  0.00  0.00    +0.042 C 
BRANCH  29  31
ATOM     31  O   LIG    1      -20.725  89.438  13.585  0.00  0.00    -0.388 OA
ATOM     32  H   LIG    1      -21.385  90.115  13.808  0.00  0.00    +0.210 HD
ENDBRANCH  29  31
ENDBRANCH  27  29
ENDBRANCH  23  27
ENDBRANCH   1  25
TORSDOF 6
ENDMDL
