MODEL 1
REMARK VINA RESULT:      -6.3      0.000      0.000
REMARK  Name = pdb/CHEMBL3905382.pdb
REMARK                            x       y       z     vdW  Elec       q    Type
REMARK                         _______ _______ _______ _____ _____    ______ ____
ROOT
ATOM      1  C   LIG    1      -26.679  76.817  32.971  0.00  0.00    +0.133 A 
ATOM      2  C   LIG    1      -26.461  77.171  34.291  0.00  0.00    +0.183 A 
ATOM      3  N   LIG    1      -25.927  78.285  34.951  0.00  0.00    -0.211 NA
ATOM      4  C   LIG    1      -25.677  78.208  36.243  0.00  0.00    +0.126 A 
ATOM      5  C   LIG    1      -26.043  76.940  37.010  0.00  0.00    +0.063 A 
ATOM      6  C   LIG    1      -26.623  75.931  36.351  0.00  0.00    +0.118 A 
ATOM      7  N   LIG    1      -26.856  76.032  34.998  0.00  0.00    -0.220 N 
ATOM      8  N   LIG    1      -27.439  75.086  34.221  0.00  0.00    -0.171 NA
ATOM      9  C   LIG    1      -27.324  75.582  32.983  0.00  0.00    +0.165 A 
ENDROOT
BRANCH   4  10
ATOM     10  N   LIG    1      -25.044  79.272  36.941  0.00  0.00    -0.308 N 
ATOM     11  C   LIG    1      -24.886  80.630  36.335  0.00  0.00    +0.106 C 
ATOM     12  C   LIG    1      -25.864  81.475  37.188  0.00  0.00    +0.029 C 
ATOM     13  C   LIG    1      -26.117  80.703  38.474  0.00  0.00    +0.021 C 
ATOM     14  C   LIG    1      -25.234  79.478  38.381  0.00  0.00    +0.107 C 
BRANCH  11  15
ATOM     15  C   LIG    1      -23.475  81.249  36.441  0.00  0.00    -0.013 A 
ATOM     16  C   LIG    1      -22.374  80.783  35.652  0.00  0.00    +0.060 A 
ATOM     17  C   LIG    1      -21.114  81.415  35.780  0.00  0.00    +0.015 A 
ATOM     18  C   LIG    1      -20.914  82.462  36.671  0.00  0.00    +0.039 A 
ATOM     19  C   LIG    1      -21.971  82.893  37.453  0.00  0.00    +0.124 A 
ATOM     20  F   LIG    1      -21.774  83.891  38.324  0.00  0.00    -0.205 F 
ATOM     21  C   LIG    1      -23.229  82.302  37.351  0.00  0.00    +0.044 A 
BRANCH  16  22
ATOM     22  C   LIG    1      -22.381  79.626  34.657  0.00  0.00    +0.418 C 
ATOM     23  F   LIG    1      -21.214  79.548  33.956  0.00  0.00    -0.166 F 
ATOM     24  F   LIG    1      -23.355  79.783  33.712  0.00  0.00    -0.166 F 
ATOM     25  F   LIG    1      -22.574  78.384  35.172  0.00  0.00    -0.166 F 
ENDBRANCH  16  22
ENDBRANCH  11  15
ENDBRANCH   4  10
BRANCH   1  27
ATOM     26  C   LIG    1      -25.181  77.516  31.277  0.00  0.00    +0.283 C 
ATOM     27  N   LIG    1      -26.295  77.605  31.870  0.00  0.00    -0.194 NA
BRANCH  26  30
ATOM     28  C   LIG    1      -22.510  76.497  29.596  0.00  0.00    +0.133 C 
ATOM     29  C   LIG    1      -23.614  75.779  30.388  0.00  0.00    +0.140 C 
ATOM     30  N   LIG    1      -23.984  76.757  31.432  0.00  0.00    -0.283 N 
ATOM     31  C   LIG    1      -22.751  77.512  31.766  0.00  0.00    +0.112 C 
ATOM     32  C   LIG    1      -21.698  77.121  30.715  0.00  0.00    +0.052 C 
BRANCH  28  33
ATOM     33  O   LIG    1      -23.084  77.530  28.786  0.00  0.00    -0.390 OA
ATOM     34  H   LIG    1      -22.486  78.303  28.802  0.00  0.00    +0.210 HD
ENDBRANCH  28  33
ENDBRANCH  26  30
BRANCH  26  35
ATOM     35  O   LIG    1      -25.088  78.377  30.239  0.00  0.00    -0.481 OA
ATOM     36  H   LIG    1      -25.932  78.779  30.045  0.00  0.00    +0.295 HD
ENDBRANCH  26  35
ENDBRANCH   1  27
TORSDOF 7
ENDMDL
MODEL 2
REMARK VINA RESULT:      -6.2     19.369     22.896
REMARK  Name = pdb/CHEMBL3905382.pdb
REMARK                            x       y       z     vdW  Elec       q    Type
REMARK                         _______ _______ _______ _____ _____    ______ ____
ROOT
ATOM      1  C   LIG    1      -18.715  86.216  13.343  0.00  0.00    +0.133 A 
ATOM      2  C   LIG    1      -19.300  84.969  13.487  0.00  0.00    +0.183 A 
ATOM      3  N   LIG    1      -20.538  84.494  13.938  0.00  0.00    -0.211 NA
ATOM      4  C   LIG    1      -20.696  83.200  14.136  0.00  0.00    +0.126 A 
ATOM      5  C   LIG    1      -19.559  82.239  13.800  0.00  0.00    +0.063 A 
ATOM      6  C   LIG    1      -18.422  82.733  13.299  0.00  0.00    +0.118 A 
ATOM      7  N   LIG    1      -18.278  84.090  13.118  0.00  0.00    -0.220 N 
ATOM      8  N   LIG    1      -17.183  84.712  12.616  0.00  0.00    -0.171 NA
ATOM      9  C   LIG    1      -17.467  86.013  12.759  0.00  0.00    +0.165 A 
ENDROOT
BRANCH   4  10
ATOM     10  N   LIG    1      -21.896  82.675  14.687  0.00  0.00    -0.308 N 
ATOM     11  C   LIG    1      -22.049  81.221  15.005  0.00  0.00    +0.106 C 
ATOM     12  C   LIG    1      -22.072  81.234  16.553  0.00  0.00    +0.029 C 
ATOM     13  C   LIG    1      -22.423  82.649  16.983  0.00  0.00    +0.021 C 
ATOM     14  C   LIG    1      -22.672  83.405  15.696  0.00  0.00    +0.107 C 
BRANCH  11  15
ATOM     15  C   LIG    1      -23.349  80.560  14.496  0.00  0.00    -0.013 A 
ATOM     16  C   LIG    1      -23.639  80.418  13.099  0.00  0.00    +0.060 A 
ATOM     17  C   LIG    1      -24.837  79.776  12.704  0.00  0.00    +0.015 A 
ATOM     18  C   LIG    1      -25.750  79.302  13.637  0.00  0.00    +0.039 A 
ATOM     19  C   LIG    1      -25.482  79.465  14.985  0.00  0.00    +0.124 A 
ATOM     20  F   LIG    1      -26.370  79.023  15.885  0.00  0.00    -0.205 F 
ATOM     21  C   LIG    1      -24.310  80.083  15.415  0.00  0.00    +0.044 A 
BRANCH  16  22
ATOM     22  C   LIG    1      -22.792  80.910  11.930  0.00  0.00    +0.418 C 
ATOM     23  F   LIG    1      -22.806  82.269  11.825  0.00  0.00    -0.166 F 
ATOM     24  F   LIG    1      -23.275  80.455  10.735  0.00  0.00    -0.166 F 
ATOM     25  F   LIG    1      -21.479  80.563  11.944  0.00  0.00    -0.166 F 
ENDBRANCH  16  22
ENDBRANCH  11  15
ENDBRANCH   4  10
BRANCH   1  27
ATOM     26  C   LIG    1      -20.159  88.066  13.036  0.00  0.00    +0.283 C 
ATOM     27  N   LIG    1      -19.324  87.422  13.735  0.00  0.00    -0.194 NA
BRANCH  26  30
ATOM     28  C   LIG    1      -23.071  88.266  11.461  0.00  0.00    +0.133 C 
ATOM     29  C   LIG    1      -21.998  87.173  11.593  0.00  0.00    +0.140 C 
ATOM     30  N   LIG    1      -20.741  87.936  11.740  0.00  0.00    -0.283 N 
ATOM     31  C   LIG    1      -20.903  89.181  10.951  0.00  0.00    +0.112 C 
ATOM     32  C   LIG    1      -22.382  89.249  10.533  0.00  0.00    +0.052 C 
BRANCH  28  33
ATOM     33  O   LIG    1      -23.296  88.884  12.734  0.00  0.00    -0.390 OA
ATOM     34  H   LIG    1      -22.947  88.293  13.429  0.00  0.00    +0.210 HD
ENDBRANCH  28  33
ENDBRANCH  26  30
BRANCH  26  35
ATOM     35  O   LIG    1      -20.600  89.177  13.666  0.00  0.00    -0.481 OA
ATOM     36  H   LIG    1      -20.172  89.961  13.326  0.00  0.00    +0.295 HD
ENDBRANCH  26  35
ENDBRANCH   1  27
TORSDOF 7
ENDMDL
MODEL 3
REMARK VINA RESULT:      -6.2      2.584      6.455
REMARK  Name = pdb/CHEMBL3905382.pdb
REMARK                            x       y       z     vdW  Elec       q    Type
REMARK                         _______ _______ _______ _____ _____    ______ ____
ROOT
ATOM      1  C   LIG    1      -26.172  80.249  36.985  0.00  0.00    +0.133 A 
ATOM      2  C   LIG    1      -25.899  79.146  36.195  0.00  0.00    +0.183 A 
ATOM      3  N   LIG    1      -25.259  78.930  34.968  0.00  0.00    -0.211 NA
ATOM      4  C   LIG    1      -25.354  77.747  34.393  0.00  0.00    +0.126 A 
ATOM      5  C   LIG    1      -26.092  76.617  35.105  0.00  0.00    +0.063 A 
ATOM      6  C   LIG    1      -26.621  76.850  36.311  0.00  0.00    +0.118 A 
ATOM      7  N   LIG    1      -26.521  78.099  36.881  0.00  0.00    -0.220 N 
ATOM      8  N   LIG    1      -27.008  78.458  38.094  0.00  0.00    -0.171 NA
ATOM      9  C   LIG    1      -26.785  79.777  38.144  0.00  0.00    +0.165 A 
ENDROOT
BRANCH   4  10
ATOM     10  N   LIG    1      -24.810  77.504  33.103  0.00  0.00    -0.308 N 
ATOM     11  C   LIG    1      -23.737  76.487  32.877  0.00  0.00    +0.106 C 
ATOM     12  C   LIG    1      -24.495  75.393  32.086  0.00  0.00    +0.029 C 
ATOM     13  C   LIG    1      -25.740  76.045  31.504  0.00  0.00    +0.021 C 
ATOM     14  C   LIG    1      -25.644  77.503  31.895  0.00  0.00    +0.107 C 
BRANCH  11  15
ATOM     15  C   LIG    1      -22.533  76.962  32.035  0.00  0.00    -0.013 A 
ATOM     16  C   LIG    1      -21.556  77.879  32.545  0.00  0.00    +0.060 A 
ATOM     17  C   LIG    1      -20.462  78.250  31.728  0.00  0.00    +0.015 A 
ATOM     18  C   LIG    1      -20.325  77.765  30.433  0.00  0.00    +0.039 A 
ATOM     19  C   LIG    1      -21.284  76.902  29.932  0.00  0.00    +0.124 A 
ATOM     20  F   LIG    1      -21.161  76.448  28.678  0.00  0.00    -0.205 F 
ATOM     21  C   LIG    1      -22.371  76.506  30.707  0.00  0.00    +0.044 A 
BRANCH  16  22
ATOM     22  C   LIG    1      -21.554  78.552  33.914  0.00  0.00    +0.418 C 
ATOM     23  F   LIG    1      -22.457  79.571  33.983  0.00  0.00    -0.166 F 
ATOM     24  F   LIG    1      -20.345  79.127  34.188  0.00  0.00    -0.166 F 
ATOM     25  F   LIG    1      -21.826  77.758  34.982  0.00  0.00    -0.166 F 
ENDBRANCH  16  22
ENDBRANCH  11  15
ENDBRANCH   4  10
BRANCH   1  27
ATOM     26  C   LIG    1      -24.771  82.155  36.896  0.00  0.00    +0.283 C 
ATOM     27  N   LIG    1      -25.860  81.573  36.624  0.00  0.00    -0.194 NA
BRANCH  26  30
ATOM     28  C   LIG    1      -21.508  81.758  36.452  0.00  0.00    +0.133 C 
ATOM     29  C   LIG    1      -22.628  80.867  37.013  0.00  0.00    +0.140 C 
ATOM     30  N   LIG    1      -23.576  81.834  37.606  0.00  0.00    -0.283 N 
ATOM     31  C   LIG    1      -22.768  82.973  38.106  0.00  0.00    +0.112 C 
ATOM     32  C   LIG    1      -21.340  82.767  37.572  0.00  0.00    +0.052 C 
BRANCH  28  33
ATOM     33  O   LIG    1      -21.963  82.426  35.269  0.00  0.00    -0.390 OA
ATOM     34  H   LIG    1      -22.599  83.120  35.532  0.00  0.00    +0.210 HD
ENDBRANCH  28  33
ENDBRANCH  26  30
BRANCH  26  35
ATOM     35  O   LIG    1      -24.731  83.415  36.409  0.00  0.00    -0.481 OA
ATOM     36  H   LIG    1      -24.125  83.960  36.906  0.00  0.00    +0.295 HD
ENDBRANCH  26  35
ENDBRANCH   1  27
TORSDOF 7
ENDMDL
MODEL 4
REMARK VINA RESULT:      -6.2     19.331     22.347
REMARK  Name = pdb/CHEMBL3905382.pdb
REMARK                            x       y       z     vdW  Elec       q    Type
REMARK                         _______ _______ _______ _____ _____    ______ ____
ROOT
ATOM      1  C   LIG    1      -18.527  86.208  13.226  0.00  0.00    +0.133 A 
ATOM      2  C   LIG    1      -19.096  84.955  13.372  0.00  0.00    +0.183 A 
ATOM      3  N   LIG    1      -20.321  84.464  13.841  0.00  0.00    -0.211 NA
ATOM      4  C   LIG    1      -20.462  83.167  14.033  0.00  0.00    +0.126 A 
ATOM      5  C   LIG    1      -19.320  82.220  13.673  0.00  0.00    +0.063 A 
ATOM      6  C   LIG    1      -18.197  82.730  13.156  0.00  0.00    +0.118 A 
ATOM      7  N   LIG    1      -18.071  84.089  12.981  0.00  0.00    -0.220 N 
ATOM      8  N   LIG    1      -16.991  84.725  12.464  0.00  0.00    -0.171 NA
ATOM      9  C   LIG    1      -17.286  86.022  12.620  0.00  0.00    +0.165 A 
ENDROOT
BRANCH   4  10
ATOM     10  N   LIG    1      -21.647  82.626  14.601  0.00  0.00    -0.308 N 
ATOM     11  C   LIG    1      -21.605  81.610  15.698  0.00  0.00    +0.106 C 
ATOM     12  C   LIG    1      -22.135  82.422  16.906  0.00  0.00    +0.029 C 
ATOM     13  C   LIG    1      -22.880  83.623  16.344  0.00  0.00    +0.021 C 
ATOM     14  C   LIG    1      -22.839  83.448  14.842  0.00  0.00    +0.107 C 
BRANCH  11  15
ATOM     15  C   LIG    1      -22.508  80.374  15.499  0.00  0.00    -0.013 A 
ATOM     16  C   LIG    1      -21.977  79.047  15.388  0.00  0.00    +0.060 A 
ATOM     17  C   LIG    1      -22.866  77.956  15.234  0.00  0.00    +0.015 A 
ATOM     18  C   LIG    1      -24.240  78.144  15.164  0.00  0.00    +0.039 A 
ATOM     19  C   LIG    1      -24.750  79.428  15.243  0.00  0.00    +0.124 A 
ATOM     20  F   LIG    1      -26.075  79.610  15.158  0.00  0.00    -0.205 F 
ATOM     21  C   LIG    1      -23.910  80.527  15.403  0.00  0.00    +0.044 A 
BRANCH  16  22
ATOM     22  C   LIG    1      -20.506  78.643  15.396  0.00  0.00    +0.418 C 
ATOM     23  F   LIG    1      -20.349  77.289  15.419  0.00  0.00    -0.166 F 
ATOM     24  F   LIG    1      -19.868  79.095  16.518  0.00  0.00    -0.166 F 
ATOM     25  F   LIG    1      -19.751  79.075  14.353  0.00  0.00    -0.166 F 
ENDBRANCH  16  22
ENDBRANCH  11  15
ENDBRANCH   4  10
BRANCH   1  27
ATOM     26  C   LIG    1      -20.042  88.011  12.983  0.00  0.00    +0.283 C 
ATOM     27  N   LIG    1      -19.142  87.406  13.635  0.00  0.00    -0.194 NA
BRANCH  26  30
ATOM     28  C   LIG    1      -23.059  88.120  11.610  0.00  0.00    +0.133 C 
ATOM     29  C   LIG    1      -21.960  87.048  11.696  0.00  0.00    +0.140 C 
ATOM     30  N   LIG    1      -20.710  87.835  11.736  0.00  0.00    -0.283 N 
ATOM     31  C   LIG    1      -20.947  89.055  10.926  0.00  0.00    +0.112 C 
ATOM     32  C   LIG    1      -22.453  89.088  10.611  0.00  0.00    +0.052 C 
BRANCH  28  33
ATOM     33  O   LIG    1      -23.207  88.770  12.878  0.00  0.00    -0.390 OA
ATOM     34  H   LIG    1      -22.960  88.136  13.580  0.00  0.00    +0.210 HD
ENDBRANCH  28  33
ENDBRANCH  26  30
BRANCH  26  35
ATOM     35  O   LIG    1      -20.471  89.123  13.620  0.00  0.00    -0.481 OA
ATOM     36  H   LIG    1      -21.193  89.534  13.151  0.00  0.00    +0.295 HD
ENDBRANCH  26  35
ENDBRANCH   1  27
TORSDOF 7
ENDMDL
MODEL 5
REMARK VINA RESULT:      -6.2     13.725     17.411
REMARK  Name = pdb/CHEMBL3905382.pdb
REMARK                            x       y       z     vdW  Elec       q    Type
REMARK                         _______ _______ _______ _____ _____    ______ ____
ROOT
ATOM      1  C   LIG    1      -33.880  76.809  27.643  0.00  0.00    +0.133 A 
ATOM      2  C   LIG    1      -35.046  76.167  27.260  0.00  0.00    +0.183 A 
ATOM      3  N   LIG    1      -36.059  76.411  26.326  0.00  0.00    -0.211 NA
ATOM      4  C   LIG    1      -37.157  75.681  26.362  0.00  0.00    +0.126 A 
ATOM      5  C   LIG    1      -37.272  74.539  27.368  0.00  0.00    +0.063 A 
ATOM      6  C   LIG    1      -36.245  74.295  28.189  0.00  0.00    +0.118 A 
ATOM      7  N   LIG    1      -35.118  75.083  28.141  0.00  0.00    -0.220 N 
ATOM      8  N   LIG    1      -34.013  74.936  28.912  0.00  0.00    -0.171 NA
ATOM      9  C   LIG    1      -33.264  76.000  28.594  0.00  0.00    +0.165 A 
ENDROOT
BRANCH   4  10
ATOM     10  N   LIG    1      -38.256  75.951  25.503  0.00  0.00    -0.308 N 
ATOM     11  C   LIG    1      -39.656  75.572  25.870  0.00  0.00    +0.106 C 
ATOM     12  C   LIG    1      -40.306  76.955  26.119  0.00  0.00    +0.029 C 
ATOM     13  C   LIG    1      -39.434  77.990  25.427  0.00  0.00    +0.021 C 
ATOM     14  C   LIG    1      -38.351  77.195  24.730  0.00  0.00    +0.107 C 
BRANCH  11  15
ATOM     15  C   LIG    1      -40.458  74.839  24.772  0.00  0.00    -0.013 A 
ATOM     16  C   LIG    1      -40.190  73.479  24.408  0.00  0.00    +0.060 A 
ATOM     17  C   LIG    1      -40.984  72.860  23.412  0.00  0.00    +0.015 A 
ATOM     18  C   LIG    1      -42.001  73.548  22.763  0.00  0.00    +0.039 A 
ATOM     19  C   LIG    1      -42.240  74.870  23.096  0.00  0.00    +0.124 A 
ATOM     20  F   LIG    1      -43.210  75.538  22.457  0.00  0.00    -0.205 F 
ATOM     21  C   LIG    1      -41.487  75.512  24.076  0.00  0.00    +0.044 A 
BRANCH  16  22
ATOM     22  C   LIG    1      -39.096  72.576  24.969  0.00  0.00    +0.418 C 
ATOM     23  F   LIG    1      -37.852  72.989  24.595  0.00  0.00    -0.166 F 
ATOM     24  F   LIG    1      -39.206  71.299  24.492  0.00  0.00    -0.166 F 
ATOM     25  F   LIG    1      -39.044  72.453  26.320  0.00  0.00    -0.166 F 
ENDBRANCH  16  22
ENDBRANCH  11  15
ENDBRANCH   4  10
BRANCH   1  27
ATOM     26  C   LIG    1      -33.907  79.171  27.491  0.00  0.00    +0.283 C 
ATOM     27  N   LIG    1      -33.457  78.047  27.125  0.00  0.00    -0.194 NA
BRANCH  26  30
ATOM     28  C   LIG    1      -35.766  81.835  28.162  0.00  0.00    +0.133 C 
ATOM     29  C   LIG    1      -34.767  80.994  28.974  0.00  0.00    +0.140 C 
ATOM     30  N   LIG    1      -34.903  79.641  28.397  0.00  0.00    -0.283 N 
ATOM     31  C   LIG    1      -36.316  79.498  27.970  0.00  0.00    +0.112 C 
ATOM     32  C   LIG    1      -36.953  80.894  28.085  0.00  0.00    +0.052 C 
BRANCH  28  33
ATOM     33  O   LIG    1      -35.250  82.066  26.845  0.00  0.00    -0.390 OA
ATOM     34  H   LIG    1      -34.547  82.742  26.904  0.00  0.00    +0.210 HD
ENDBRANCH  28  33
ENDBRANCH  26  30
BRANCH  26  35
ATOM     35  O   LIG    1      -33.306  80.195  26.845  0.00  0.00    -0.481 OA
ATOM     36  H   LIG    1      -32.356  80.149  26.931  0.00  0.00    +0.295 HD
ENDBRANCH  26  35
ENDBRANCH   1  27
TORSDOF 7
ENDMDL
MODEL 6
REMARK VINA RESULT:      -6.1     19.120     22.096
REMARK  Name = pdb/CHEMBL3905382.pdb
REMARK                            x       y       z     vdW  Elec       q    Type
REMARK                         _______ _______ _______ _____ _____    ______ ____
ROOT
ATOM      1  C   LIG    1      -22.606  86.151  13.247  0.00  0.00    +0.133 A 
ATOM      2  C   LIG    1      -22.870  84.794  13.311  0.00  0.00    +0.183 A 
ATOM      3  N   LIG    1      -22.391  83.718  14.070  0.00  0.00    -0.211 NA
ATOM      4  C   LIG    1      -22.725  82.490  13.727  0.00  0.00    +0.126 A 
ATOM      5  C   LIG    1      -23.684  82.265  12.561  0.00  0.00    +0.063 A 
ATOM      6  C   LIG    1      -24.175  83.327  11.914  0.00  0.00    +0.118 A 
ATOM      7  N   LIG    1      -23.797  84.598  12.283  0.00  0.00    -0.220 N 
ATOM      8  N   LIG    1      -24.227  85.751  11.713  0.00  0.00    -0.171 NA
ATOM      9  C   LIG    1      -23.489  86.692  12.315  0.00  0.00    +0.165 A 
ENDROOT
BRANCH   4  10
ATOM     10  N   LIG    1      -22.188  81.360  14.400  0.00  0.00    -0.308 N 
ATOM     11  C   LIG    1      -21.369  81.497  15.644  0.00  0.00    +0.106 C 
ATOM     12  C   LIG    1      -22.320  80.911  16.718  0.00  0.00    +0.029 C 
ATOM     13  C   LIG    1      -23.349  80.062  15.988  0.00  0.00    +0.021 C 
ATOM     14  C   LIG    1      -22.938  80.105  14.532  0.00  0.00    +0.107 C 
BRANCH  11  15
ATOM     15  C   LIG    1      -20.048  80.699  15.665  0.00  0.00    -0.013 A 
ATOM     16  C   LIG    1      -18.915  81.074  14.871  0.00  0.00    +0.060 A 
ATOM     17  C   LIG    1      -17.724  80.313  14.961  0.00  0.00    +0.015 A 
ATOM     18  C   LIG    1      -17.637  79.197  15.783  0.00  0.00    +0.039 A 
ATOM     19  C   LIG    1      -18.740  78.819  16.528  0.00  0.00    +0.124 A 
ATOM     20  F   LIG    1      -18.661  77.733  17.307  0.00  0.00    -0.205 F 
ATOM     21  C   LIG    1      -19.927  79.546  16.474  0.00  0.00    +0.044 A 
BRANCH  16  22
ATOM     22  C   LIG    1      -18.829  82.231  13.881  0.00  0.00    +0.418 C 
ATOM     23  F   LIG    1      -19.509  81.969  12.729  0.00  0.00    -0.166 F 
ATOM     24  F   LIG    1      -17.540  82.461  13.489  0.00  0.00    -0.166 F 
ATOM     25  F   LIG    1      -19.296  83.432  14.309  0.00  0.00    -0.166 F 
ENDBRANCH  16  22
ENDBRANCH  11  15
ENDBRANCH   4  10
BRANCH   1  27
ATOM     26  C   LIG    1      -20.382  86.797  13.733  0.00  0.00    +0.283 C 
ATOM     27  N   LIG    1      -21.616  86.798  14.009  0.00  0.00    -0.194 NA
BRANCH  26  30
ATOM     28  C   LIG    1      -18.474  87.602  11.142  0.00  0.00    +0.133 C 
ATOM     29  C   LIG    1      -19.678  86.666  11.335  0.00  0.00    +0.140 C 
ATOM     30  N   LIG    1      -19.546  86.214  12.736  0.00  0.00    -0.283 N 
ATOM     31  C   LIG    1      -18.093  86.157  13.031  0.00  0.00    +0.112 C 
ATOM     32  C   LIG    1      -17.377  86.824  11.844  0.00  0.00    +0.052 C 
BRANCH  28  33
ATOM     33  O   LIG    1      -18.702  88.837  11.831  0.00  0.00    -0.390 OA
ATOM     34  H   LIG    1      -18.857  88.640  12.775  0.00  0.00    +0.210 HD
ENDBRANCH  28  33
ENDBRANCH  26  30
BRANCH  26  35
ATOM     35  O   LIG    1      -19.661  87.517  14.622  0.00  0.00    -0.481 OA
ATOM     36  H   LIG    1      -19.231  88.258  14.201  0.00  0.00    +0.295 HD
ENDBRANCH  26  35
ENDBRANCH   1  27
TORSDOF 7
ENDMDL
MODEL 7
REMARK VINA RESULT:      -6.1     17.935     20.216
REMARK  Name = pdb/CHEMBL3905382.pdb
REMARK                            x       y       z     vdW  Elec       q    Type
REMARK                         _______ _______ _______ _____ _____    ______ ____
ROOT
ATOM      1  C   LIG    1      -24.390  79.045  15.130  0.00  0.00    +0.133 A 
ATOM      2  C   LIG    1      -23.142  78.450  15.066  0.00  0.00    +0.183 A 
ATOM      3  N   LIG    1      -22.659  77.136  15.087  0.00  0.00    -0.211 NA
ATOM      4  C   LIG    1      -21.363  76.929  15.210  0.00  0.00    +0.126 A 
ATOM      5  C   LIG    1      -20.408  78.118  15.251  0.00  0.00    +0.063 A 
ATOM      6  C   LIG    1      -20.909  79.354  15.150  0.00  0.00    +0.118 A 
ATOM      7  N   LIG    1      -22.268  79.542  15.039  0.00  0.00    -0.220 N 
ATOM      8  N   LIG    1      -22.897  80.737  14.924  0.00  0.00    -0.171 NA
ATOM      9  C   LIG    1      -24.196  80.416  14.980  0.00  0.00    +0.165 A 
ENDROOT
BRANCH   4  10
ATOM     10  N   LIG    1      -20.830  75.618  15.338  0.00  0.00    -0.308 N 
ATOM     11  C   LIG    1      -21.525  74.557  16.131  0.00  0.00    +0.106 C 
ATOM     12  C   LIG    1      -22.001  73.588  15.020  0.00  0.00    +0.029 C 
ATOM     13  C   LIG    1      -21.160  73.875  13.786  0.00  0.00    +0.021 C 
ATOM     14  C   LIG    1      -20.170  74.935  14.219  0.00  0.00    +0.107 C 
BRANCH  11  15
ATOM     15  C   LIG    1      -20.636  73.774  17.122  0.00  0.00    -0.013 A 
ATOM     16  C   LIG    1      -21.185  73.011  18.204  0.00  0.00    +0.060 A 
ATOM     17  C   LIG    1      -20.312  72.295  19.058  0.00  0.00    +0.015 A 
ATOM     18  C   LIG    1      -18.935  72.333  18.886  0.00  0.00    +0.039 A 
ATOM     19  C   LIG    1      -18.404  73.093  17.858  0.00  0.00    +0.124 A 
ATOM     20  F   LIG    1      -17.075  73.143  17.702  0.00  0.00    -0.205 F 
ATOM     21  C   LIG    1      -19.230  73.805  16.991  0.00  0.00    +0.044 A 
BRANCH  16  22
ATOM     22  C   LIG    1      -22.657  72.881  18.583  0.00  0.00    +0.418 C 
ATOM     23  F   LIG    1      -23.291  74.088  18.589  0.00  0.00    -0.166 F 
ATOM     24  F   LIG    1      -22.807  72.394  19.852  0.00  0.00    -0.166 F 
ATOM     25  F   LIG    1      -23.418  72.078  17.796  0.00  0.00    -0.166 F 
ENDBRANCH  16  22
ENDBRANCH  11  15
ENDBRANCH   4  10
BRANCH   1  27
ATOM     26  C   LIG    1      -26.302  77.869  14.379  0.00  0.00    +0.283 C 
ATOM     27  N   LIG    1      -25.592  78.336  15.315  0.00  0.00    -0.194 NA
BRANCH  26  30
ATOM     28  C   LIG    1      -28.289  77.751  11.726  0.00  0.00    +0.133 C 
ATOM     29  C   LIG    1      -27.102  76.905  12.212  0.00  0.00    +0.140 C 
ATOM     30  N   LIG    1      -26.266  77.872  12.953  0.00  0.00    -0.283 N 
ATOM     31  C   LIG    1      -26.436  79.185  12.283  0.00  0.00    +0.112 C 
ATOM     32  C   LIG    1      -27.588  79.018  11.276  0.00  0.00    +0.052 C 
BRANCH  28  33
ATOM     33  O   LIG    1      -29.159  78.048  12.826  0.00  0.00    -0.390 OA
ATOM     34  H   LIG    1      -28.667  77.895  13.656  0.00  0.00    +0.210 HD
ENDBRANCH  28  33
ENDBRANCH  26  30
BRANCH  26  35
ATOM     35  O   LIG    1      -27.389  77.213  14.843  0.00  0.00    -0.481 OA
ATOM     36  H   LIG    1      -27.625  76.485  14.272  0.00  0.00    +0.295 HD
ENDBRANCH  26  35
ENDBRANCH   1  27
TORSDOF 7
ENDMDL
MODEL 8
REMARK VINA RESULT:      -6.0      2.551      4.798
REMARK  Name = pdb/CHEMBL3905382.pdb
REMARK                            x       y       z     vdW  Elec       q    Type
REMARK                         _______ _______ _______ _____ _____    ______ ____
ROOT
ATOM      1  C   LIG    1      -20.078  77.864  31.256  0.00  0.00    +0.133 A 
ATOM      2  C   LIG    1      -20.294  78.090  32.604  0.00  0.00    +0.183 A 
ATOM      3  N   LIG    1      -21.412  78.350  33.407  0.00  0.00    -0.211 NA
ATOM      4  C   LIG    1      -21.231  78.723  34.659  0.00  0.00    +0.126 A 
ATOM      5  C   LIG    1      -19.818  78.792  35.231  0.00  0.00    +0.063 A 
ATOM      6  C   LIG    1      -18.787  78.460  34.448  0.00  0.00    +0.118 A 
ATOM      7  N   LIG    1      -19.002  78.090  33.140  0.00  0.00    -0.220 N 
ATOM      8  N   LIG    1      -18.046  77.727  32.250  0.00  0.00    -0.171 NA
ATOM      9  C   LIG    1      -18.721  77.591  31.102  0.00  0.00    +0.165 A 
ENDROOT
BRANCH   4  10
ATOM     10  N   LIG    1      -22.325  79.095  35.487  0.00  0.00    -0.308 N 
ATOM     11  C   LIG    1      -23.276  80.182  35.097  0.00  0.00    +0.106 C 
ATOM     12  C   LIG    1      -24.570  79.384  34.803  0.00  0.00    +0.029 C 
ATOM     13  C   LIG    1      -24.429  78.036  35.493  0.00  0.00    +0.021 C 
ATOM     14  C   LIG    1      -23.110  78.103  36.230  0.00  0.00    +0.107 C 
BRANCH  11  15
ATOM     15  C   LIG    1      -23.578  81.228  36.192  0.00  0.00    -0.013 A 
ATOM     16  C   LIG    1      -22.572  82.109  36.708  0.00  0.00    +0.060 A 
ATOM     17  C   LIG    1      -22.925  83.064  37.691  0.00  0.00    +0.015 A 
ATOM     18  C   LIG    1      -24.220  83.151  38.186  0.00  0.00    +0.039 A 
ATOM     19  C   LIG    1      -25.185  82.281  37.708  0.00  0.00    +0.124 A 
ATOM     20  F   LIG    1      -26.429  82.354  38.197  0.00  0.00    -0.205 F 
ATOM     21  C   LIG    1      -24.879  81.333  36.734  0.00  0.00    +0.044 A 
BRANCH  16  22
ATOM     22  C   LIG    1      -21.095  82.139  36.328  0.00  0.00    +0.418 C 
ATOM     23  F   LIG    1      -20.375  81.196  37.001  0.00  0.00    -0.166 F 
ATOM     24  F   LIG    1      -20.516  83.333  36.659  0.00  0.00    -0.166 F 
ATOM     25  F   LIG    1      -20.801  81.947  35.016  0.00  0.00    -0.166 F 
ENDBRANCH  16  22
ENDBRANCH  11  15
ENDBRANCH   4  10
BRANCH   1  27
ATOM     26  C   LIG    1      -22.156  77.240  30.310  0.00  0.00    +0.283 C 
ATOM     27  N   LIG    1      -21.088  77.916  30.277  0.00  0.00    -0.194 NA
BRANCH  26  30
ATOM     28  C   LIG    1      -25.083  76.100  31.375  0.00  0.00    +0.133 C 
ATOM     29  C   LIG    1      -23.824  76.636  32.075  0.00  0.00    +0.140 C 
ATOM     30  N   LIG    1      -22.728  76.250  31.163  0.00  0.00    -0.283 N 
ATOM     31  C   LIG    1      -23.131  74.972  30.528  0.00  0.00    +0.112 C 
ATOM     32  C   LIG    1      -24.605  74.739  30.905  0.00  0.00    +0.052 C 
BRANCH  28  33
ATOM     33  O   LIG    1      -25.396  76.917  30.241  0.00  0.00    -0.390 OA
ATOM     34  H   LIG    1      -26.121  77.524  30.489  0.00  0.00    +0.210 HD
ENDBRANCH  28  33
ENDBRANCH  26  30
BRANCH  26  35
ATOM     35  O   LIG    1      -22.958  77.504  29.254  0.00  0.00    -0.481 OA
ATOM     36  H   LIG    1      -22.841  78.400  28.945  0.00  0.00    +0.295 HD
ENDBRANCH  26  35
ENDBRANCH   1  27
TORSDOF 7
ENDMDL
MODEL 9
REMARK VINA RESULT:      -6.0      2.187      4.870
REMARK  Name = pdb/CHEMBL3905382.pdb
REMARK                            x       y       z     vdW  Elec       q    Type
REMARK                         _______ _______ _______ _____ _____    ______ ____
ROOT
ATOM      1  C   LIG    1      -23.113  77.284  30.244  0.00  0.00    +0.133 A 
ATOM      2  C   LIG    1      -22.142  77.533  31.199  0.00  0.00    +0.183 A 
ATOM      3  N   LIG    1      -22.117  78.129  32.466  0.00  0.00    -0.211 NA
ATOM      4  C   LIG    1      -20.955  78.388  33.032  0.00  0.00    +0.126 A 
ATOM      5  C   LIG    1      -19.664  77.968  32.334  0.00  0.00    +0.063 A 
ATOM      6  C   LIG    1      -19.741  77.333  31.160  0.00  0.00    +0.118 A 
ATOM      7  N   LIG    1      -20.967  77.090  30.584  0.00  0.00    -0.220 N 
ATOM      8  N   LIG    1      -21.178  76.453  29.406  0.00  0.00    -0.171 NA
ATOM      9  C   LIG    1      -22.497  76.579  29.213  0.00  0.00    +0.165 A 
ENDROOT
BRANCH   4  10
ATOM     10  N   LIG    1      -20.870  79.080  34.270  0.00  0.00    -0.308 N 
ATOM     11  C   LIG    1      -21.948  78.986  35.303  0.00  0.00    +0.106 C 
ATOM     12  C   LIG    1      -21.251  78.170  36.418  0.00  0.00    +0.029 C 
ATOM     13  C   LIG    1      -19.753  78.282  36.185  0.00  0.00    +0.021 C 
ATOM     14  C   LIG    1      -19.605  79.213  35.001  0.00  0.00    +0.107 C 
BRANCH  11  15
ATOM     15  C   LIG    1      -22.423  80.331  35.896  0.00  0.00    -0.013 A 
ATOM     16  C   LIG    1      -23.801  80.593  36.191  0.00  0.00    +0.060 A 
ATOM     17  C   LIG    1      -24.161  81.838  36.761  0.00  0.00    +0.015 A 
ATOM     18  C   LIG    1      -23.214  82.820  37.019  0.00  0.00    +0.039 A 
ATOM     19  C   LIG    1      -21.887  82.576  36.709  0.00  0.00    +0.124 A 
ATOM     20  F   LIG    1      -20.976  83.530  36.942  0.00  0.00    -0.205 F 
ATOM     21  C   LIG    1      -21.491  81.361  36.154  0.00  0.00    +0.044 A 
BRANCH  16  22
ATOM     22  C   LIG    1      -24.987  79.667  35.940  0.00  0.00    +0.418 C 
ATOM     23  F   LIG    1      -24.835  78.464  36.562  0.00  0.00    -0.166 F 
ATOM     24  F   LIG    1      -25.118  79.369  34.613  0.00  0.00    -0.166 F 
ATOM     25  F   LIG    1      -26.205  80.122  36.330  0.00  0.00    -0.166 F 
ENDBRANCH  16  22
ENDBRANCH  11  15
ENDBRANCH   4  10
BRANCH   1  27
ATOM     26  C   LIG    1      -25.310  77.150  31.114  0.00  0.00    +0.283 C 
ATOM     27  N   LIG    1      -24.454  77.695  30.359  0.00  0.00    -0.194 NA
BRANCH  26  30
ATOM     28  C   LIG    1      -26.489  76.228  34.074  0.00  0.00    +0.133 C 
ATOM     29  C   LIG    1      -25.087  76.269  33.446  0.00  0.00    +0.140 C 
ATOM     30  N   LIG    1      -25.343  76.040  32.009  0.00  0.00    -0.283 N 
ATOM     31  C   LIG    1      -26.524  75.146  31.923  0.00  0.00    +0.112 C 
ATOM     32  C   LIG    1      -27.109  75.052  33.343  0.00  0.00    +0.052 C 
BRANCH  28  33
ATOM     33  O   LIG    1      -27.204  77.426  33.749  0.00  0.00    -0.390 OA
ATOM     34  H   LIG    1      -27.277  77.971  34.557  0.00  0.00    +0.210 HD
ENDBRANCH  28  33
ENDBRANCH  26  30
BRANCH  26  35
ATOM     35  O   LIG    1      -26.514  77.762  31.043  0.00  0.00    -0.481 OA
ATOM     36  H   LIG    1      -26.842  77.779  30.146  0.00  0.00    +0.295 HD
ENDBRANCH  26  35
ENDBRANCH   1  27
TORSDOF 7
ENDMDL
