MODEL 1
REMARK VINA RESULT:      -6.5      0.000      0.000
REMARK  Name = pdb/CHEMBL3671472.pdb
REMARK                            x       y       z     vdW  Elec       q    Type
REMARK                         _______ _______ _______ _____ _____    ______ ____
ROOT
ATOM      1  C   LIG    1      -34.853  72.710  28.822  0.00  0.00    +0.197 C 
ATOM      2  O   LIG    1      -35.215  72.547  29.992  0.00  0.00    -0.287 OA
ENDROOT
BRANCH   1   8
ATOM      3  C   LIG    1      -37.357  76.555  26.218  0.00  0.00    +0.214 A 
ATOM      4  N   LIG    1      -36.118  76.941  26.526  0.00  0.00    -0.197 NA
ATOM      5  C   LIG    1      -35.423  76.004  27.190  0.00  0.00    +0.147 A 
ATOM      6  N   LIG    1      -34.130  76.107  27.613  0.00  0.00    -0.325 N 
ATOM      7  C   LIG    1      -33.707  74.912  28.134  0.00  0.00    +0.100 A 
ATOM      8  C   LIG    1      -34.799  74.059  28.233  0.00  0.00    +0.051 A 
ATOM      9  C   LIG    1      -35.876  74.745  27.562  0.00  0.00    +0.048 A 
ATOM     10  C   LIG    1      -37.191  74.457  27.203  0.00  0.00    +0.126 A 
ATOM     11  N   LIG    1      -37.914  75.371  26.508  0.00  0.00    -0.222 NA
BRANCH   6  12
ATOM     12  C   LIG    1      -33.323  77.244  27.527  0.00  0.00    +0.048 C 
ATOM     13  C   LIG    1      -33.606  78.664  28.141  0.00  0.00    +0.032 C 
ATOM     14  C   LIG    1      -32.061  78.630  27.678  0.00  0.00    -0.004 C 
ATOM     15  C   LIG    1      -32.318  77.668  26.407  0.00  0.00    +0.032 C 
ATOM     16  C   LIG    1      -32.060  77.269  28.465  0.00  0.00    +0.032 C 
ENDBRANCH   6  12
BRANCH   3  17
ATOM     17  N   LIG    1      -38.105  77.439  25.464  0.00  0.00    -0.327 N 
ATOM     18  H   LIG    1      -38.301  77.016  24.567  0.00  0.00    +0.145 HD
ATOM     19  H   LIG    1      -38.899  77.749  26.006  0.00  0.00    +0.145 HD
ENDBRANCH   3  17
ENDBRANCH   1   8
BRANCH   1  20
ATOM     20  C   LIG    1      -34.471  71.497  28.045  0.00  0.00    +0.042 A 
ATOM     21  C   LIG    1      -35.063  71.225  26.803  0.00  0.00    +0.038 A 
ATOM     22  C   LIG    1      -34.723  70.061  26.098  0.00  0.00    +0.052 A 
ATOM     23  C   LIG    1      -33.767  69.224  26.660  0.00  0.00    +0.134 A 
ATOM     24  N   LIG    1      -33.191  69.443  27.864  0.00  0.00    -0.261 NA
ATOM     25  C   LIG    1      -33.585  70.546  28.538  0.00  0.00    +0.122 A 
BRANCH  22  26
ATOM     26  N   LIG    1      -35.380  69.810  24.879  0.00  0.00    -0.284 N 
ATOM     27  H   LIG    1      -34.929  70.164  24.038  0.00  0.00    +0.155 HD
ATOM     28  C   LIG    1      -36.600  69.167  24.704  0.00  0.00    +0.223 C 
ATOM     29  O   LIG    1      -37.287  68.665  25.596  0.00  0.00    -0.275 OA
BRANCH  28  30
ATOM     30  C   LIG    1      -37.042  69.060  23.250  0.00  0.00    +0.151 C 
BRANCH  30  31
ATOM     31  C   LIG    1      -36.333  67.974  22.486  0.00  0.00    +0.050 A 
ATOM     32  N   LIG    1      -35.008  67.822  22.749  0.00  0.00    -0.258 NA
ATOM     33  C   LIG    1      -34.332  66.888  22.034  0.00  0.00    +0.131 A 
ATOM     34  C   LIG    1      -34.907  66.128  21.032  0.00  0.00    +0.059 A 
ATOM     35 CL   LIG    1      -33.983  64.979  20.155  0.00  0.00    -0.082 Cl
ATOM     36  C   LIG    1      -36.252  66.327  20.745  0.00  0.00    +0.023 A 
ATOM     37  C   LIG    1      -36.979  67.263  21.479  0.00  0.00    +0.025 A 
ENDBRANCH  30  31
ENDBRANCH  28  30
ENDBRANCH  22  26
ENDBRANCH   1  20
TORSDOF 7
ENDMDL
MODEL 2
REMARK VINA RESULT:      -6.4     12.182     17.065
REMARK  Name = pdb/CHEMBL3671472.pdb
REMARK                            x       y       z     vdW  Elec       q    Type
REMARK                         _______ _______ _______ _____ _____    ______ ____
ROOT
ATOM      1  C   LIG    1      -21.735  76.368  29.857  0.00  0.00    +0.197 C 
ATOM      2  O   LIG    1      -21.647  76.450  28.626  0.00  0.00    -0.287 OA
ENDROOT
BRANCH   1   8
ATOM      3  C   LIG    1      -26.757  76.808  31.412  0.00  0.00    +0.214 A 
ATOM      4  N   LIG    1      -26.308  75.577  31.657  0.00  0.00    -0.197 NA
ATOM      5  C   LIG    1      -25.030  75.398  31.285  0.00  0.00    +0.147 A 
ATOM      6  N   LIG    1      -24.300  74.255  31.432  0.00  0.00    -0.325 N 
ATOM      7  C   LIG    1      -22.998  74.476  31.066  0.00  0.00    +0.100 A 
ATOM      8  C   LIG    1      -22.907  75.736  30.486  0.00  0.00    +0.051 A 
ATOM      9  C   LIG    1      -24.199  76.341  30.696  0.00  0.00    +0.048 A 
ATOM     10  C   LIG    1      -24.780  77.588  30.471  0.00  0.00    +0.126 A 
ATOM     11  N   LIG    1      -26.062  77.812  30.859  0.00  0.00    -0.222 NA
BRANCH   6  12
ATOM     12  C   LIG    1      -24.776  73.028  31.899  0.00  0.00    +0.048 C 
ATOM     13  C   LIG    1      -25.694  72.006  31.133  0.00  0.00    +0.032 C 
ATOM     14  C   LIG    1      -25.101  71.253  32.431  0.00  0.00    -0.004 C 
ATOM     15  C   LIG    1      -25.087  72.573  33.361  0.00  0.00    +0.032 C 
ATOM     16  C   LIG    1      -23.741  71.842  31.907  0.00  0.00    +0.032 C 
ENDBRANCH   6  12
BRANCH   3  17
ATOM     17  N   LIG    1      -28.041  77.089  31.842  0.00  0.00    -0.327 N 
ATOM     18  H   LIG    1      -28.519  76.218  32.026  0.00  0.00    +0.145 HD
ATOM     19  H   LIG    1      -27.999  77.757  32.598  0.00  0.00    +0.145 HD
ENDBRANCH   3  17
ENDBRANCH   1   8
BRANCH   1  20
ATOM     20  C   LIG    1      -20.613  76.924  30.663  0.00  0.00    +0.042 A 
ATOM     21  C   LIG    1      -20.862  77.811  31.722  0.00  0.00    +0.038 A 
ATOM     22  C   LIG    1      -19.795  78.357  32.451  0.00  0.00    +0.052 A 
ATOM     23  C   LIG    1      -18.509  77.961  32.106  0.00  0.00    +0.134 A 
ATOM     24  N   LIG    1      -18.230  77.125  31.079  0.00  0.00    -0.261 NA
ATOM     25  C   LIG    1      -19.281  76.663  30.366  0.00  0.00    +0.122 A 
BRANCH  22  26
ATOM     26  N   LIG    1      -20.094  79.279  33.472  0.00  0.00    -0.284 N 
ATOM     27  H   LIG    1      -20.327  80.224  33.177  0.00  0.00    +0.155 HD
ATOM     28  C   LIG    1      -20.064  79.046  34.843  0.00  0.00    +0.223 C 
ATOM     29  O   LIG    1      -19.816  77.969  35.388  0.00  0.00    -0.275 OA
BRANCH  28  30
ATOM     30  C   LIG    1      -20.436  80.260  35.685  0.00  0.00    +0.151 C 
BRANCH  30  31
ATOM     31  C   LIG    1      -21.890  80.299  36.071  0.00  0.00    +0.050 A 
ATOM     32  N   LIG    1      -22.781  80.008  35.087  0.00  0.00    -0.258 NA
ATOM     33  C   LIG    1      -24.100  80.091  35.392  0.00  0.00    +0.131 A 
ATOM     34  C   LIG    1      -24.575  80.498  36.627  0.00  0.00    +0.059 A 
ATOM     35 CL   LIG    1      -26.260  80.598  36.933  0.00  0.00    -0.082 Cl
ATOM     36  C   LIG    1      -23.652  80.835  37.608  0.00  0.00    +0.023 A 
ATOM     37  C   LIG    1      -22.289  80.737  37.331  0.00  0.00    +0.025 A 
ENDBRANCH  30  31
ENDBRANCH  28  30
ENDBRANCH  22  26
ENDBRANCH   1  20
TORSDOF 7
ENDMDL
MODEL 3
REMARK VINA RESULT:      -6.2      3.088      8.607
REMARK  Name = pdb/CHEMBL3671472.pdb
REMARK                            x       y       z     vdW  Elec       q    Type
REMARK                         _______ _______ _______ _____ _____    ______ ____
ROOT
ATOM      1  C   LIG    1      -39.201  71.970  24.415  0.00  0.00    +0.197 C 
ATOM      2  O   LIG    1      -40.243  71.502  23.943  0.00  0.00    -0.287 OA
ENDROOT
BRANCH   1   8
ATOM      3  C   LIG    1      -35.705  68.200  23.233  0.00  0.00    +0.214 A 
ATOM      4  N   LIG    1      -35.571  68.566  24.509  0.00  0.00    -0.197 NA
ATOM      5  C   LIG    1      -36.436  69.525  24.877  0.00  0.00    +0.147 A 
ATOM      6  N   LIG    1      -36.547  70.078  26.118  0.00  0.00    -0.325 N 
ATOM      7  C   LIG    1      -37.623  70.925  26.163  0.00  0.00    +0.100 A 
ATOM      8  C   LIG    1      -38.119  71.083  24.874  0.00  0.00    +0.051 A 
ATOM      9  C   LIG    1      -37.394  70.128  24.072  0.00  0.00    +0.048 A 
ATOM     10  C   LIG    1      -37.432  69.679  22.753  0.00  0.00    +0.126 A 
ATOM     11  N   LIG    1      -36.589  68.692  22.355  0.00  0.00    -0.222 NA
BRANCH   6  12
ATOM     12  C   LIG    1      -35.714  69.825  27.210  0.00  0.00    +0.048 C 
ATOM     13  C   LIG    1      -34.224  70.290  27.401  0.00  0.00    +0.032 C 
ATOM     14  C   LIG    1      -34.757  69.759  28.828  0.00  0.00    -0.004 C 
ATOM     15  C   LIG    1      -35.712  68.617  28.202  0.00  0.00    +0.032 C 
ATOM     16  C   LIG    1      -35.978  70.692  28.497  0.00  0.00    +0.032 C 
ENDBRANCH   6  12
BRANCH   3  17
ATOM     17  N   LIG    1      -34.900  67.160  22.806  0.00  0.00    -0.327 N 
ATOM     18  H   LIG    1      -34.728  66.541  23.587  0.00  0.00    +0.145 HD
ATOM     19  H   LIG    1      -35.302  66.749  21.976  0.00  0.00    +0.145 HD
ENDBRANCH   3  17
ENDBRANCH   1   8
BRANCH   1  20
ATOM     20  C   LIG    1      -39.087  73.454  24.491  0.00  0.00    +0.042 A 
ATOM     21  C   LIG    1      -37.941  74.059  25.029  0.00  0.00    +0.038 A 
ATOM     22  C   LIG    1      -37.861  75.456  25.129  0.00  0.00    +0.052 A 
ATOM     23  C   LIG    1      -38.933  76.199  24.649  0.00  0.00    +0.134 A 
ATOM     24  N   LIG    1      -40.062  75.650  24.144  0.00  0.00    -0.261 NA
ATOM     25  C   LIG    1      -40.124  74.300  24.115  0.00  0.00    +0.122 A 
BRANCH  22  26
ATOM     26  N   LIG    1      -36.712  76.012  25.720  0.00  0.00    -0.284 N 
ATOM     27  H   LIG    1      -35.876  76.051  25.140  0.00  0.00    +0.155 HD
ATOM     28  C   LIG    1      -36.583  76.475  27.025  0.00  0.00    +0.223 C 
ATOM     29  O   LIG    1      -37.480  76.518  27.868  0.00  0.00    -0.275 OA
BRANCH  28  30
ATOM     30  C   LIG    1      -35.197  77.015  27.357  0.00  0.00    +0.151 C 
BRANCH  30  31
ATOM     31  C   LIG    1      -34.265  75.971  27.911  0.00  0.00    +0.050 A 
ATOM     32  N   LIG    1      -34.682  74.681  27.815  0.00  0.00    -0.258 NA
ATOM     33  C   LIG    1      -33.887  73.725  28.357  0.00  0.00    +0.131 A 
ATOM     34  C   LIG    1      -32.712  74.000  29.034  0.00  0.00    +0.059 A 
ATOM     35 CL   LIG    1      -31.768  72.739  29.712  0.00  0.00    -0.082 Cl
ATOM     36  C   LIG    1      -32.322  75.327  29.162  0.00  0.00    +0.023 A 
ATOM     37  C   LIG    1      -33.107  76.331  28.595  0.00  0.00    +0.025 A 
ENDBRANCH  30  31
ENDBRANCH  28  30
ENDBRANCH  22  26
ENDBRANCH   1  20
TORSDOF 7
ENDMDL
MODEL 4
REMARK VINA RESULT:      -6.2     16.627     19.574
REMARK  Name = pdb/CHEMBL3671472.pdb
REMARK                            x       y       z     vdW  Elec       q    Type
REMARK                         _______ _______ _______ _____ _____    ______ ____
ROOT
ATOM      1  C   LIG    1      -18.638  75.573  15.405  0.00  0.00    +0.197 C 
ATOM      2  O   LIG    1      -18.244  75.180  14.301  0.00  0.00    -0.287 OA
ENDROOT
BRANCH   1   8
ATOM      3  C   LIG    1      -18.165  72.906  19.932  0.00  0.00    +0.214 A 
ATOM      4  N   LIG    1      -19.360  72.676  19.388  0.00  0.00    -0.197 NA
ATOM      5  C   LIG    1      -19.546  73.326  18.227  0.00  0.00    +0.147 A 
ATOM      6  N   LIG    1      -20.656  73.265  17.437  0.00  0.00    -0.325 N 
ATOM      7  C   LIG    1      -20.440  73.947  16.268  0.00  0.00    +0.100 A 
ATOM      8  C   LIG    1      -19.236  74.633  16.368  0.00  0.00    +0.051 A 
ATOM      9  C   LIG    1      -18.641  74.171  17.599  0.00  0.00    +0.048 A 
ATOM     10  C   LIG    1      -17.431  74.351  18.267  0.00  0.00    +0.126 A 
ATOM     11  N   LIG    1      -17.200  73.689  19.429  0.00  0.00    -0.222 NA
BRANCH   6  12
ATOM     12  C   LIG    1      -21.846  72.600  17.738  0.00  0.00    +0.048 C 
ATOM     13  C   LIG    1      -22.726  72.756  19.033  0.00  0.00    +0.032 C 
ATOM     14  C   LIG    1      -23.599  71.950  17.942  0.00  0.00    -0.004 C 
ATOM     15  C   LIG    1      -22.335  71.185  17.291  0.00  0.00    +0.032 C 
ATOM     16  C   LIG    1      -23.135  73.118  16.997  0.00  0.00    +0.032 C 
ENDBRANCH   6  12
BRANCH   3  17
ATOM     17  N   LIG    1      -17.874  72.207  21.089  0.00  0.00    -0.327 N 
ATOM     18  H   LIG    1      -16.877  72.046  21.128  0.00  0.00    +0.145 HD
ATOM     19  H   LIG    1      -18.291  72.681  21.878  0.00  0.00    +0.145 HD
ENDBRANCH   3  17
ENDBRANCH   1   8
BRANCH   1  20
ATOM     20  C   LIG    1      -18.477  77.021  15.715  0.00  0.00    +0.042 A 
ATOM     21  C   LIG    1      -19.597  77.833  15.949  0.00  0.00    +0.038 A 
ATOM     22  C   LIG    1      -19.436  79.203  16.204  0.00  0.00    +0.052 A 
ATOM     23  C   LIG    1      -18.139  79.702  16.247  0.00  0.00    +0.134 A 
ATOM     24  N   LIG    1      -17.038  78.954  16.007  0.00  0.00    -0.261 NA
ATOM     25  C   LIG    1      -17.238  77.650  15.711  0.00  0.00    +0.122 A 
BRANCH  22  26
ATOM     26  N   LIG    1      -20.592  79.984  16.385  0.00  0.00    -0.284 N 
ATOM     27  H   LIG    1      -21.357  79.552  16.900  0.00  0.00    +0.155 HD
ATOM     28  C   LIG    1      -20.819  81.266  15.898  0.00  0.00    +0.223 C 
ATOM     29  O   LIG    1      -20.015  81.953  15.265  0.00  0.00    -0.275 OA
BRANCH  28  30
ATOM     30  C   LIG    1      -22.184  81.836  16.265  0.00  0.00    +0.151 C 
BRANCH  30  31
ATOM     31  C   LIG    1      -23.332  81.098  15.629  0.00  0.00    +0.050 A 
ATOM     32  N   LIG    1      -23.619  79.875  16.147  0.00  0.00    -0.258 NA
ATOM     33  C   LIG    1      -24.612  79.164  15.556  0.00  0.00    +0.131 A 
ATOM     34  C   LIG    1      -25.304  79.598  14.439  0.00  0.00    +0.059 A 
ATOM     35 CL   LIG    1      -26.535  78.634  13.734  0.00  0.00    -0.082 Cl
ATOM     36  C   LIG    1      -24.968  80.831  13.896  0.00  0.00    +0.023 A 
ATOM     37  C   LIG    1      -23.967  81.595  14.495  0.00  0.00    +0.025 A 
ENDBRANCH  30  31
ENDBRANCH  28  30
ENDBRANCH  22  26
ENDBRANCH   1  20
TORSDOF 7
ENDMDL
MODEL 5
REMARK VINA RESULT:      -6.2      0.983      3.059
REMARK  Name = pdb/CHEMBL3671472.pdb
REMARK                            x       y       z     vdW  Elec       q    Type
REMARK                         _______ _______ _______ _____ _____    ______ ____
ROOT
ATOM      1  C   LIG    1      -34.683  72.795  28.945  0.00  0.00    +0.197 C 
ATOM      2  O   LIG    1      -34.601  72.757  30.177  0.00  0.00    -0.287 OA
ENDROOT
BRANCH   1   8
ATOM      3  C   LIG    1      -33.438  77.638  27.264  0.00  0.00    +0.214 A 
ATOM      4  N   LIG    1      -34.687  77.336  26.908  0.00  0.00    -0.197 NA
ATOM      5  C   LIG    1      -35.069  76.112  27.308  0.00  0.00    +0.147 A 
ATOM      6  N   LIG    1      -36.292  75.544  27.107  0.00  0.00    -0.325 N 
ATOM      7  C   LIG    1      -36.370  74.346  27.768  0.00  0.00    +0.100 A 
ATOM      8  C   LIG    1      -35.109  74.025  28.257  0.00  0.00    +0.051 A 
ATOM      9  C   LIG    1      -34.303  75.196  28.015  0.00  0.00    +0.048 A 
ATOM     10  C   LIG    1      -33.008  75.612  28.319  0.00  0.00    +0.126 A 
ATOM     11  N   LIG    1      -32.597  76.853  27.953  0.00  0.00    -0.222 NA
BRANCH   6  12
ATOM     12  C   LIG    1      -37.340  76.084  26.358  0.00  0.00    +0.048 C 
ATOM     13  C   LIG    1      -37.438  76.189  24.792  0.00  0.00    +0.032 C 
ATOM     14  C   LIG    1      -38.901  76.499  25.395  0.00  0.00    -0.004 C 
ATOM     15  C   LIG    1      -38.350  77.216  26.733  0.00  0.00    +0.032 C 
ATOM     16  C   LIG    1      -38.625  75.187  26.216  0.00  0.00    +0.032 C 
ENDBRANCH   6  12
BRANCH   3  17
ATOM     17  N   LIG    1      -33.003  78.913  26.955  0.00  0.00    -0.327 N 
ATOM     18  H   LIG    1      -32.765  79.392  27.813  0.00  0.00    +0.145 HD
ATOM     19  H   LIG    1      -32.283  78.856  26.248  0.00  0.00    +0.145 HD
ENDBRANCH   3  17
ENDBRANCH   1   8
BRANCH   1  20
ATOM     20  C   LIG    1      -34.331  71.556  28.195  0.00  0.00    +0.042 A 
ATOM     21  C   LIG    1      -34.938  71.265  26.964  0.00  0.00    +0.038 A 
ATOM     22  C   LIG    1      -34.625  70.078  26.285  0.00  0.00    +0.052 A 
ATOM     23  C   LIG    1      -33.679  69.237  26.860  0.00  0.00    +0.134 A 
ATOM     24  N   LIG    1      -33.089  69.475  28.054  0.00  0.00    -0.261 NA
ATOM     25  C   LIG    1      -33.457  70.602  28.703  0.00  0.00    +0.122 A 
BRANCH  22  26
ATOM     26  N   LIG    1      -35.296  69.809  25.078  0.00  0.00    -0.284 N 
ATOM     27  H   LIG    1      -34.814  70.071  24.221  0.00  0.00    +0.155 HD
ATOM     28  C   LIG    1      -36.567  69.264  24.932  0.00  0.00    +0.223 C 
ATOM     29  O   LIG    1      -37.298  68.878  25.847  0.00  0.00    -0.275 OA
BRANCH  28  30
ATOM     30  C   LIG    1      -37.011  69.106  23.483  0.00  0.00    +0.151 C 
BRANCH  30  31
ATOM     31  C   LIG    1      -36.363  67.943  22.781  0.00  0.00    +0.050 A 
ATOM     32  N   LIG    1      -35.003  67.923  22.781  0.00  0.00    -0.258 NA
ATOM     33  C   LIG    1      -34.393  66.917  22.107  0.00  0.00    +0.131 A 
ATOM     34  C   LIG    1      -35.077  65.950  21.391  0.00  0.00    +0.059 A 
ATOM     35 CL   LIG    1      -34.235  64.719  20.545  0.00  0.00    -0.082 Cl
ATOM     36  C   LIG    1      -36.464  66.010  21.364  0.00  0.00    +0.023 A 
ATOM     37  C   LIG    1      -37.121  67.020  22.066  0.00  0.00    +0.025 A 
ENDBRANCH  30  31
ENDBRANCH  28  30
ENDBRANCH  22  26
ENDBRANCH   1  20
TORSDOF 7
ENDMDL
MODEL 6
REMARK VINA RESULT:      -6.1      5.934      9.223
REMARK  Name = pdb/CHEMBL3671472.pdb
REMARK                            x       y       z     vdW  Elec       q    Type
REMARK                         _______ _______ _______ _____ _____    ______ ____
ROOT
ATOM      1  C   LIG    1      -35.247  66.037  21.202  0.00  0.00    +0.197 C 
ATOM      2  O   LIG    1      -35.724  64.898  21.169  0.00  0.00    -0.287 OA
ENDROOT
BRANCH   1   8
ATOM      3  C   LIG    1      -38.296  69.771  23.345  0.00  0.00    +0.214 A 
ATOM      4  N   LIG    1      -37.323  69.432  24.191  0.00  0.00    -0.197 NA
ATOM      5  C   LIG    1      -36.506  68.484  23.705  0.00  0.00    +0.147 A 
ATOM      6  N   LIG    1      -35.415  67.959  24.333  0.00  0.00    -0.325 N 
ATOM      7  C   LIG    1      -34.744  67.116  23.486  0.00  0.00    +0.100 A 
ATOM      8  C   LIG    1      -35.511  66.931  22.342  0.00  0.00    +0.051 A 
ATOM      9  C   LIG    1      -36.602  67.866  22.465  0.00  0.00    +0.048 A 
ATOM     10  C   LIG    1      -37.667  68.286  21.671  0.00  0.00    +0.126 A 
ATOM     11  N   LIG    1      -38.497  69.262  22.122  0.00  0.00    -0.222 NA
BRANCH   6  12
ATOM     12  C   LIG    1      -35.006  68.232  25.640  0.00  0.00    +0.048 C 
ATOM     13  C   LIG    1      -35.865  68.122  26.952  0.00  0.00    +0.032 C 
ATOM     14  C   LIG    1      -34.321  68.276  27.391  0.00  0.00    -0.004 C 
ATOM     15  C   LIG    1      -33.921  69.233  26.153  0.00  0.00    +0.032 C 
ATOM     16  C   LIG    1      -34.110  67.137  26.328  0.00  0.00    +0.032 C 
ENDBRANCH   6  12
BRANCH   3  17
ATOM     17  N   LIG    1      -39.129  70.798  23.748  0.00  0.00    -0.327 N 
ATOM     18  H   LIG    1      -38.627  71.385  24.401  0.00  0.00    +0.145 HD
ATOM     19  H   LIG    1      -39.517  71.251  22.932  0.00  0.00    +0.145 HD
ENDBRANCH   3  17
ENDBRANCH   1   8
BRANCH   1  20
ATOM     20  C   LIG    1      -34.398  66.459  20.052  0.00  0.00    +0.042 A 
ATOM     21  C   LIG    1      -33.014  66.630  20.208  0.00  0.00    +0.038 A 
ATOM     22  C   LIG    1      -32.230  67.062  19.128  0.00  0.00    +0.052 A 
ATOM     23  C   LIG    1      -32.869  67.276  17.912  0.00  0.00    +0.134 A 
ATOM     24  N   LIG    1      -34.203  67.141  17.731  0.00  0.00    -0.261 NA
ATOM     25  C   LIG    1      -34.932  66.776  18.809  0.00  0.00    +0.122 A 
BRANCH  22  26
ATOM     26  N   LIG    1      -30.855  67.265  19.347  0.00  0.00    -0.284 N 
ATOM     27  H   LIG    1      -30.558  68.223  19.516  0.00  0.00    +0.155 HD
ATOM     28  C   LIG    1      -29.853  66.301  19.314  0.00  0.00    +0.223 C 
ATOM     29  O   LIG    1      -30.016  65.093  19.134  0.00  0.00    -0.275 OA
BRANCH  28  30
ATOM     30  C   LIG    1      -28.457  66.849  19.588  0.00  0.00    +0.151 C 
BRANCH  30  31
ATOM     31  C   LIG    1      -28.195  68.177  18.930  0.00  0.00    +0.050 A 
ATOM     32  N   LIG    1      -28.556  68.282  17.624  0.00  0.00    -0.258 NA
ATOM     33  C   LIG    1      -28.278  69.449  16.991  0.00  0.00    +0.131 A 
ATOM     34  C   LIG    1      -27.614  70.505  17.589  0.00  0.00    +0.059 A 
ATOM     35 CL   LIG    1      -27.280  71.944  16.717  0.00  0.00    -0.082 Cl
ATOM     36  C   LIG    1      -27.213  70.365  18.911  0.00  0.00    +0.023 A 
ATOM     37  C   LIG    1      -27.504  69.185  19.596  0.00  0.00    +0.025 A 
ENDBRANCH  30  31
ENDBRANCH  28  30
ENDBRANCH  22  26
ENDBRANCH   1  20
TORSDOF 7
ENDMDL
MODEL 7
REMARK VINA RESULT:      -6.0     13.600     16.898
REMARK  Name = pdb/CHEMBL3671472.pdb
REMARK                            x       y       z     vdW  Elec       q    Type
REMARK                         _______ _______ _______ _____ _____    ______ ____
ROOT
ATOM      1  C   LIG    1      -20.208  79.737  35.884  0.00  0.00    +0.197 C 
ATOM      2  O   LIG    1      -19.482  80.206  36.767  0.00  0.00    -0.287 OA
ENDROOT
BRANCH   1   8
ATOM      3  C   LIG    1      -24.581  82.625  36.489  0.00  0.00    +0.214 A 
ATOM      4  N   LIG    1      -24.895  81.334  36.381  0.00  0.00    -0.197 NA
ATOM      5  C   LIG    1      -23.823  80.540  36.227  0.00  0.00    +0.147 A 
ATOM      6  N   LIG    1      -23.836  79.181  36.114  0.00  0.00    -0.325 N 
ATOM      7  C   LIG    1      -22.554  78.697  36.106  0.00  0.00    +0.100 A 
ATOM      8  C   LIG    1      -21.674  79.769  36.020  0.00  0.00    +0.051 A 
ATOM      9  C   LIG    1      -22.496  80.944  36.167  0.00  0.00    +0.048 A 
ATOM     10  C   LIG    1      -22.287  82.318  36.273  0.00  0.00    +0.126 A 
ATOM     11  N   LIG    1      -23.346  83.147  36.457  0.00  0.00    -0.222 NA
BRANCH   6  12
ATOM     12  C   LIG    1      -24.971  78.371  36.032  0.00  0.00    +0.048 C 
ATOM     13  C   LIG    1      -25.905  78.160  34.785  0.00  0.00    +0.032 C 
ATOM     14  C   LIG    1      -26.269  77.021  35.867  0.00  0.00    -0.004 C 
ATOM     15  C   LIG    1      -25.977  77.953  37.153  0.00  0.00    +0.032 C 
ATOM     16  C   LIG    1      -24.710  76.825  35.894  0.00  0.00    +0.032 C 
ENDBRANCH   6  12
BRANCH   3  17
ATOM     17  N   LIG    1      -25.629  83.494  36.730  0.00  0.00    -0.327 N 
ATOM     18  H   LIG    1      -26.373  83.293  36.076  0.00  0.00    +0.145 HD
ATOM     19  H   LIG    1      -25.863  83.468  37.712  0.00  0.00    +0.145 HD
ENDBRANCH   3  17
ENDBRANCH   1   8
BRANCH   1  20
ATOM     20  C   LIG    1      -19.541  79.149  34.688  0.00  0.00    +0.042 A 
ATOM     21  C   LIG    1      -20.284  78.810  33.547  0.00  0.00    +0.038 A 
ATOM     22  C   LIG    1      -19.652  78.224  32.440  0.00  0.00    +0.052 A 
ATOM     23  C   LIG    1      -18.277  78.030  32.512  0.00  0.00    +0.134 A 
ATOM     24  N   LIG    1      -17.532  78.326  33.602  0.00  0.00    -0.261 NA
ATOM     25  C   LIG    1      -18.187  78.838  34.668  0.00  0.00    +0.122 A 
BRANCH  22  26
ATOM     26  N   LIG    1      -20.448  77.858  31.339  0.00  0.00    -0.284 N 
ATOM     27  H   LIG    1      -21.299  78.396  31.195  0.00  0.00    +0.155 HD
ATOM     28  C   LIG    1      -20.218  76.812  30.453  0.00  0.00    +0.223 C 
ATOM     29  O   LIG    1      -19.243  76.058  30.460  0.00  0.00    -0.275 OA
BRANCH  28  30
ATOM     30  C   LIG    1      -21.279  76.675  29.367  0.00  0.00    +0.151 C 
BRANCH  30  31
ATOM     31  C   LIG    1      -22.679  76.571  29.907  0.00  0.00    +0.050 A 
ATOM     32  N   LIG    1      -23.422  77.709  29.876  0.00  0.00    -0.258 NA
ATOM     33  C   LIG    1      -24.668  77.657  30.408  0.00  0.00    +0.131 A 
ATOM     34  C   LIG    1      -25.195  76.531  31.015  0.00  0.00    +0.059 A 
ATOM     35 CL   LIG    1      -26.774  76.546  31.685  0.00  0.00    -0.082 Cl
ATOM     36  C   LIG    1      -24.407  75.389  31.078  0.00  0.00    +0.023 A 
ATOM     37  C   LIG    1      -23.129  75.404  30.519  0.00  0.00    +0.025 A 
ENDBRANCH  30  31
ENDBRANCH  28  30
ENDBRANCH  22  26
ENDBRANCH   1  20
TORSDOF 7
ENDMDL
MODEL 8
REMARK VINA RESULT:      -6.0      3.081      9.199
REMARK  Name = pdb/CHEMBL3671472.pdb
REMARK                            x       y       z     vdW  Elec       q    Type
REMARK                         _______ _______ _______ _____ _____    ______ ____
ROOT
ATOM      1  C   LIG    1      -39.466  72.650  25.171  0.00  0.00    +0.197 C 
ATOM      2  O   LIG    1      -40.530  72.418  25.757  0.00  0.00    -0.287 OA
ENDROOT
BRANCH   1   8
ATOM      3  C   LIG    1      -35.082  69.768  25.723  0.00  0.00    +0.214 A 
ATOM      4  N   LIG    1      -35.800  69.318  24.694  0.00  0.00    -0.197 NA
ATOM      5  C   LIG    1      -36.933  70.012  24.496  0.00  0.00    +0.147 A 
ATOM      6  N   LIG    1      -37.850  69.795  23.510  0.00  0.00    -0.325 N 
ATOM      7  C   LIG    1      -38.806  70.776  23.532  0.00  0.00    +0.100 A 
ATOM      8  C   LIG    1      -38.626  71.548  24.673  0.00  0.00    +0.051 A 
ATOM      9  C   LIG    1      -37.383  71.091  25.244  0.00  0.00    +0.048 A 
ATOM     10  C   LIG    1      -36.561  71.464  26.306  0.00  0.00    +0.126 A 
ATOM     11  N   LIG    1      -35.395  70.801  26.518  0.00  0.00    -0.222 NA
BRANCH   6  12
ATOM     12  C   LIG    1      -37.835  68.747  22.587  0.00  0.00    +0.048 C 
ATOM     13  C   LIG    1      -37.612  67.218  22.882  0.00  0.00    +0.032 C 
ATOM     14  C   LIG    1      -38.166  67.349  21.373  0.00  0.00    -0.004 C 
ATOM     15  C   LIG    1      -37.431  68.757  21.078  0.00  0.00    +0.032 C 
ATOM     16  C   LIG    1      -39.239  68.272  22.056  0.00  0.00    +0.032 C 
ENDBRANCH   6  12
BRANCH   3  17
ATOM     17  N   LIG    1      -33.863  69.151  25.937  0.00  0.00    -0.327 N 
ATOM     18  H   LIG    1      -33.971  68.158  25.782  0.00  0.00    +0.145 HD
ATOM     19  H   LIG    1      -33.152  69.624  25.398  0.00  0.00    +0.145 HD
ENDBRANCH   3  17
ENDBRANCH   1   8
BRANCH   1  20
ATOM     20  C   LIG    1      -39.081  74.077  24.988  0.00  0.00    +0.042 A 
ATOM     21  C   LIG    1      -37.898  74.579  25.552  0.00  0.00    +0.038 A 
ATOM     22  C   LIG    1      -37.564  75.934  25.404  0.00  0.00    +0.052 A 
ATOM     23  C   LIG    1      -38.424  76.732  24.659  0.00  0.00    +0.134 A 
ATOM     24  N   LIG    1      -39.582  76.288  24.118  0.00  0.00    -0.261 NA
ATOM     25  C   LIG    1      -39.897  74.990  24.329  0.00  0.00    +0.122 A 
BRANCH  22  26
ATOM     26  N   LIG    1      -36.392  76.398  26.028  0.00  0.00    -0.284 N 
ATOM     27  H   LIG    1      -35.546  76.401  25.463  0.00  0.00    +0.155 HD
ATOM     28  C   LIG    1      -36.257  76.814  27.348  0.00  0.00    +0.223 C 
ATOM     29  O   LIG    1      -37.164  76.889  28.179  0.00  0.00    -0.275 OA
BRANCH  28  30
ATOM     30  C   LIG    1      -34.845  77.254  27.718  0.00  0.00    +0.151 C 
BRANCH  30  31
ATOM     31  C   LIG    1      -33.962  76.121  28.164  0.00  0.00    +0.050 A 
ATOM     32  N   LIG    1      -34.391  74.868  27.859  0.00  0.00    -0.258 NA
ATOM     33  C   LIG    1      -33.642  73.826  28.298  0.00  0.00    +0.131 A 
ATOM     34  C   LIG    1      -32.504  73.974  29.071  0.00  0.00    +0.059 A 
ATOM     35 CL   LIG    1      -31.619  72.607  29.608  0.00  0.00    -0.082 Cl
ATOM     36  C   LIG    1      -32.103  75.259  29.412  0.00  0.00    +0.023 A 
ATOM     37  C   LIG    1      -32.840  76.352  28.956  0.00  0.00    +0.025 A 
ENDBRANCH  30  31
ENDBRANCH  28  30
ENDBRANCH  22  26
ENDBRANCH   1  20
TORSDOF 7
ENDMDL
MODEL 9
REMARK VINA RESULT:      -6.0      9.234     12.411
REMARK  Name = pdb/CHEMBL3671472.pdb
REMARK                            x       y       z     vdW  Elec       q    Type
REMARK                         _______ _______ _______ _____ _____    ______ ____
ROOT
ATOM      1  C   LIG    1      -25.976  77.001  31.788  0.00  0.00    +0.197 C 
ATOM      2  O   LIG    1      -26.716  77.780  31.177  0.00  0.00    -0.287 OA
ENDROOT
BRANCH   1   8
ATOM      3  C   LIG    1      -22.244  79.415  34.630  0.00  0.00    +0.214 A 
ATOM      4  N   LIG    1      -21.689  78.745  33.619  0.00  0.00    -0.197 NA
ATOM      5  C   LIG    1      -22.587  78.108  32.852  0.00  0.00    +0.147 A 
ATOM      6  N   LIG    1      -22.317  77.365  31.740  0.00  0.00    -0.325 N 
ATOM      7  C   LIG    1      -23.484  76.978  31.136  0.00  0.00    +0.100 A 
ATOM      8  C   LIG    1      -24.547  77.307  31.968  0.00  0.00    +0.051 A 
ATOM      9  C   LIG    1      -23.964  78.091  33.030  0.00  0.00    +0.048 A 
ATOM     10  C   LIG    1      -24.431  78.811  34.128  0.00  0.00    +0.126 A 
ATOM     11  N   LIG    1      -23.553  79.489  34.910  0.00  0.00    -0.222 NA
BRANCH   6  12
ATOM     12  C   LIG    1      -21.048  77.044  31.253  0.00  0.00    +0.048 C 
ATOM     13  C   LIG    1      -20.305  75.662  31.363  0.00  0.00    +0.032 C 
ATOM     14  C   LIG    1      -19.505  76.563  30.291  0.00  0.00    -0.004 C 
ATOM     15  C   LIG    1      -19.803  77.964  31.038  0.00  0.00    +0.032 C 
ATOM     16  C   LIG    1      -20.945  76.791  29.703  0.00  0.00    +0.032 C 
ENDBRANCH   6  12
BRANCH   3  17
ATOM     17  N   LIG    1      -21.385  80.161  35.416  0.00  0.00    -0.327 N 
ATOM     18  H   LIG    1      -21.550  81.142  35.235  0.00  0.00    +0.145 HD
ATOM     19  H   LIG    1      -21.461  79.854  36.376  0.00  0.00    +0.145 HD
ENDBRANCH   3  17
ENDBRANCH   1   8
BRANCH   1  20
ATOM     20  C   LIG    1      -26.588  75.757  32.333  0.00  0.00    +0.042 A 
ATOM     21  C   LIG    1      -27.885  75.373  31.960  0.00  0.00    +0.038 A 
ATOM     22  C   LIG    1      -28.465  74.219  32.507  0.00  0.00    +0.052 A 
ATOM     23  C   LIG    1      -27.699  73.470  33.392  0.00  0.00    +0.134 A 
ATOM     24  N   LIG    1      -26.454  73.820  33.790  0.00  0.00    -0.261 NA
ATOM     25  C   LIG    1      -25.951  74.967  33.283  0.00  0.00    +0.122 A 
BRANCH  22  26
ATOM     26  N   LIG    1      -29.786  73.903  32.137  0.00  0.00    -0.284 N 
ATOM     27  H   LIG    1      -30.525  74.431  32.595  0.00  0.00    +0.155 HD
ATOM     28  C   LIG    1      -30.191  72.916  31.245  0.00  0.00    +0.223 C 
ATOM     29  O   LIG    1      -29.446  72.185  30.589  0.00  0.00    -0.275 OA
BRANCH  28  30
ATOM     30  C   LIG    1      -31.701  72.823  31.067  0.00  0.00    +0.151 C 
BRANCH  30  31
ATOM     31  C   LIG    1      -32.245  73.782  30.043  0.00  0.00    +0.050 A 
ATOM     32  N   LIG    1      -32.079  75.105  30.311  0.00  0.00    -0.258 NA
ATOM     33  C   LIG    1      -32.609  75.992  29.432  0.00  0.00    +0.131 A 
ATOM     34  C   LIG    1      -33.341  75.621  28.318  0.00  0.00    +0.059 A 
ATOM     35 CL   LIG    1      -33.999  76.802  27.262  0.00  0.00    -0.082 Cl
ATOM     36  C   LIG    1      -33.539  74.267  28.083  0.00  0.00    +0.023 A 
ATOM     37  C   LIG    1      -32.987  73.330  28.956  0.00  0.00    +0.025 A 
ENDBRANCH  30  31
ENDBRANCH  28  30
ENDBRANCH  22  26
ENDBRANCH   1  20
TORSDOF 7
ENDMDL
