MODEL 1
REMARK VINA RESULT:      -6.6      0.000      0.000
REMARK  Name = pdb/CHEMBL3678284.pdb
REMARK                            x       y       z     vdW  Elec       q    Type
REMARK                         _______ _______ _______ _____ _____    ______ ____
ROOT
ATOM      1  C   LIG    1      -36.244  68.591  23.387  0.00  0.00    +0.162 A 
ATOM      2  C   LIG    1      -37.461  69.306  23.267  0.00  0.00    +0.162 A 
ATOM      3  C   LIG    1      -38.212  69.128  22.095  0.00  0.00    +0.050 A 
ATOM      4  C   LIG    1      -37.913  68.134  21.175  0.00  0.00    +0.009 A 
ATOM      5  C   LIG    1      -36.828  67.296  21.381  0.00  0.00    -0.024 A 
ATOM      6  C   LIG    1      -35.969  67.576  22.452  0.00  0.00    +0.054 A 
ENDROOT
BRANCH   1   8
ATOM      7  C   LIG    1      -34.854  67.800  25.176  0.00  0.00    +0.277 C 
ATOM      8  O   LIG    1      -35.357  68.900  24.397  0.00  0.00    -0.491 OA
ENDBRANCH   1   8
BRANCH   2   9
ATOM      9  O   LIG    1      -37.924  70.097  24.306  0.00  0.00    -0.484 OA
BRANCH   9  10
ATOM     10  C   LIG    1      -39.255  70.650  24.155  0.00  0.00    +0.264 C 
BRANCH  10  11
ATOM     11  C   LIG    1      -39.305  72.159  24.234  0.00  0.00    -0.010 A 
ATOM     12  C   LIG    1      -38.234  72.878  24.768  0.00  0.00    +0.008 A 
ATOM     13  C   LIG    1      -38.346  74.253  24.977  0.00  0.00    +0.015 A 
ATOM     14  C   LIG    1      -39.527  74.926  24.646  0.00  0.00    +0.016 A 
ATOM     15  C   LIG    1      -40.545  74.239  23.983  0.00  0.00    +0.015 A 
ATOM     16  C   LIG    1      -40.428  72.864  23.765  0.00  0.00    +0.008 A 
BRANCH  14  17
ATOM     17  S   LIG    1      -39.808  76.569  25.268  0.00  0.00    -0.016 S 
BRANCH  17  18
ATOM     18  C   LIG    1      -39.159  77.569  23.935  0.00  0.00    +0.448 C 
ATOM     19  F   LIG    1      -39.082  78.869  24.309  0.00  0.00    -0.160 F 
ATOM     20  F   LIG    1      -39.979  77.514  22.857  0.00  0.00    -0.160 F 
ATOM     21  F   LIG    1      -37.927  77.197  23.521  0.00  0.00    -0.160 F 
ENDBRANCH  17  18
ENDBRANCH  14  17
ENDBRANCH  10  11
ENDBRANCH   9  10
ENDBRANCH   2   9
BRANCH   5  22
ATOM     22  C   LIG    1      -36.503  66.149  20.462  0.00  0.00    +0.161 C 
BRANCH  22  23
ATOM     23  N   LIG    1      -35.703  66.475  19.295  0.00  0.00    -0.293 N 
ATOM     24  C   LIG    1      -34.341  66.648  19.257  0.00  0.00    +0.162 A 
ATOM     25  N   LIG    1      -33.440  66.325  20.205  0.00  0.00    -0.235 NA
ATOM     26  C   LIG    1      -32.170  66.635  19.845  0.00  0.00    +0.121 A 
ATOM     27  C   LIG    1      -31.773  67.273  18.666  0.00  0.00    +0.005 A 
ATOM     28  C   LIG    1      -32.769  67.581  17.727  0.00  0.00    +0.041 A 
ATOM     29  C   LIG    1      -34.089  67.236  18.029  0.00  0.00    +0.110 A 
ATOM     30  N   LIG    1      -35.250  67.379  17.311  0.00  0.00    -0.213 NA
ATOM     31  C   LIG    1      -36.185  66.892  18.070  0.00  0.00    +0.195 A 
BRANCH  27  32
ATOM     32  C   LIG    1      -30.378  67.610  18.439  0.00  0.00    +0.021 A 
ATOM     33  C   LIG    1      -29.317  66.735  18.562  0.00  0.00    +0.116 A 
ATOM     34  N   LIG    1      -28.193  67.440  18.246  0.00  0.00    -0.274 N 
ATOM     35  C   LIG    1      -26.842  66.937  18.238  0.00  0.00    +0.172 C 
ATOM     36  N   LIG    1      -28.436  68.724  17.933  0.00  0.00    -0.179 NA
ATOM     37  C   LIG    1      -29.763  68.824  18.041  0.00  0.00    +0.143 A 
ENDBRANCH  27  32
BRANCH  31  38
ATOM     38  N   LIG    1      -37.495  66.806  17.740  0.00  0.00    -0.329 N 
ATOM     39  H   LIG    1      -37.842  67.652  17.293  0.00  0.00    +0.145 HD
ATOM     40  H   LIG    1      -37.819  65.983  17.249  0.00  0.00    +0.145 HD
ENDBRANCH  31  38
ENDBRANCH  22  23
ENDBRANCH   5  22
TORSDOF 10
ENDMDL
MODEL 2
REMARK VINA RESULT:      -6.3     17.704     19.958
REMARK  Name = pdb/CHEMBL3678284.pdb
REMARK                            x       y       z     vdW  Elec       q    Type
REMARK                         _______ _______ _______ _____ _____    ______ ____
ROOT
ATOM      1  C   LIG    1      -26.208  75.656  31.598  0.00  0.00    +0.162 A 
ATOM      2  C   LIG    1      -25.699  74.356  31.844  0.00  0.00    +0.162 A 
ATOM      3  C   LIG    1      -24.446  74.031  31.304  0.00  0.00    +0.050 A 
ATOM      4  C   LIG    1      -23.619  74.990  30.737  0.00  0.00    +0.009 A 
ATOM      5  C   LIG    1      -24.031  76.312  30.665  0.00  0.00    -0.024 A 
ATOM      6  C   LIG    1      -25.347  76.617  31.039  0.00  0.00    +0.054 A 
ENDROOT
BRANCH   1   8
ATOM      7  C   LIG    1      -27.747  76.822  33.023  0.00  0.00    +0.277 C 
ATOM      8  O   LIG    1      -27.521  75.953  31.900  0.00  0.00    -0.491 OA
ENDBRANCH   1   8
BRANCH   2   9
ATOM      9  O   LIG    1      -26.389  73.467  32.652  0.00  0.00    -0.484 OA
BRANCH   9  10
ATOM     10  C   LIG    1      -25.726  73.055  33.873  0.00  0.00    +0.264 C 
BRANCH  10  11
ATOM     11  C   LIG    1      -25.370  74.200  34.795  0.00  0.00    -0.010 A 
ATOM     12  C   LIG    1      -26.345  74.792  35.599  0.00  0.00    +0.008 A 
ATOM     13  C   LIG    1      -26.047  75.942  36.333  0.00  0.00    +0.015 A 
ATOM     14  C   LIG    1      -24.768  76.505  36.278  0.00  0.00    +0.016 A 
ATOM     15  C   LIG    1      -23.754  75.838  35.589  0.00  0.00    +0.015 A 
ATOM     16  C   LIG    1      -24.050  74.682  34.862  0.00  0.00    +0.008 A 
BRANCH  14  17
ATOM     17  S   LIG    1      -24.508  78.158  36.884  0.00  0.00    -0.016 S 
BRANCH  17  18
ATOM     18  C   LIG    1      -25.368  79.127  35.652  0.00  0.00    +0.448 C 
ATOM     19  F   LIG    1      -24.779  80.338  35.503  0.00  0.00    -0.160 F 
ATOM     20  F   LIG    1      -26.648  79.352  36.033  0.00  0.00    -0.160 F 
ATOM     21  F   LIG    1      -25.409  78.548  34.431  0.00  0.00    -0.160 F 
ENDBRANCH  17  18
ENDBRANCH  14  17
ENDBRANCH  10  11
ENDBRANCH   9  10
ENDBRANCH   2   9
BRANCH   5  22
ATOM     22  C   LIG    1      -23.146  77.410  30.138  0.00  0.00    +0.161 C 
BRANCH  22  23
ATOM     23  N   LIG    1      -21.855  77.554  30.788  0.00  0.00    -0.293 N 
ATOM     24  C   LIG    1      -21.620  78.078  32.036  0.00  0.00    +0.162 A 
ATOM     25  N   LIG    1      -22.517  78.343  33.005  0.00  0.00    -0.235 NA
ATOM     26  C   LIG    1      -21.945  78.862  34.119  0.00  0.00    +0.121 A 
ATOM     27  C   LIG    1      -20.592  79.171  34.291  0.00  0.00    +0.005 A 
ATOM     28  C   LIG    1      -19.717  78.870  33.236  0.00  0.00    +0.041 A 
ATOM     29  C   LIG    1      -20.251  78.286  32.084  0.00  0.00    +0.110 A 
ATOM     30  N   LIG    1      -19.654  77.861  30.923  0.00  0.00    -0.213 NA
ATOM     31  C   LIG    1      -20.621  77.403  30.187  0.00  0.00    +0.195 A 
BRANCH  27  32
ATOM     32  C   LIG    1      -20.125  79.793  35.518  0.00  0.00    +0.021 A 
ATOM     33  C   LIG    1      -20.589  80.986  36.032  0.00  0.00    +0.116 A 
ATOM     34  N   LIG    1      -19.909  81.200  37.195  0.00  0.00    -0.274 N 
ATOM     35  C   LIG    1      -20.060  82.328  38.079  0.00  0.00    +0.172 C 
ATOM     36  N   LIG    1      -19.018  80.235  37.480  0.00  0.00    -0.179 NA
ATOM     37  C   LIG    1      -19.157  79.376  36.467  0.00  0.00    +0.143 A 
ENDBRANCH  27  32
BRANCH  31  38
ATOM     38  N   LIG    1      -20.476  76.853  28.959  0.00  0.00    -0.329 N 
ATOM     39  H   LIG    1      -19.705  77.262  28.436  0.00  0.00    +0.145 HD
ATOM     40  H   LIG    1      -20.471  75.845  28.876  0.00  0.00    +0.145 HD
ENDBRANCH  31  38
ENDBRANCH  22  23
ENDBRANCH   5  22
TORSDOF 10
ENDMDL
MODEL 3
REMARK VINA RESULT:      -6.3     14.422     17.663
REMARK  Name = pdb/CHEMBL3678284.pdb
REMARK                            x       y       z     vdW  Elec       q    Type
REMARK                         _______ _______ _______ _____ _____    ______ ____
ROOT
ATOM      1  C   LIG    1      -27.514  76.356  13.547  0.00  0.00    +0.162 A 
ATOM      2  C   LIG    1      -26.883  77.591  13.837  0.00  0.00    +0.162 A 
ATOM      3  C   LIG    1      -26.826  78.552  12.817  0.00  0.00    +0.050 A 
ATOM      4  C   LIG    1      -27.540  78.415  11.636  0.00  0.00    +0.009 A 
ATOM      5  C   LIG    1      -28.321  77.289  11.420  0.00  0.00    -0.024 A 
ATOM      6  C   LIG    1      -28.247  76.244  12.351  0.00  0.00    +0.054 A 
ENDROOT
BRANCH   1   8
ATOM      7  C   LIG    1      -26.479  74.252  14.055  0.00  0.00    +0.277 C 
ATOM      8  O   LIG    1      -27.397  75.297  14.422  0.00  0.00    -0.491 OA
ENDBRANCH   1   8
BRANCH   2   9
ATOM      9  O   LIG    1      -26.407  77.861  15.110  0.00  0.00    -0.484 OA
BRANCH   9  10
ATOM     10  C   LIG    1      -25.858  79.184  15.328  0.00  0.00    +0.264 C 
BRANCH  10  11
ATOM     11  C   LIG    1      -24.349  79.215  15.423  0.00  0.00    -0.010 A 
ATOM     12  C   LIG    1      -23.681  80.407  15.709  0.00  0.00    +0.008 A 
ATOM     13  C   LIG    1      -22.288  80.464  15.647  0.00  0.00    +0.015 A 
ATOM     14  C   LIG    1      -21.547  79.327  15.308  0.00  0.00    +0.016 A 
ATOM     15  C   LIG    1      -22.201  78.102  15.159  0.00  0.00    +0.015 A 
ATOM     16  C   LIG    1      -23.594  78.044  15.231  0.00  0.00    +0.008 A 
BRANCH  14  17
ATOM     17  S   LIG    1      -19.836  79.496  14.848  0.00  0.00    -0.016 S 
BRANCH  17  18
ATOM     18  C   LIG    1      -19.017  78.775  16.265  0.00  0.00    +0.448 C 
ATOM     19  F   LIG    1      -17.702  79.102  16.271  0.00  0.00    -0.160 F 
ATOM     20  F   LIG    1      -19.090  77.423  16.219  0.00  0.00    -0.160 F 
ATOM     21  F   LIG    1      -19.533  79.164  17.452  0.00  0.00    -0.160 F 
ENDBRANCH  17  18
ENDBRANCH  14  17
ENDBRANCH  10  11
ENDBRANCH   9  10
ENDBRANCH   2   9
BRANCH   5  22
ATOM     22  C   LIG    1      -29.183  77.122  10.197  0.00  0.00    +0.161 C 
BRANCH  22  23
ATOM     23  N   LIG    1      -30.565  77.546  10.330  0.00  0.00    -0.293 N 
ATOM     24  C   LIG    1      -31.026  78.839  10.368  0.00  0.00    +0.162 A 
ATOM     25  N   LIG    1      -30.357  79.965  10.054  0.00  0.00    -0.235 NA
ATOM     26  C   LIG    1      -31.113  81.080  10.205  0.00  0.00    +0.121 A 
ATOM     27  C   LIG    1      -32.426  81.136  10.684  0.00  0.00    +0.005 A 
ATOM     28  C   LIG    1      -33.056  79.922  10.994  0.00  0.00    +0.041 A 
ATOM     29  C   LIG    1      -32.336  78.739  10.807  0.00  0.00    +0.110 A 
ATOM     30  N   LIG    1      -32.688  77.425  10.990  0.00  0.00    -0.213 NA
ATOM     31  C   LIG    1      -31.633  76.739  10.671  0.00  0.00    +0.195 A 
BRANCH  27  32
ATOM     32  C   LIG    1      -33.095  82.413  10.863  0.00  0.00    +0.021 A 
ATOM     33  C   LIG    1      -34.452  82.581  11.051  0.00  0.00    +0.116 A 
ATOM     34  N   LIG    1      -34.662  83.921  11.195  0.00  0.00    -0.274 N 
ATOM     35  C   LIG    1      -35.931  84.569  11.412  0.00  0.00    +0.172 C 
ATOM     36  N   LIG    1      -33.538  84.652  11.105  0.00  0.00    -0.179 NA
ATOM     37  C   LIG    1      -32.586  83.735  10.914  0.00  0.00    +0.143 A 
ENDBRANCH  27  32
BRANCH  31  38
ATOM     38  N   LIG    1      -31.546  75.388  10.679  0.00  0.00    -0.329 N 
ATOM     39  H   LIG    1      -30.831  75.046  11.316  0.00  0.00    +0.145 HD
ATOM     40  H   LIG    1      -32.396  74.847  10.771  0.00  0.00    +0.145 HD
ENDBRANCH  31  38
ENDBRANCH  22  23
ENDBRANCH   5  22
TORSDOF 10
ENDMDL
MODEL 4
REMARK VINA RESULT:      -6.2     20.196     23.838
REMARK  Name = pdb/CHEMBL3678284.pdb
REMARK                            x       y       z     vdW  Elec       q    Type
REMARK                         _______ _______ _______ _____ _____    ______ ____
ROOT
ATOM      1  C   LIG    1      -22.350  82.776  37.261  0.00  0.00    +0.162 A 
ATOM      2  C   LIG    1      -22.396  81.814  36.222  0.00  0.00    +0.162 A 
ATOM      3  C   LIG    1      -23.619  81.171  35.979  0.00  0.00    +0.050 A 
ATOM      4  C   LIG    1      -24.802  81.597  36.565  0.00  0.00    +0.009 A 
ATOM      5  C   LIG    1      -24.799  82.670  37.443  0.00  0.00    -0.024 A 
ATOM      6  C   LIG    1      -23.563  83.205  37.830  0.00  0.00    +0.054 A 
ENDROOT
BRANCH   1   8
ATOM      7  C   LIG    1      -21.109  83.851  39.012  0.00  0.00    +0.277 C 
ATOM      8  O   LIG    1      -21.136  83.264  37.699  0.00  0.00    -0.491 OA
ENDBRANCH   1   8
BRANCH   2   9
ATOM      9  O   LIG    1      -21.285  81.573  35.430  0.00  0.00    -0.484 OA
BRANCH   9  10
ATOM     10  C   LIG    1      -20.639  80.288  35.595  0.00  0.00    +0.264 C 
BRANCH  10  11
ATOM     11  C   LIG    1      -20.699  79.407  34.367  0.00  0.00    -0.010 A 
ATOM     12  C   LIG    1      -21.821  78.615  34.118  0.00  0.00    +0.008 A 
ATOM     13  C   LIG    1      -21.811  77.693  33.069  0.00  0.00    +0.015 A 
ATOM     14  C   LIG    1      -20.683  77.562  32.253  0.00  0.00    +0.016 A 
ATOM     15  C   LIG    1      -19.616  78.448  32.410  0.00  0.00    +0.015 A 
ATOM     16  C   LIG    1      -19.630  79.376  33.454  0.00  0.00    +0.008 A 
BRANCH  14  17
ATOM     17  S   LIG    1      -20.525  76.142  31.193  0.00  0.00    -0.016 S 
BRANCH  17  18
ATOM     18  C   LIG    1      -21.231  76.757  29.669  0.00  0.00    +0.448 C 
ATOM     19  F   LIG    1      -22.134  75.877  29.173  0.00  0.00    -0.160 F 
ATOM     20  F   LIG    1      -20.268  76.910  28.728  0.00  0.00    -0.160 F 
ATOM     21  F   LIG    1      -21.858  77.947  29.798  0.00  0.00    -0.160 F 
ENDBRANCH  17  18
ENDBRANCH  14  17
ENDBRANCH  10  11
ENDBRANCH   9  10
ENDBRANCH   2   9
BRANCH   5  22
ATOM     22  C   LIG    1      -26.061  83.230  38.045  0.00  0.00    +0.161 C 
BRANCH  22  23
ATOM     23  N   LIG    1      -27.193  83.356  37.144  0.00  0.00    -0.293 N 
ATOM     24  C   LIG    1      -27.492  84.437  36.351  0.00  0.00    +0.162 A 
ATOM     25  N   LIG    1      -26.703  85.487  36.051  0.00  0.00    -0.235 NA
ATOM     26  C   LIG    1      -27.314  86.383  35.238  0.00  0.00    +0.121 A 
ATOM     27  C   LIG    1      -28.631  86.320  34.772  0.00  0.00    +0.005 A 
ATOM     28  C   LIG    1      -29.394  85.198  35.129  0.00  0.00    +0.041 A 
ATOM     29  C   LIG    1      -28.792  84.219  35.926  0.00  0.00    +0.110 A 
ATOM     30  N   LIG    1      -29.265  83.021  36.402  0.00  0.00    -0.213 NA
ATOM     31  C   LIG    1      -28.288  82.517  37.093  0.00  0.00    +0.195 A 
BRANCH  27  32
ATOM     32  C   LIG    1      -29.182  87.392  33.961  0.00  0.00    +0.021 A 
ATOM     33  C   LIG    1      -30.144  87.236  32.983  0.00  0.00    +0.116 A 
ATOM     34  N   LIG    1      -30.393  88.479  32.482  0.00  0.00    -0.274 N 
ATOM     35  C   LIG    1      -31.329  88.808  31.435  0.00  0.00    +0.172 C 
ATOM     36  N   LIG    1      -29.655  89.446  33.052  0.00  0.00    -0.179 NA
ATOM     37  C   LIG    1      -28.927  88.786  33.957  0.00  0.00    +0.143 A 
ENDBRANCH  27  32
BRANCH  31  38
ATOM     38  N   LIG    1      -28.312  81.319  37.722  0.00  0.00    -0.329 N 
ATOM     39  H   LIG    1      -27.655  80.654  37.321  0.00  0.00    +0.145 HD
ATOM     40  H   LIG    1      -28.270  81.299  38.732  0.00  0.00    +0.145 HD
ENDBRANCH  31  38
ENDBRANCH  22  23
ENDBRANCH   5  22
TORSDOF 10
ENDMDL
MODEL 5
REMARK VINA RESULT:      -6.2     14.639     18.483
REMARK  Name = pdb/CHEMBL3678284.pdb
REMARK                            x       y       z     vdW  Elec       q    Type
REMARK                         _______ _______ _______ _____ _____    ______ ____
ROOT
ATOM      1  C   LIG    1      -20.724  77.775  14.840  0.00  0.00    +0.162 A 
ATOM      2  C   LIG    1      -19.489  77.989  15.501  0.00  0.00    +0.162 A 
ATOM      3  C   LIG    1      -19.335  79.178  16.230  0.00  0.00    +0.050 A 
ATOM      4  C   LIG    1      -20.403  80.022  16.495  0.00  0.00    +0.009 A 
ATOM      5  C   LIG    1      -21.667  79.720  16.011  0.00  0.00    -0.024 A 
ATOM      6  C   LIG    1      -21.799  78.634  15.136  0.00  0.00    +0.054 A 
ENDROOT
BRANCH   1   8
ATOM      7  C   LIG    1      -22.139  76.116  13.839  0.00  0.00    +0.277 C 
ATOM      8  O   LIG    1      -20.851  76.750  13.926  0.00  0.00    -0.491 OA
ENDBRANCH   1   8
BRANCH   2   9
ATOM      9  O   LIG    1      -18.499  77.020  15.483  0.00  0.00    -0.484 OA
BRANCH   9  10
ATOM     10  C   LIG    1      -18.122  76.457  16.763  0.00  0.00    +0.264 C 
BRANCH  10  11
ATOM     11  C   LIG    1      -18.712  75.091  17.032  0.00  0.00    -0.010 A 
ATOM     12  C   LIG    1      -19.475  74.445  16.058  0.00  0.00    +0.008 A 
ATOM     13  C   LIG    1      -20.141  73.256  16.363  0.00  0.00    +0.015 A 
ATOM     14  C   LIG    1      -20.041  72.696  17.640  0.00  0.00    +0.016 A 
ATOM     15  C   LIG    1      -19.168  73.262  18.571  0.00  0.00    +0.015 A 
ATOM     16  C   LIG    1      -18.494  74.446  18.262  0.00  0.00    +0.008 A 
BRANCH  14  17
ATOM     17  S   LIG    1      -21.184  71.425  18.136  0.00  0.00    -0.016 S 
BRANCH  17  18
ATOM     18  C   LIG    1      -22.530  72.398  18.800  0.00  0.00    +0.448 C 
ATOM     19  F   LIG    1      -22.522  72.359  20.154  0.00  0.00    -0.160 F 
ATOM     20  F   LIG    1      -23.723  71.897  18.396  0.00  0.00    -0.160 F 
ATOM     21  F   LIG    1      -22.497  73.698  18.435  0.00  0.00    -0.160 F 
ENDBRANCH  17  18
ENDBRANCH  14  17
ENDBRANCH  10  11
ENDBRANCH   9  10
ENDBRANCH   2   9
BRANCH   5  22
ATOM     22  C   LIG    1      -22.879  80.552  16.334  0.00  0.00    +0.161 C 
BRANCH  22  23
ATOM     23  N   LIG    1      -23.817  80.759  15.246  0.00  0.00    -0.293 N 
ATOM     24  C   LIG    1      -24.793  79.888  14.827  0.00  0.00    +0.162 A 
ATOM     25  N   LIG    1      -25.249  78.790  15.461  0.00  0.00    -0.235 NA
ATOM     26  C   LIG    1      -26.220  78.151  14.763  0.00  0.00    +0.121 A 
ATOM     27  C   LIG    1      -26.702  78.500  13.498  0.00  0.00    +0.005 A 
ATOM     28  C   LIG    1      -26.176  79.654  12.898  0.00  0.00    +0.041 A 
ATOM     29  C   LIG    1      -25.208  80.378  13.599  0.00  0.00    +0.110 A 
ATOM     30  N   LIG    1      -24.545  81.540  13.291  0.00  0.00    -0.213 NA
ATOM     31  C   LIG    1      -23.752  81.760  14.296  0.00  0.00    +0.195 A 
BRANCH  27  32
ATOM     32  C   LIG    1      -27.700  77.680  12.833  0.00  0.00    +0.021 A 
ATOM     33  C   LIG    1      -28.586  78.126  11.873  0.00  0.00    +0.116 A 
ATOM     34  N   LIG    1      -29.329  77.046  11.498  0.00  0.00    -0.274 N 
ATOM     35  C   LIG    1      -30.385  77.034  10.517  0.00  0.00    +0.172 C 
ATOM     36  N   LIG    1      -29.003  75.918  12.151  0.00  0.00    -0.179 NA
ATOM     37  C   LIG    1      -28.007  76.301  12.954  0.00  0.00    +0.143 A 
ENDBRANCH  27  32
BRANCH  31  38
ATOM     38  N   LIG    1      -22.927  82.825  14.422  0.00  0.00    -0.329 N 
ATOM     39  H   LIG    1      -22.555  83.141  13.529  0.00  0.00    +0.145 HD
ATOM     40  H   LIG    1      -23.231  83.612  14.981  0.00  0.00    +0.145 HD
ENDBRANCH  31  38
ENDBRANCH  22  23
ENDBRANCH   5  22
TORSDOF 10
ENDMDL
MODEL 6
REMARK VINA RESULT:      -6.2     19.110     21.618
REMARK  Name = pdb/CHEMBL3678284.pdb
REMARK                            x       y       z     vdW  Elec       q    Type
REMARK                         _______ _______ _______ _____ _____    ______ ____
ROOT
ATOM      1  C   LIG    1      -20.166  75.275  31.642  0.00  0.00    +0.162 A 
ATOM      2  C   LIG    1      -19.400  76.201  30.892  0.00  0.00    +0.162 A 
ATOM      3  C   LIG    1      -20.027  76.853  29.820  0.00  0.00    +0.050 A 
ATOM      4  C   LIG    1      -21.397  76.781  29.616  0.00  0.00    +0.009 A 
ATOM      5  C   LIG    1      -22.190  76.026  30.466  0.00  0.00    -0.024 A 
ATOM      6  C   LIG    1      -21.556  75.231  31.431  0.00  0.00    +0.054 A 
ENDROOT
BRANCH   1   8
ATOM      7  C   LIG    1      -19.126  73.154  32.061  0.00  0.00    +0.277 C 
ATOM      8  O   LIG    1      -19.548  74.439  32.549  0.00  0.00    -0.491 OA
ENDBRANCH   1   8
BRANCH   2   9
ATOM      9  O   LIG    1      -18.097  76.502  31.257  0.00  0.00    -0.484 OA
BRANCH   9  10
ATOM     10  C   LIG    1      -17.811  77.892  31.546  0.00  0.00    +0.264 C 
BRANCH  10  11
ATOM     11  C   LIG    1      -18.419  78.389  32.838  0.00  0.00    -0.010 A 
ATOM     12  C   LIG    1      -17.725  78.264  34.042  0.00  0.00    +0.008 A 
ATOM     13  C   LIG    1      -18.348  78.585  35.250  0.00  0.00    +0.015 A 
ATOM     14  C   LIG    1      -19.670  79.043  35.264  0.00  0.00    +0.016 A 
ATOM     15  C   LIG    1      -20.318  79.303  34.055  0.00  0.00    +0.015 A 
ATOM     16  C   LIG    1      -19.690  78.992  32.847  0.00  0.00    +0.008 A 
BRANCH  14  17
ATOM     17  S   LIG    1      -20.576  79.070  36.795  0.00  0.00    -0.016 S 
BRANCH  17  18
ATOM     18  C   LIG    1      -20.151  80.687  37.429  0.00  0.00    +0.448 C 
ATOM     19  F   LIG    1      -20.927  80.999  38.496  0.00  0.00    -0.160 F 
ATOM     20  F   LIG    1      -20.369  81.638  36.489  0.00  0.00    -0.160 F 
ATOM     21  F   LIG    1      -18.864  80.800  37.823  0.00  0.00    -0.160 F 
ENDBRANCH  17  18
ENDBRANCH  14  17
ENDBRANCH  10  11
ENDBRANCH   9  10
ENDBRANCH   2   9
BRANCH   5  22
ATOM     22  C   LIG    1      -23.690  75.976  30.345  0.00  0.00    +0.161 C 
BRANCH  22  23
ATOM     23  N   LIG    1      -24.432  76.104  31.587  0.00  0.00    -0.293 N 
ATOM     24  C   LIG    1      -24.361  77.145  32.481  0.00  0.00    +0.162 A 
ATOM     25  N   LIG    1      -23.795  78.353  32.300  0.00  0.00    -0.235 NA
ATOM     26  C   LIG    1      -23.901  79.148  33.393  0.00  0.00    +0.121 A 
ATOM     27  C   LIG    1      -24.467  78.798  34.623  0.00  0.00    +0.005 A 
ATOM     28  C   LIG    1      -25.035  77.520  34.737  0.00  0.00    +0.041 A 
ATOM     29  C   LIG    1      -24.996  76.680  33.621  0.00  0.00    +0.110 A 
ATOM     30  N   LIG    1      -25.485  75.412  33.423  0.00  0.00    -0.213 NA
ATOM     31  C   LIG    1      -25.165  75.108  32.202  0.00  0.00    +0.195 A 
BRANCH  27  32
ATOM     32  C   LIG    1      -24.449  79.730  35.738  0.00  0.00    +0.021 A 
ATOM     33  C   LIG    1      -23.723  80.903  35.784  0.00  0.00    +0.116 A 
ATOM     34  N   LIG    1      -24.000  81.484  36.986  0.00  0.00    -0.274 N 
ATOM     35  C   LIG    1      -23.464  82.729  37.477  0.00  0.00    +0.172 C 
ATOM     36  N   LIG    1      -24.851  80.772  37.744  0.00  0.00    -0.179 NA
ATOM     37  C   LIG    1      -25.131  79.712  36.981  0.00  0.00    +0.143 A 
ENDBRANCH  27  32
BRANCH  31  38
ATOM     38  N   LIG    1      -25.480  73.950  31.577  0.00  0.00    -0.329 N 
ATOM     39  H   LIG    1      -25.858  74.099  30.644  0.00  0.00    +0.145 HD
ATOM     40  H   LIG    1      -24.801  73.200  31.573  0.00  0.00    +0.145 HD
ENDBRANCH  31  38
ENDBRANCH  22  23
ENDBRANCH   5  22
TORSDOF 10
ENDMDL
MODEL 7
REMARK VINA RESULT:      -6.0     14.782     19.538
REMARK  Name = pdb/CHEMBL3678284.pdb
REMARK                            x       y       z     vdW  Elec       q    Type
REMARK                         _______ _______ _______ _____ _____    ______ ____
ROOT
ATOM      1  C   LIG    1      -35.894  84.122  28.831  0.00  0.00    +0.162 A 
ATOM      2  C   LIG    1      -35.176  82.944  29.153  0.00  0.00    +0.162 A 
ATOM      3  C   LIG    1      -34.016  83.076  29.930  0.00  0.00    +0.050 A 
ATOM      4  C   LIG    1      -33.682  84.268  30.556  0.00  0.00    +0.009 A 
ATOM      5  C   LIG    1      -34.487  85.387  30.402  0.00  0.00    -0.024 A 
ATOM      6  C   LIG    1      -35.549  85.317  29.489  0.00  0.00    +0.054 A 
ENDROOT
BRANCH   1   8
ATOM      7  C   LIG    1      -38.239  83.903  28.373  0.00  0.00    +0.277 C 
ATOM      8  O   LIG    1      -36.898  84.085  27.886  0.00  0.00    -0.491 OA
ENDBRANCH   1   8
BRANCH   2   9
ATOM      9  O   LIG    1      -35.651  81.699  28.773  0.00  0.00    -0.484 OA
BRANCH   9  10
ATOM     10  C   LIG    1      -35.030  81.098  27.611  0.00  0.00    +0.264 C 
BRANCH  10  11
ATOM     11  C   LIG    1      -34.351  79.775  27.892  0.00  0.00    -0.010 A 
ATOM     12  C   LIG    1      -34.900  78.879  28.809  0.00  0.00    +0.008 A 
ATOM     13  C   LIG    1      -34.195  77.731  29.177  0.00  0.00    +0.015 A 
ATOM     14  C   LIG    1      -32.939  77.464  28.624  0.00  0.00    +0.016 A 
ATOM     15  C   LIG    1      -32.451  78.282  27.603  0.00  0.00    +0.015 A 
ATOM     16  C   LIG    1      -33.162  79.425  27.229  0.00  0.00    +0.008 A 
BRANCH  14  17
ATOM     17  S   LIG    1      -31.890  76.238  29.373  0.00  0.00    -0.016 S 
BRANCH  17  18
ATOM     18  C   LIG    1      -32.797  74.736  29.028  0.00  0.00    +0.448 C 
ATOM     19  F   LIG    1      -31.963  73.667  29.020  0.00  0.00    -0.160 F 
ATOM     20  F   LIG    1      -33.372  74.800  27.803  0.00  0.00    -0.160 F 
ATOM     21  F   LIG    1      -33.778  74.472  29.919  0.00  0.00    -0.160 F 
ENDBRANCH  17  18
ENDBRANCH  14  17
ENDBRANCH  10  11
ENDBRANCH   9  10
ENDBRANCH   2   9
BRANCH   5  22
ATOM     22  C   LIG    1      -34.222  86.682  31.121  0.00  0.00    +0.161 C 
BRANCH  22  23
ATOM     23  N   LIG    1      -32.897  87.248  30.945  0.00  0.00    -0.293 N 
ATOM     24  C   LIG    1      -31.866  87.220  31.852  0.00  0.00    +0.162 A 
ATOM     25  N   LIG    1      -31.769  86.476  32.971  0.00  0.00    -0.235 NA
ATOM     26  C   LIG    1      -30.613  86.695  33.644  0.00  0.00    +0.121 A 
ATOM     27  C   LIG    1      -29.616  87.615  33.307  0.00  0.00    +0.005 A 
ATOM     28  C   LIG    1      -29.788  88.357  32.128  0.00  0.00    +0.041 A 
ATOM     29  C   LIG    1      -30.941  88.132  31.371  0.00  0.00    +0.110 A 
ATOM     30  N   LIG    1      -31.364  88.671  30.181  0.00  0.00    -0.213 NA
ATOM     31  C   LIG    1      -32.508  88.108  29.936  0.00  0.00    +0.195 A 
BRANCH  27  32
ATOM     32  C   LIG    1      -28.455  87.797  34.162  0.00  0.00    +0.021 A 
ATOM     33  C   LIG    1      -28.105  88.976  34.788  0.00  0.00    +0.116 A 
ATOM     34  N   LIG    1      -26.974  88.715  35.503  0.00  0.00    -0.274 N 
ATOM     35  C   LIG    1      -26.242  89.653  36.319  0.00  0.00    +0.172 C 
ATOM     36  N   LIG    1      -26.545  87.448  35.385  0.00  0.00    -0.179 NA
ATOM     37  C   LIG    1      -27.451  86.888  34.579  0.00  0.00    +0.143 A 
ENDBRANCH  27  32
BRANCH  31  38
ATOM     38  N   LIG    1      -33.269  88.329  28.839  0.00  0.00    -0.329 N 
ATOM     39  H   LIG    1      -34.240  88.527  29.071  0.00  0.00    +0.145 HD
ATOM     40  H   LIG    1      -32.931  88.970  28.134  0.00  0.00    +0.145 HD
ENDBRANCH  31  38
ENDBRANCH  22  23
ENDBRANCH   5  22
TORSDOF 10
ENDMDL
MODEL 8
REMARK VINA RESULT:      -5.9      5.894      9.308
REMARK  Name = pdb/CHEMBL3678284.pdb
REMARK                            x       y       z     vdW  Elec       q    Type
REMARK                         _______ _______ _______ _____ _____    ______ ____
ROOT
ATOM      1  C   LIG    1      -34.456  70.147  30.396  0.00  0.00    +0.162 A 
ATOM      2  C   LIG    1      -33.214  70.674  29.963  0.00  0.00    +0.162 A 
ATOM      3  C   LIG    1      -32.642  70.134  28.802  0.00  0.00    +0.050 A 
ATOM      4  C   LIG    1      -33.343  69.275  27.969  0.00  0.00    +0.009 A 
ATOM      5  C   LIG    1      -34.640  68.900  28.285  0.00  0.00    -0.024 A 
ATOM      6  C   LIG    1      -35.157  69.290  29.528  0.00  0.00    +0.054 A 
ENDROOT
BRANCH   1   8
ATOM      7  C   LIG    1      -36.066  69.700  32.117  0.00  0.00    +0.277 C 
ATOM      8  O   LIG    1      -34.947  70.469  31.643  0.00  0.00    -0.491 OA
ENDBRANCH   1   8
BRANCH   2   9
ATOM      9  O   LIG    1      -32.626  71.738  30.629  0.00  0.00    -0.484 OA
BRANCH   9  10
ATOM     10  C   LIG    1      -31.575  72.441  29.923  0.00  0.00    +0.264 C 
BRANCH  10  11
ATOM     11  C   LIG    1      -31.986  73.800  29.403  0.00  0.00    -0.010 A 
ATOM     12  C   LIG    1      -31.263  74.942  29.751  0.00  0.00    +0.008 A 
ATOM     13  C   LIG    1      -31.732  76.207  29.394  0.00  0.00    +0.015 A 
ATOM     14  C   LIG    1      -32.925  76.343  28.677  0.00  0.00    +0.016 A 
ATOM     15  C   LIG    1      -33.576  75.202  28.206  0.00  0.00    +0.015 A 
ATOM     16  C   LIG    1      -33.101  73.936  28.555  0.00  0.00    +0.008 A 
BRANCH  14  17
ATOM     17  S   LIG    1      -33.712  77.936  28.572  0.00  0.00    -0.016 S 
BRANCH  17  18
ATOM     18  C   LIG    1      -32.758  78.717  27.276  0.00  0.00    +0.448 C 
ATOM     19  F   LIG    1      -33.385  79.832  26.830  0.00  0.00    -0.160 F 
ATOM     20  F   LIG    1      -32.627  77.884  26.215  0.00  0.00    -0.160 F 
ATOM     21  F   LIG    1      -31.513  79.081  27.655  0.00  0.00    -0.160 F 
ENDBRANCH  17  18
ENDBRANCH  14  17
ENDBRANCH  10  11
ENDBRANCH   9  10
ENDBRANCH   2   9
BRANCH   5  22
ATOM     22  C   LIG    1      -35.479  68.038  27.380  0.00  0.00    +0.161 C 
BRANCH  22  23
ATOM     23  N   LIG    1      -35.806  68.607  26.084  0.00  0.00    -0.293 N 
ATOM     24  C   LIG    1      -36.717  69.604  25.833  0.00  0.00    +0.162 A 
ATOM     25  N   LIG    1      -37.313  70.423  26.721  0.00  0.00    -0.235 NA
ATOM     26  C   LIG    1      -38.166  71.297  26.133  0.00  0.00    +0.121 A 
ATOM     27  C   LIG    1      -38.485  71.361  24.773  0.00  0.00    +0.005 A 
ATOM     28  C   LIG    1      -37.826  70.473  23.909  0.00  0.00    +0.041 A 
ATOM     29  C   LIG    1      -36.899  69.584  24.460  0.00  0.00    +0.110 A 
ATOM     30  N   LIG    1      -36.092  68.639  23.876  0.00  0.00    -0.213 NA
ATOM     31  C   LIG    1      -35.434  68.097  24.856  0.00  0.00    +0.195 A 
BRANCH  27  32
ATOM     32  C   LIG    1      -39.476  72.306  24.288  0.00  0.00    +0.021 A 
ATOM     33  C   LIG    1      -39.409  73.677  24.438  0.00  0.00    +0.116 A 
ATOM     34  N   LIG    1      -40.515  74.189  23.828  0.00  0.00    -0.274 N 
ATOM     35  C   LIG    1      -40.872  75.583  23.734  0.00  0.00    +0.172 C 
ATOM     36  N   LIG    1      -41.316  73.252  23.293  0.00  0.00    -0.179 NA
ATOM     37  C   LIG    1      -40.678  72.110  23.564  0.00  0.00    +0.143 A 
ENDBRANCH  27  32
BRANCH  31  38
ATOM     38  N   LIG    1      -34.498  67.128  24.727  0.00  0.00    -0.329 N 
ATOM     39  H   LIG    1      -34.898  66.230  24.467  0.00  0.00    +0.145 HD
ATOM     40  H   LIG    1      -33.669  67.323  24.181  0.00  0.00    +0.145 HD
ENDBRANCH  31  38
ENDBRANCH  22  23
ENDBRANCH   5  22
TORSDOF 10
ENDMDL
MODEL 9
REMARK VINA RESULT:      -5.9      9.230     12.027
REMARK  Name = pdb/CHEMBL3678284.pdb
REMARK                            x       y       z     vdW  Elec       q    Type
REMARK                         _______ _______ _______ _____ _____    ______ ____
ROOT
ATOM      1  C   LIG    1      -40.476  78.603  26.804  0.00  0.00    +0.162 A 
ATOM      2  C   LIG    1      -40.626  79.223  25.539  0.00  0.00    +0.162 A 
ATOM      3  C   LIG    1      -39.947  80.430  25.316  0.00  0.00    +0.050 A 
ATOM      4  C   LIG    1      -38.987  80.906  26.198  0.00  0.00    +0.009 A 
ATOM      5  C   LIG    1      -38.691  80.202  27.355  0.00  0.00    -0.024 A 
ATOM      6  C   LIG    1      -39.485  79.092  27.675  0.00  0.00    +0.054 A 
ENDROOT
BRANCH   1   8
ATOM      7  C   LIG    1      -42.526  77.885  27.825  0.00  0.00    +0.277 C 
ATOM      8  O   LIG    1      -41.294  77.552  27.161  0.00  0.00    -0.491 OA
ENDBRANCH   1   8
BRANCH   2   9
ATOM      9  O   LIG    1      -41.363  78.614  24.535  0.00  0.00    -0.484 OA
BRANCH   9  10
ATOM     10  C   LIG    1      -40.608  77.985  23.471  0.00  0.00    +0.264 C 
BRANCH  10  11
ATOM     11  C   LIG    1      -39.853  76.748  23.901  0.00  0.00    -0.010 A 
ATOM     12  C   LIG    1      -40.499  75.513  23.976  0.00  0.00    +0.008 A 
ATOM     13  C   LIG    1      -39.840  74.407  24.516  0.00  0.00    +0.015 A 
ATOM     14  C   LIG    1      -38.525  74.522  24.977  0.00  0.00    +0.016 A 
ATOM     15  C   LIG    1      -37.829  75.715  24.774  0.00  0.00    +0.015 A 
ATOM     16  C   LIG    1      -38.486  76.819  24.225  0.00  0.00    +0.008 A 
BRANCH  14  17
ATOM     17  S   LIG    1      -37.839  73.244  26.008  0.00  0.00    -0.016 S 
BRANCH  17  18
ATOM     18  C   LIG    1      -38.125  73.914  27.641  0.00  0.00    +0.448 C 
ATOM     19  F   LIG    1      -36.971  74.382  28.173  0.00  0.00    -0.160 F 
ATOM     20  F   LIG    1      -38.585  72.950  28.475  0.00  0.00    -0.160 F 
ATOM     21  F   LIG    1      -39.020  74.927  27.668  0.00  0.00    -0.160 F 
ENDBRANCH  17  18
ENDBRANCH  14  17
ENDBRANCH  10  11
ENDBRANCH   9  10
ENDBRANCH   2   9
BRANCH   5  22
ATOM     22  C   LIG    1      -37.603  80.624  28.306  0.00  0.00    +0.161 C 
BRANCH  22  23
ATOM     23  N   LIG    1      -36.251  80.250  27.931  0.00  0.00    -0.293 N 
ATOM     24  C   LIG    1      -35.592  79.098  28.284  0.00  0.00    +0.162 A 
ATOM     25  N   LIG    1      -36.112  77.981  28.829  0.00  0.00    -0.235 NA
ATOM     26  C   LIG    1      -35.176  77.026  29.055  0.00  0.00    +0.121 A 
ATOM     27  C   LIG    1      -33.801  77.140  28.827  0.00  0.00    +0.005 A 
ATOM     28  C   LIG    1      -33.333  78.334  28.260  0.00  0.00    +0.041 A 
ATOM     29  C   LIG    1      -34.265  79.332  27.961  0.00  0.00    +0.110 A 
ATOM     30  N   LIG    1      -34.116  80.569  27.385  0.00  0.00    -0.213 NA
ATOM     31  C   LIG    1      -35.310  81.078  27.351  0.00  0.00    +0.195 A 
BRANCH  27  32
ATOM     32  C   LIG    1      -32.899  76.058  29.184  0.00  0.00    +0.021 A 
ATOM     33  C   LIG    1      -33.149  74.715  28.984  0.00  0.00    +0.116 A 
ATOM     34  N   LIG    1      -32.051  74.044  29.435  0.00  0.00    -0.274 N 
ATOM     35  C   LIG    1      -31.861  72.615  29.431  0.00  0.00    +0.172 C 
ATOM     36  N   LIG    1      -31.096  74.849  29.930  0.00  0.00    -0.179 NA
ATOM     37  C   LIG    1      -31.608  76.072  29.768  0.00  0.00    +0.143 A 
ENDBRANCH  27  32
BRANCH  31  38
ATOM     38  N   LIG    1      -35.631  82.286  26.832  0.00  0.00    -0.329 N 
ATOM     39  H   LIG    1      -36.232  82.829  27.447  0.00  0.00    +0.145 HD
ATOM     40  H   LIG    1      -34.892  82.864  26.453  0.00  0.00    +0.145 HD
ENDBRANCH  31  38
ENDBRANCH  22  23
ENDBRANCH   5  22
TORSDOF 10
ENDMDL
