MODEL 1
REMARK VINA RESULT:      -6.7      0.000      0.000
REMARK  Name = pdb/CHEMBL3678297.pdb
REMARK                            x       y       z     vdW  Elec       q    Type
REMARK                         _______ _______ _______ _____ _____    ______ ____
ROOT
ATOM      1  C   LIG    1      -35.867  68.428  23.332  0.00  0.00    +0.162 A 
ATOM      2  C   LIG    1      -37.074  69.148  23.347  0.00  0.00    +0.162 A 
ATOM      3  C   LIG    1      -38.057  68.828  22.399  0.00  0.00    +0.050 A 
ATOM      4  C   LIG    1      -37.860  67.804  21.463  0.00  0.00    +0.009 A 
ATOM      5  C   LIG    1      -36.654  67.103  21.415  0.00  0.00    -0.021 A 
ATOM      6  C   LIG    1      -35.672  67.430  22.360  0.00  0.00    +0.055 A 
ENDROOT
BRANCH   1   8
ATOM      7  C   LIG    1      -34.899  67.957  25.463  0.00  0.00    +0.277 C 
ATOM      8  O   LIG    1      -34.905  68.721  24.264  0.00  0.00    -0.491 OA
ENDBRANCH   1   8
BRANCH   5   9
ATOM      9  C   LIG    1      -36.354  66.041  20.361  0.00  0.00    +0.119 C 
ATOM     10  C   LIG    1      -35.732  64.777  20.992  0.00  0.00    +0.036 C 
BRANCH   9  11
ATOM     11  N   LIG    1      -35.616  66.580  19.238  0.00  0.00    -0.290 N 
ATOM     12  C   LIG    1      -34.246  66.729  19.144  0.00  0.00    +0.162 A 
ATOM     13  N   LIG    1      -33.325  66.506  20.099  0.00  0.00    -0.235 NA
ATOM     14  C   LIG    1      -32.062  66.728  19.663  0.00  0.00    +0.121 A 
ATOM     15  C   LIG    1      -31.686  67.155  18.386  0.00  0.00    +0.005 A 
ATOM     16  C   LIG    1      -32.698  67.376  17.444  0.00  0.00    +0.041 A 
ATOM     17  C   LIG    1      -34.019  67.159  17.846  0.00  0.00    +0.110 A 
ATOM     18  N   LIG    1      -35.202  67.304  17.166  0.00  0.00    -0.213 NA
ATOM     19  C   LIG    1      -36.133  66.987  18.019  0.00  0.00    +0.196 A 
BRANCH  15  20
ATOM     20  C   LIG    1      -30.295  67.363  18.044  0.00  0.00    +0.021 A 
ATOM     21  C   LIG    1      -29.578  68.512  18.310  0.00  0.00    +0.116 A 
ATOM     22  N   LIG    1      -28.322  68.304  17.818  0.00  0.00    -0.274 N 
ATOM     23  C   LIG    1      -27.226  69.240  17.868  0.00  0.00    +0.172 C 
ATOM     24  N   LIG    1      -28.163  67.098  17.251  0.00  0.00    -0.179 NA
ATOM     25  C   LIG    1      -29.364  66.528  17.383  0.00  0.00    +0.143 A 
ENDBRANCH  15  20
BRANCH  19  26
ATOM     26  N   LIG    1      -37.455  67.055  17.761  0.00  0.00    -0.329 N 
ATOM     27  H   LIG    1      -37.989  67.144  18.625  0.00  0.00    +0.145 HD
ATOM     28  H   LIG    1      -37.847  66.304  17.206  0.00  0.00    +0.145 HD
ENDBRANCH  19  26
ENDBRANCH   9  11
ENDBRANCH   5   9
BRANCH   2  29
ATOM     29  O   LIG    1      -37.447  70.160  24.204  0.00  0.00    -0.484 OA
BRANCH  29  30
ATOM     30  C   LIG    1      -38.844  70.344  24.434  0.00  0.00    +0.264 C 
BRANCH  30  31
ATOM     31  C   LIG    1      -39.202  71.808  24.364  0.00  0.00    -0.010 A 
ATOM     32  C   LIG    1      -40.432  72.206  23.825  0.00  0.00    +0.007 A 
ATOM     33  C   LIG    1      -40.762  73.557  23.738  0.00  0.00    +0.013 A 
ATOM     34  C   LIG    1      -39.868  74.539  24.192  0.00  0.00    +0.055 A 
ATOM     35  C   LIG    1      -38.653  74.138  24.766  0.00  0.00    +0.013 A 
ATOM     36  C   LIG    1      -38.317  72.785  24.840  0.00  0.00    +0.007 A 
BRANCH  34  37
ATOM     37  C   LIG    1      -40.205  75.998  24.016  0.00  0.00    +0.417 C 
ATOM     38  F   LIG    1      -39.104  76.773  23.808  0.00  0.00    -0.166 F 
ATOM     39  F   LIG    1      -40.824  76.519  25.113  0.00  0.00    -0.166 F 
ATOM     40  F   LIG    1      -41.039  76.245  22.967  0.00  0.00    -0.166 F 
ENDBRANCH  34  37
ENDBRANCH  30  31
ENDBRANCH  29  30
ENDBRANCH   2  29
TORSDOF 9
ENDMDL
MODEL 2
REMARK VINA RESULT:      -6.5     18.454     21.742
REMARK  Name = pdb/CHEMBL3678297.pdb
REMARK                            x       y       z     vdW  Elec       q    Type
REMARK                         _______ _______ _______ _____ _____    ______ ____
ROOT
ATOM      1  C   LIG    1      -18.044  77.140  33.566  0.00  0.00    +0.162 A 
ATOM      2  C   LIG    1      -18.291  77.601  32.260  0.00  0.00    +0.162 A 
ATOM      3  C   LIG    1      -19.057  78.764  32.094  0.00  0.00    +0.050 A 
ATOM      4  C   LIG    1      -19.557  79.471  33.195  0.00  0.00    +0.009 A 
ATOM      5  C   LIG    1      -19.348  79.007  34.495  0.00  0.00    -0.021 A 
ATOM      6  C   LIG    1      -18.588  77.841  34.657  0.00  0.00    +0.055 A 
ENDROOT
BRANCH   1   8
ATOM      7  C   LIG    1      -17.940  74.847  34.220  0.00  0.00    +0.277 C 
ATOM      8  O   LIG    1      -17.284  76.013  33.742  0.00  0.00    -0.491 OA
ENDBRANCH   1   8
BRANCH   5   9
ATOM      9  C   LIG    1      -19.944  79.689  35.724  0.00  0.00    +0.119 C 
ATOM     10  C   LIG    1      -19.642  78.897  37.013  0.00  0.00    +0.036 C 
BRANCH   9  11
ATOM     11  N   LIG    1      -21.341  80.026  35.537  0.00  0.00    -0.290 N 
ATOM     12  C   LIG    1      -22.374  79.150  35.268  0.00  0.00    +0.162 A 
ATOM     13  N   LIG    1      -22.293  77.830  35.024  0.00  0.00    -0.235 NA
ATOM     14  C   LIG    1      -23.507  77.265  34.823  0.00  0.00    +0.121 A 
ATOM     15  C   LIG    1      -24.742  77.919  34.838  0.00  0.00    +0.005 A 
ATOM     16  C   LIG    1      -24.750  79.296  35.091  0.00  0.00    +0.041 A 
ATOM     17  C   LIG    1      -23.522  79.926  35.306  0.00  0.00    +0.110 A 
ATOM     18  N   LIG    1      -23.215  81.240  35.556  0.00  0.00    -0.213 NA
ATOM     19  C   LIG    1      -21.918  81.279  35.657  0.00  0.00    +0.196 A 
BRANCH  15  20
ATOM     20  C   LIG    1      -25.976  77.200  34.601  0.00  0.00    +0.021 A 
ATOM     21  C   LIG    1      -26.060  75.928  34.071  0.00  0.00    +0.116 A 
ATOM     22  N   LIG    1      -27.389  75.628  34.002  0.00  0.00    -0.274 N 
ATOM     23  C   LIG    1      -27.956  74.397  33.507  0.00  0.00    +0.172 C 
ATOM     24  N   LIG    1      -28.184  76.612  34.451  0.00  0.00    -0.179 NA
ATOM     25  C   LIG    1      -27.325  77.570  34.810  0.00  0.00    +0.143 A 
ENDBRANCH  15  20
BRANCH  19  26
ATOM     26  N   LIG    1      -21.205  82.409  35.845  0.00  0.00    -0.329 N 
ATOM     27  H   LIG    1      -20.506  82.279  36.576  0.00  0.00    +0.145 HD
ATOM     28  H   LIG    1      -21.733  83.251  36.039  0.00  0.00    +0.145 HD
ENDBRANCH  19  26
ENDBRANCH   9  11
ENDBRANCH   5   9
BRANCH   2  29
ATOM     29  O   LIG    1      -17.859  77.052  31.073  0.00  0.00    -0.484 OA
BRANCH  29  30
ATOM     30  C   LIG    1      -18.516  75.868  30.621  0.00  0.00    +0.264 C 
BRANCH  30  31
ATOM     31  C   LIG    1      -20.013  76.063  30.621  0.00  0.00    -0.010 A 
ATOM     32  C   LIG    1      -20.625  76.806  29.604  0.00  0.00    +0.007 A 
ATOM     33  C   LIG    1      -22.004  77.008  29.608  0.00  0.00    +0.013 A 
ATOM     34  C   LIG    1      -22.800  76.467  30.629  0.00  0.00    +0.055 A 
ATOM     35  C   LIG    1      -22.191  75.691  31.626  0.00  0.00    +0.013 A 
ATOM     36  C   LIG    1      -20.808  75.501  31.629  0.00  0.00    +0.007 A 
BRANCH  34  37
ATOM     37  C   LIG    1      -24.278  76.763  30.663  0.00  0.00    +0.417 C 
ATOM     38  F   LIG    1      -24.751  77.227  29.472  0.00  0.00    -0.166 F 
ATOM     39  F   LIG    1      -24.590  77.720  31.583  0.00  0.00    -0.166 F 
ATOM     40  F   LIG    1      -25.047  75.683  30.976  0.00  0.00    -0.166 F 
ENDBRANCH  34  37
ENDBRANCH  30  31
ENDBRANCH  29  30
ENDBRANCH   2  29
TORSDOF 9
ENDMDL
MODEL 3
REMARK VINA RESULT:      -6.4      6.510      9.361
REMARK  Name = pdb/CHEMBL3678297.pdb
REMARK                            x       y       z     vdW  Elec       q    Type
REMARK                         _______ _______ _______ _____ _____    ______ ____
ROOT
ATOM      1  C   LIG    1      -35.026  69.151  25.556  0.00  0.00    +0.162 A 
ATOM      2  C   LIG    1      -36.113  70.043  25.531  0.00  0.00    +0.162 A 
ATOM      3  C   LIG    1      -36.635  70.497  26.750  0.00  0.00    +0.050 A 
ATOM      4  C   LIG    1      -36.085  70.095  27.974  0.00  0.00    +0.009 A 
ATOM      5  C   LIG    1      -35.027  69.185  28.016  0.00  0.00    -0.021 A 
ATOM      6  C   LIG    1      -34.512  68.728  26.796  0.00  0.00    +0.055 A 
ENDROOT
BRANCH   1   8
ATOM      7  C   LIG    1      -35.034  67.520  23.814  0.00  0.00    +0.277 C 
ATOM      8  O   LIG    1      -34.496  68.712  24.371  0.00  0.00    -0.491 OA
ENDBRANCH   1   8
BRANCH   5   9
ATOM      9  C   LIG    1      -34.449  68.646  29.322  0.00  0.00    +0.119 C 
ATOM     10  C   LIG    1      -35.454  68.780  30.485  0.00  0.00    +0.036 C 
BRANCH   9  11
ATOM     11  N   LIG    1      -33.132  69.184  29.598  0.00  0.00    -0.290 N 
ATOM     12  C   LIG    1      -32.791  70.518  29.707  0.00  0.00    +0.162 A 
ATOM     13  N   LIG    1      -33.572  71.590  29.484  0.00  0.00    -0.235 NA
ATOM     14  C   LIG    1      -32.924  72.758  29.709  0.00  0.00    +0.121 A 
ATOM     15  C   LIG    1      -31.595  72.908  30.114  0.00  0.00    +0.005 A 
ATOM     16  C   LIG    1      -30.838  71.749  30.321  0.00  0.00    +0.041 A 
ATOM     17  C   LIG    1      -31.461  70.518  30.103  0.00  0.00    +0.110 A 
ATOM     18  N   LIG    1      -30.983  69.236  30.204  0.00  0.00    -0.213 NA
ATOM     19  C   LIG    1      -31.979  68.467  29.869  0.00  0.00    +0.196 A 
BRANCH  15  20
ATOM     20  C   LIG    1      -31.015  74.220  30.317  0.00  0.00    +0.021 A 
ATOM     21  C   LIG    1      -30.189  74.565  31.367  0.00  0.00    +0.116 A 
ATOM     22  N   LIG    1      -29.878  75.882  31.193  0.00  0.00    -0.274 N 
ATOM     23  C   LIG    1      -29.037  76.676  32.055  0.00  0.00    +0.172 C 
ATOM     24  N   LIG    1      -30.438  76.425  30.101  0.00  0.00    -0.179 NA
ATOM     25  C   LIG    1      -31.134  75.415  29.571  0.00  0.00    +0.143 A 
ENDBRANCH  15  20
BRANCH  19  26
ATOM     26  N   LIG    1      -31.905  67.122  29.782  0.00  0.00    -0.329 N 
ATOM     27  H   LIG    1      -30.950  66.801  29.941  0.00  0.00    +0.145 HD
ATOM     28  H   LIG    1      -32.258  66.704  28.930  0.00  0.00    +0.145 HD
ENDBRANCH  19  26
ENDBRANCH   9  11
ENDBRANCH   5   9
BRANCH   2  29
ATOM     29  O   LIG    1      -36.758  70.560  24.429  0.00  0.00    -0.484 OA
BRANCH  29  30
ATOM     30  C   LIG    1      -38.158  70.307  24.311  0.00  0.00    +0.264 C 
BRANCH  30  31
ATOM     31  C   LIG    1      -38.923  71.605  24.211  0.00  0.00    -0.010 A 
ATOM     32  C   LIG    1      -40.216  71.619  23.672  0.00  0.00    +0.007 A 
ATOM     33  C   LIG    1      -40.920  72.816  23.557  0.00  0.00    +0.013 A 
ATOM     34  C   LIG    1      -40.346  74.023  23.982  0.00  0.00    +0.055 A 
ATOM     35  C   LIG    1      -39.067  74.003  24.556  0.00  0.00    +0.013 A 
ATOM     36  C   LIG    1      -38.356  72.806  24.657  0.00  0.00    +0.007 A 
BRANCH  34  37
ATOM     37  C   LIG    1      -41.089  75.319  23.775  0.00  0.00    +0.417 C 
ATOM     38  F   LIG    1      -41.743  75.737  24.894  0.00  0.00    -0.166 F 
ATOM     39  F   LIG    1      -42.042  75.217  22.805  0.00  0.00    -0.166 F 
ATOM     40  F   LIG    1      -40.289  76.356  23.400  0.00  0.00    -0.166 F 
ENDBRANCH  34  37
ENDBRANCH  30  31
ENDBRANCH  29  30
ENDBRANCH   2  29
TORSDOF 9
ENDMDL
MODEL 4
REMARK VINA RESULT:      -6.4      3.867      5.795
REMARK  Name = pdb/CHEMBL3678297.pdb
REMARK                            x       y       z     vdW  Elec       q    Type
REMARK                         _______ _______ _______ _____ _____    ______ ____
ROOT
ATOM      1  C   LIG    1      -39.430  72.591  24.212  0.00  0.00    +0.162 A 
ATOM      2  C   LIG    1      -38.218  72.947  24.829  0.00  0.00    +0.162 A 
ATOM      3  C   LIG    1      -37.246  71.954  25.019  0.00  0.00    +0.050 A 
ATOM      4  C   LIG    1      -37.457  70.637  24.592  0.00  0.00    +0.009 A 
ATOM      5  C   LIG    1      -38.668  70.261  24.008  0.00  0.00    -0.021 A 
ATOM      6  C   LIG    1      -39.640  71.255  23.826  0.00  0.00    +0.055 A 
ENDROOT
BRANCH   1   8
ATOM      7  C   LIG    1      -41.618  73.148  23.436  0.00  0.00    +0.277 C 
ATOM      8  O   LIG    1      -40.382  73.556  24.006  0.00  0.00    -0.491 OA
ENDBRANCH   1   8
BRANCH   5   9
ATOM      9  C   LIG    1      -38.984  68.823  23.606  0.00  0.00    +0.119 C 
ATOM     10  C   LIG    1      -38.583  67.825  24.711  0.00  0.00    +0.036 C 
BRANCH   9  11
ATOM     11  N   LIG    1      -38.476  68.501  22.288  0.00  0.00    -0.290 N 
ATOM     12  C   LIG    1      -37.252  67.934  21.991  0.00  0.00    +0.162 A 
ATOM     13  N   LIG    1      -36.243  67.658  22.838  0.00  0.00    -0.235 NA
ATOM     14  C   LIG    1      -35.189  67.079  22.216  0.00  0.00    +0.121 A 
ATOM     15  C   LIG    1      -35.086  66.784  20.853  0.00  0.00    +0.005 A 
ATOM     16  C   LIG    1      -36.171  67.105  20.030  0.00  0.00    +0.041 A 
ATOM     17  C   LIG    1      -37.284  67.705  20.624  0.00  0.00    +0.110 A 
ATOM     18  N   LIG    1      -38.467  68.141  20.084  0.00  0.00    -0.213 NA
ATOM     19  C   LIG    1      -39.141  68.637  21.082  0.00  0.00    +0.196 A 
BRANCH  15  20
ATOM     20  C   LIG    1      -33.896  66.165  20.307  0.00  0.00    +0.021 A 
ATOM     21  C   LIG    1      -32.679  66.796  20.146  0.00  0.00    +0.116 A 
ATOM     22  N   LIG    1      -31.838  65.874  19.594  0.00  0.00    -0.274 N 
ATOM     23  C   LIG    1      -30.456  66.089  19.245  0.00  0.00    +0.172 C 
ATOM     24  N   LIG    1      -32.417  64.680  19.385  0.00  0.00    -0.179 NA
ATOM     25  C   LIG    1      -33.669  64.859  19.813  0.00  0.00    +0.143 A 
ENDBRANCH  15  20
BRANCH  19  26
ATOM     26  N   LIG    1      -40.348  69.229  20.964  0.00  0.00    -0.329 N 
ATOM     27  H   LIG    1      -40.338  70.158  21.385  0.00  0.00    +0.145 HD
ATOM     28  H   LIG    1      -41.143  68.712  21.321  0.00  0.00    +0.145 HD
ENDBRANCH  19  26
ENDBRANCH   9  11
ENDBRANCH   5   9
BRANCH   2  29
ATOM     29  O   LIG    1      -37.832  74.189  25.284  0.00  0.00    -0.484 OA
BRANCH  29  30
ATOM     30  C   LIG    1      -37.838  74.400  26.696  0.00  0.00    +0.264 C 
BRANCH  30  31
ATOM     31  C   LIG    1      -36.478  74.857  27.167  0.00  0.00    -0.010 A 
ATOM     32  C   LIG    1      -35.651  73.980  27.880  0.00  0.00    +0.007 A 
ATOM     33  C   LIG    1      -34.403  74.400  28.337  0.00  0.00    +0.013 A 
ATOM     34  C   LIG    1      -33.956  75.707  28.087  0.00  0.00    +0.055 A 
ATOM     35  C   LIG    1      -34.770  76.571  27.340  0.00  0.00    +0.013 A 
ATOM     36  C   LIG    1      -36.025  76.154  26.895  0.00  0.00    +0.007 A 
BRANCH  34  37
ATOM     37  C   LIG    1      -32.640  76.170  28.658  0.00  0.00    +0.417 C 
ATOM     38  F   LIG    1      -31.855  75.140  29.078  0.00  0.00    -0.166 F 
ATOM     39  F   LIG    1      -32.807  76.976  29.746  0.00  0.00    -0.166 F 
ATOM     40  F   LIG    1      -31.883  76.885  27.780  0.00  0.00    -0.166 F 
ENDBRANCH  34  37
ENDBRANCH  30  31
ENDBRANCH  29  30
ENDBRANCH   2  29
TORSDOF 9
ENDMDL
MODEL 5
REMARK VINA RESULT:      -6.3      1.884      3.004
REMARK  Name = pdb/CHEMBL3678297.pdb
REMARK                            x       y       z     vdW  Elec       q    Type
REMARK                         _______ _______ _______ _____ _____    ______ ____
ROOT
ATOM      1  C   LIG    1      -40.207  68.136  21.169  0.00  0.00    +0.162 A 
ATOM      2  C   LIG    1      -39.600  69.161  21.916  0.00  0.00    +0.162 A 
ATOM      3  C   LIG    1      -38.228  69.394  21.743  0.00  0.00    +0.050 A 
ATOM      4  C   LIG    1      -37.470  68.642  20.836  0.00  0.00    +0.009 A 
ATOM      5  C   LIG    1      -38.051  67.600  20.112  0.00  0.00    -0.021 A 
ATOM      6  C   LIG    1      -39.421  67.366  20.292  0.00  0.00    +0.055 A 
ENDROOT
BRANCH   1   8
ATOM      7  C   LIG    1      -41.978  66.560  21.438  0.00  0.00    +0.277 C 
ATOM      8  O   LIG    1      -41.550  67.910  21.317  0.00  0.00    -0.491 OA
ENDBRANCH   1   8
BRANCH   5   9
ATOM      9  C   LIG    1      -37.254  66.693  19.178  0.00  0.00    +0.119 C 
ATOM     10  C   LIG    1      -38.123  65.545  18.625  0.00  0.00    +0.036 C 
BRANCH   9  11
ATOM     11  N   LIG    1      -36.000  66.270  19.768  0.00  0.00    -0.290 N 
ATOM     12  C   LIG    1      -34.730  66.583  19.324  0.00  0.00    +0.162 A 
ATOM     13  N   LIG    1      -34.389  67.252  18.208  0.00  0.00    -0.235 NA
ATOM     14  C   LIG    1      -33.049  67.408  18.087  0.00  0.00    +0.121 A 
ATOM     15  C   LIG    1      -32.074  66.942  18.973  0.00  0.00    +0.005 A 
ATOM     16  C   LIG    1      -32.501  66.247  20.111  0.00  0.00    +0.041 A 
ATOM     17  C   LIG    1      -33.875  66.060  20.281  0.00  0.00    +0.110 A 
ATOM     18  N   LIG    1      -34.581  65.417  21.267  0.00  0.00    -0.213 NA
ATOM     19  C   LIG    1      -35.832  65.527  20.924  0.00  0.00    +0.196 A 
BRANCH  15  20
ATOM     20  C   LIG    1      -30.665  67.170  18.727  0.00  0.00    +0.021 A 
ATOM     21  C   LIG    1      -29.654  66.284  19.043  0.00  0.00    +0.116 A 
ATOM     22  N   LIG    1      -28.488  66.882  18.661  0.00  0.00    -0.274 N 
ATOM     23  C   LIG    1      -27.165  66.324  18.800  0.00  0.00    +0.172 C 
ATOM     24  N   LIG    1      -28.662  68.095  18.115  0.00  0.00    -0.179 NA
ATOM     25  C   LIG    1      -29.986  68.273  18.160  0.00  0.00    +0.143 A 
ENDBRANCH  15  20
BRANCH  19  26
ATOM     26  N   LIG    1      -36.857  64.974  21.605  0.00  0.00    -0.329 N 
ATOM     27  H   LIG    1      -37.413  65.692  22.070  0.00  0.00    +0.145 HD
ATOM     28  H   LIG    1      -36.619  64.254  22.277  0.00  0.00    +0.145 HD
ENDBRANCH  19  26
ENDBRANCH   9  11
ENDBRANCH   5   9
BRANCH   2  29
ATOM     29  O   LIG    1      -40.191  70.010  22.825  0.00  0.00    -0.484 OA
BRANCH  29  30
ATOM     30  C   LIG    1      -39.434  70.359  23.984  0.00  0.00    +0.264 C 
BRANCH  30  31
ATOM     31  C   LIG    1      -39.392  71.858  24.156  0.00  0.00    -0.010 A 
ATOM     32  C   LIG    1      -38.268  72.470  24.725  0.00  0.00    +0.007 A 
ATOM     33  C   LIG    1      -38.230  73.851  24.906  0.00  0.00    +0.013 A 
ATOM     34  C   LIG    1      -39.317  74.650  24.519  0.00  0.00    +0.055 A 
ATOM     35  C   LIG    1      -40.426  74.041  23.914  0.00  0.00    +0.013 A 
ATOM     36  C   LIG    1      -40.469  72.656  23.746  0.00  0.00    +0.007 A 
BRANCH  34  37
ATOM     37  C   LIG    1      -39.294  76.131  24.797  0.00  0.00    +0.417 C 
ATOM     38  F   LIG    1      -39.242  76.881  23.660  0.00  0.00    -0.166 F 
ATOM     39  F   LIG    1      -38.208  76.500  25.534  0.00  0.00    -0.166 F 
ATOM     40  F   LIG    1      -40.380  76.576  25.489  0.00  0.00    -0.166 F 
ENDBRANCH  34  37
ENDBRANCH  30  31
ENDBRANCH  29  30
ENDBRANCH   2  29
TORSDOF 9
ENDMDL
MODEL 6
REMARK VINA RESULT:      -6.2      4.226      7.276
REMARK  Name = pdb/CHEMBL3678297.pdb
REMARK                            x       y       z     vdW  Elec       q    Type
REMARK                         _______ _______ _______ _____ _____    ______ ____
ROOT
ATOM      1  C   LIG    1      -40.400  74.726  23.909  0.00  0.00    +0.162 A 
ATOM      2  C   LIG    1      -39.175  74.951  24.563  0.00  0.00    +0.162 A 
ATOM      3  C   LIG    1      -38.461  73.845  25.046  0.00  0.00    +0.050 A 
ATOM      4  C   LIG    1      -38.935  72.538  24.873  0.00  0.00    +0.009 A 
ATOM      5  C   LIG    1      -40.165  72.302  24.256  0.00  0.00    -0.021 A 
ATOM      6  C   LIG    1      -40.879  73.409  23.780  0.00  0.00    +0.055 A 
ENDROOT
BRANCH   1   8
ATOM      7  C   LIG    1      -42.324  76.130  24.058  0.00  0.00    +0.277 C 
ATOM      8  O   LIG    1      -41.100  75.797  23.418  0.00  0.00    -0.491 OA
ENDBRANCH   1   8
BRANCH   5   9
ATOM      9  C   LIG    1      -40.769  70.907  24.120  0.00  0.00    +0.119 C 
ATOM     10  C   LIG    1      -40.622  70.096  25.424  0.00  0.00    +0.036 C 
BRANCH   9  11
ATOM     11  N   LIG    1      -40.304  70.224  22.930  0.00  0.00    -0.290 N 
ATOM     12  C   LIG    1      -39.093  69.580  22.767  0.00  0.00    +0.162 A 
ATOM     13  N   LIG    1      -38.060  69.536  23.627  0.00  0.00    -0.235 NA
ATOM     14  C   LIG    1      -37.030  68.791  23.161  0.00  0.00    +0.121 A 
ATOM     15  C   LIG    1      -36.971  68.128  21.931  0.00  0.00    +0.005 A 
ATOM     16  C   LIG    1      -38.080  68.224  21.082  0.00  0.00    +0.041 A 
ATOM     17  C   LIG    1      -39.170  68.981  21.518  0.00  0.00    +0.110 A 
ATOM     18  N   LIG    1      -40.368  69.267  20.913  0.00  0.00    -0.213 NA
ATOM     19  C   LIG    1      -41.007  70.030  21.753  0.00  0.00    +0.196 A 
BRANCH  15  20
ATOM     20  C   LIG    1      -35.803  67.365  21.545  0.00  0.00    +0.021 A 
ATOM     21  C   LIG    1      -35.643  66.725  20.333  0.00  0.00    +0.116 A 
ATOM     22  N   LIG    1      -34.421  66.118  20.378  0.00  0.00    -0.274 N 
ATOM     23  C   LIG    1      -33.828  65.328  19.327  0.00  0.00    +0.172 C 
ATOM     24  N   LIG    1      -33.767  66.318  21.533  0.00  0.00    -0.179 NA
ATOM     25  C   LIG    1      -34.610  67.071  22.245  0.00  0.00    +0.143 A 
ENDBRANCH  15  20
BRANCH  19  26
ATOM     26  N   LIG    1      -42.214  70.583  21.510  0.00  0.00    -0.329 N 
ATOM     27  H   LIG    1      -42.499  71.183  22.284  0.00  0.00    +0.145 HD
ATOM     28  H   LIG    1      -42.968  69.944  21.291  0.00  0.00    +0.145 HD
ENDBRANCH  19  26
ENDBRANCH   9  11
ENDBRANCH   5   9
BRANCH   2  29
ATOM     29  O   LIG    1      -38.549  76.155  24.797  0.00  0.00    -0.484 OA
BRANCH  29  30
ATOM     30  C   LIG    1      -38.847  76.821  26.024  0.00  0.00    +0.264 C 
BRANCH  30  31
ATOM     31  C   LIG    1      -37.575  77.255  26.712  0.00  0.00    -0.010 A 
ATOM     32  C   LIG    1      -36.471  76.394  26.755  0.00  0.00    +0.007 A 
ATOM     33  C   LIG    1      -35.301  76.778  27.407  0.00  0.00    +0.013 A 
ATOM     34  C   LIG    1      -35.210  78.034  28.026  0.00  0.00    +0.055 A 
ATOM     35  C   LIG    1      -36.303  78.909  27.950  0.00  0.00    +0.013 A 
ATOM     36  C   LIG    1      -37.480  78.518  27.309  0.00  0.00    +0.007 A 
BRANCH  34  37
ATOM     37  C   LIG    1      -33.967  78.400  28.796  0.00  0.00    +0.417 C 
ATOM     38  F   LIG    1      -33.336  77.316  29.328  0.00  0.00    -0.166 F 
ATOM     39  F   LIG    1      -34.237  79.225  29.848  0.00  0.00    -0.166 F 
ATOM     40  F   LIG    1      -33.030  79.049  28.049  0.00  0.00    -0.166 F 
ENDBRANCH  34  37
ENDBRANCH  30  31
ENDBRANCH  29  30
ENDBRANCH   2  29
TORSDOF 9
ENDMDL
MODEL 7
REMARK VINA RESULT:      -6.2      9.930     14.162
REMARK  Name = pdb/CHEMBL3678297.pdb
REMARK                            x       y       z     vdW  Elec       q    Type
REMARK                         _______ _______ _______ _____ _____    ______ ____
ROOT
ATOM      1  C   LIG    1      -39.413  77.770  27.585  0.00  0.00    +0.162 A 
ATOM      2  C   LIG    1      -38.281  76.991  27.288  0.00  0.00    +0.162 A 
ATOM      3  C   LIG    1      -37.019  77.602  27.325  0.00  0.00    +0.050 A 
ATOM      4  C   LIG    1      -36.872  78.952  27.666  0.00  0.00    +0.009 A 
ATOM      5  C   LIG    1      -37.989  79.746  27.930  0.00  0.00    -0.021 A 
ATOM      6  C   LIG    1      -39.249  79.135  27.886  0.00  0.00    +0.055 A 
ENDROOT
BRANCH   1   8
ATOM      7  C   LIG    1      -41.549  77.572  26.539  0.00  0.00    +0.277 C 
ATOM      8  O   LIG    1      -40.650  77.181  27.568  0.00  0.00    -0.491 OA
ENDBRANCH   1   8
BRANCH   5   9
ATOM      9  C   LIG    1      -37.894  81.242  28.219  0.00  0.00    +0.119 C 
ATOM     10  C   LIG    1      -39.182  81.775  28.881  0.00  0.00    +0.036 C 
BRANCH   9  11
ATOM     11  N   LIG    1      -37.455  81.994  27.062  0.00  0.00    -0.290 N 
ATOM     12  C   LIG    1      -38.177  82.233  25.909  0.00  0.00    +0.162 A 
ATOM     13  N   LIG    1      -39.384  81.742  25.575  0.00  0.00    -0.235 NA
ATOM     14  C   LIG    1      -39.818  82.201  24.378  0.00  0.00    +0.121 A 
ATOM     15  C   LIG    1      -39.136  83.076  23.525  0.00  0.00    +0.005 A 
ATOM     16  C   LIG    1      -37.880  83.541  23.934  0.00  0.00    +0.041 A 
ATOM     17  C   LIG    1      -37.389  83.097  25.163  0.00  0.00    +0.110 A 
ATOM     18  N   LIG    1      -36.208  83.360  25.810  0.00  0.00    -0.213 NA
ATOM     19  C   LIG    1      -36.256  82.672  26.914  0.00  0.00    +0.196 A 
BRANCH  15  20
ATOM     20  C   LIG    1      -39.707  83.489  22.261  0.00  0.00    +0.021 A 
ATOM     21  C   LIG    1      -40.874  82.988  21.719  0.00  0.00    +0.116 A 
ATOM     22  N   LIG    1      -41.049  83.628  20.527  0.00  0.00    -0.274 N 
ATOM     23  C   LIG    1      -42.140  83.422  19.606  0.00  0.00    +0.172 C 
ATOM     24  N   LIG    1      -40.082  84.517  20.249  0.00  0.00    -0.179 NA
ATOM     25  C   LIG    1      -39.263  84.428  21.301  0.00  0.00    +0.143 A 
ENDBRANCH  15  20
BRANCH  19  26
ATOM     26  N   LIG    1      -35.254  82.609  27.814  0.00  0.00    -0.329 N 
ATOM     27  H   LIG    1      -34.346  82.644  27.349  0.00  0.00    +0.145 HD
ATOM     28  H   LIG    1      -35.267  81.824  28.453  0.00  0.00    +0.145 HD
ENDBRANCH  19  26
ENDBRANCH   9  11
ENDBRANCH   5   9
BRANCH   2  29
ATOM     29  O   LIG    1      -38.235  75.653  26.962  0.00  0.00    -0.484 OA
BRANCH  29  30
ATOM     30  C   LIG    1      -37.795  75.315  25.647  0.00  0.00    +0.264 C 
BRANCH  30  31
ATOM     31  C   LIG    1      -38.824  74.458  24.950  0.00  0.00    -0.010 A 
ATOM     32  C   LIG    1      -38.644  73.071  24.868  0.00  0.00    +0.007 A 
ATOM     33  C   LIG    1      -39.579  72.275  24.209  0.00  0.00    +0.013 A 
ATOM     34  C   LIG    1      -40.715  72.851  23.619  0.00  0.00    +0.055 A 
ATOM     35  C   LIG    1      -40.912  74.234  23.735  0.00  0.00    +0.013 A 
ATOM     36  C   LIG    1      -39.968  75.033  24.383  0.00  0.00    +0.007 A 
BRANCH  34  37
ATOM     37  C   LIG    1      -41.673  71.987  22.840  0.00  0.00    +0.417 C 
ATOM     38  F   LIG    1      -41.057  70.943  22.219  0.00  0.00    -0.166 F 
ATOM     39  F   LIG    1      -42.308  72.683  21.853  0.00  0.00    -0.166 F 
ATOM     40  F   LIG    1      -42.661  71.439  23.601  0.00  0.00    -0.166 F 
ENDBRANCH  34  37
ENDBRANCH  30  31
ENDBRANCH  29  30
ENDBRANCH   2  29
TORSDOF 9
ENDMDL
MODEL 8
REMARK VINA RESULT:      -6.1     14.975     18.054
REMARK  Name = pdb/CHEMBL3678297.pdb
REMARK                            x       y       z     vdW  Elec       q    Type
REMARK                         _______ _______ _______ _____ _____    ______ ____
ROOT
ATOM      1  C   LIG    1      -26.448  78.501  10.998  0.00  0.00    +0.162 A 
ATOM      2  C   LIG    1      -26.366  77.754  12.187  0.00  0.00    +0.162 A 
ATOM      3  C   LIG    1      -27.408  76.868  12.495  0.00  0.00    +0.050 A 
ATOM      4  C   LIG    1      -28.505  76.707  11.639  0.00  0.00    +0.009 A 
ATOM      5  C   LIG    1      -28.617  77.466  10.472  0.00  0.00    -0.021 A 
ATOM      6  C   LIG    1      -27.577  78.355  10.171  0.00  0.00    +0.055 A 
ENDROOT
BRANCH   1   8
ATOM      7  C   LIG    1      -24.542  78.965   9.640  0.00  0.00    +0.277 C 
ATOM      8  O   LIG    1      -25.428  79.359  10.678  0.00  0.00    -0.491 OA
ENDBRANCH   1   8
BRANCH   5   9
ATOM      9  C   LIG    1      -29.831  77.395   9.550  0.00  0.00    +0.119 C 
ATOM     10  C   LIG    1      -29.513  77.958   8.150  0.00  0.00    +0.036 C 
BRANCH   9  11
ATOM     11  N   LIG    1      -31.018  77.950  10.168  0.00  0.00    -0.290 N 
ATOM     12  C   LIG    1      -31.349  79.287  10.269  0.00  0.00    +0.162 A 
ATOM     13  N   LIG    1      -30.605  80.350   9.913  0.00  0.00    -0.235 NA
ATOM     14  C   LIG    1      -31.245  81.524  10.125  0.00  0.00    +0.121 A 
ATOM     15  C   LIG    1      -32.525  81.690  10.662  0.00  0.00    +0.005 A 
ATOM     16  C   LIG    1      -33.240  80.539  11.017  0.00  0.00    +0.041 A 
ATOM     17  C   LIG    1      -32.623  79.302  10.817  0.00  0.00    +0.110 A 
ATOM     18  N   LIG    1      -33.057  78.027  11.077  0.00  0.00    -0.213 NA
ATOM     19  C   LIG    1      -32.078  77.247  10.716  0.00  0.00    +0.196 A 
BRANCH  15  20
ATOM     20  C   LIG    1      -33.098  83.006  10.845  0.00  0.00    +0.021 A 
ATOM     21  C   LIG    1      -34.406  83.255  11.209  0.00  0.00    +0.116 A 
ATOM     22  N   LIG    1      -34.539  84.613  11.259  0.00  0.00    -0.274 N 
ATOM     23  C   LIG    1      -35.741  85.336  11.596  0.00  0.00    +0.172 C 
ATOM     24  N   LIG    1      -33.409  85.272  10.956  0.00  0.00    -0.179 NA
ATOM     25  C   LIG    1      -32.535  84.295  10.698  0.00  0.00    +0.143 A 
ENDBRANCH  15  20
BRANCH  19  26
ATOM     26  N   LIG    1      -32.081  75.906  10.863  0.00  0.00    -0.329 N 
ATOM     27  H   LIG    1      -32.578  75.458  10.093  0.00  0.00    +0.145 HD
ATOM     28  H   LIG    1      -32.440  75.548  11.740  0.00  0.00    +0.145 HD
ENDBRANCH  19  26
ENDBRANCH   9  11
ENDBRANCH   5   9
BRANCH   2  29
ATOM     29  O   LIG    1      -25.358  77.765  13.126  0.00  0.00    -0.484 OA
BRANCH  29  30
ATOM     30  C   LIG    1      -25.699  78.179  14.448  0.00  0.00    +0.264 C 
BRANCH  30  31
ATOM     31  C   LIG    1      -24.798  79.304  14.898  0.00  0.00    -0.010 A 
ATOM     32  C   LIG    1      -24.890  80.563  14.292  0.00  0.00    +0.007 A 
ATOM     33  C   LIG    1      -24.048  81.601  14.686  0.00  0.00    +0.013 A 
ATOM     34  C   LIG    1      -23.097  81.400  15.698  0.00  0.00    +0.055 A 
ATOM     35  C   LIG    1      -23.031  80.150  16.330  0.00  0.00    +0.013 A 
ATOM     36  C   LIG    1      -23.865  79.107  15.925  0.00  0.00    +0.007 A 
BRANCH  34  37
ATOM     37  C   LIG    1      -22.139  82.508  16.056  0.00  0.00    +0.417 C 
ATOM     38  F   LIG    1      -20.838  82.107  16.041  0.00  0.00    -0.166 F 
ATOM     39  F   LIG    1      -22.362  82.997  17.309  0.00  0.00    -0.166 F 
ATOM     40  F   LIG    1      -22.209  83.584  15.222  0.00  0.00    -0.166 F 
ENDBRANCH  34  37
ENDBRANCH  30  31
ENDBRANCH  29  30
ENDBRANCH   2  29
TORSDOF 9
ENDMDL
MODEL 9
REMARK VINA RESULT:      -6.1      9.332     11.591
REMARK  Name = pdb/CHEMBL3678297.pdb
REMARK                            x       y       z     vdW  Elec       q    Type
REMARK                         _______ _______ _______ _____ _____    ______ ____
ROOT
ATOM      1  C   LIG    1      -38.605  77.866  26.109  0.00  0.00    +0.162 A 
ATOM      2  C   LIG    1      -38.201  76.683  25.465  0.00  0.00    +0.162 A 
ATOM      3  C   LIG    1      -37.030  76.048  25.904  0.00  0.00    +0.050 A 
ATOM      4  C   LIG    1      -36.279  76.559  26.970  0.00  0.00    +0.009 A 
ATOM      5  C   LIG    1      -36.649  77.750  27.597  0.00  0.00    -0.021 A 
ATOM      6  C   LIG    1      -37.816  78.385  27.152  0.00  0.00    +0.055 A 
ENDROOT
BRANCH   1   8
ATOM      7  C   LIG    1      -39.684  79.303  24.538  0.00  0.00    +0.277 C 
ATOM      8  O   LIG    1      -39.756  78.487  25.700  0.00  0.00    -0.491 OA
ENDBRANCH   1   8
BRANCH   5   9
ATOM      9  C   LIG    1      -35.820  78.397  28.703  0.00  0.00    +0.119 C 
ATOM     10  C   LIG    1      -36.151  79.896  28.856  0.00  0.00    +0.036 C 
BRANCH   9  11
ATOM     11  N   LIG    1      -34.408  78.102  28.570  0.00  0.00    -0.290 N 
ATOM     12  C   LIG    1      -33.730  77.039  29.134  0.00  0.00    +0.162 A 
ATOM     13  N   LIG    1      -34.203  76.122  29.997  0.00  0.00    -0.235 NA
ATOM     14  C   LIG    1      -33.273  75.198  30.333  0.00  0.00    +0.121 A 
ATOM     15  C   LIG    1      -31.949  75.148  29.885  0.00  0.00    +0.005 A 
ATOM     16  C   LIG    1      -31.522  76.140  28.994  0.00  0.00    +0.041 A 
ATOM     17  C   LIG    1      -32.446  77.117  28.616  0.00  0.00    +0.110 A 
ATOM     18  N   LIG    1      -32.319  78.203  27.787  0.00  0.00    -0.213 NA
ATOM     19  C   LIG    1      -33.482  78.788  27.802  0.00  0.00    +0.196 A 
BRANCH  15  20
ATOM     20  C   LIG    1      -31.046  74.106  30.326  0.00  0.00    +0.021 A 
ATOM     21  C   LIG    1      -30.181  74.210  31.397  0.00  0.00    +0.116 A 
ATOM     22  N   LIG    1      -29.508  73.025  31.464  0.00  0.00    -0.274 N 
ATOM     23  C   LIG    1      -28.496  72.678  32.430  0.00  0.00    +0.172 C 
ATOM     24  N   LIG    1      -29.873  72.148  30.514  0.00  0.00    -0.179 NA
ATOM     25  C   LIG    1      -30.804  72.808  29.819  0.00  0.00    +0.143 A 
ENDBRANCH  15  20
BRANCH  19  26
ATOM     26  N   LIG    1      -33.763  79.938  27.155  0.00  0.00    -0.329 N 
ATOM     27  H   LIG    1      -32.929  80.311  26.702  0.00  0.00    +0.145 HD
ATOM     28  H   LIG    1      -34.197  80.671  27.703  0.00  0.00    +0.145 HD
ENDBRANCH  19  26
ENDBRANCH   9  11
ENDBRANCH   5   9
BRANCH   2  29
ATOM     29  O   LIG    1      -38.825  76.028  24.426  0.00  0.00    -0.484 OA
BRANCH  29  30
ATOM     30  C   LIG    1      -39.160  74.655  24.624  0.00  0.00    +0.264 C 
BRANCH  30  31
ATOM     31  C   LIG    1      -40.458  74.323  23.928  0.00  0.00    -0.010 A 
ATOM     32  C   LIG    1      -40.743  72.999  23.569  0.00  0.00    +0.007 A 
ATOM     33  C   LIG    1      -41.929  72.687  22.907  0.00  0.00    +0.013 A 
ATOM     34  C   LIG    1      -42.856  73.693  22.594  0.00  0.00    +0.055 A 
ATOM     35  C   LIG    1      -42.586  75.011  22.988  0.00  0.00    +0.013 A 
ATOM     36  C   LIG    1      -41.392  75.326  23.638  0.00  0.00    +0.007 A 
BRANCH  34  37
ATOM     37  C   LIG    1      -44.095  73.351  21.806  0.00  0.00    +0.417 C 
ATOM     38  F   LIG    1      -44.905  72.467  22.454  0.00  0.00    -0.166 F 
ATOM     39  F   LIG    1      -43.799  72.773  20.607  0.00  0.00    -0.166 F 
ATOM     40  F   LIG    1      -44.876  74.429  21.516  0.00  0.00    -0.166 F 
ENDBRANCH  34  37
ENDBRANCH  30  31
ENDBRANCH  29  30
ENDBRANCH   2  29
TORSDOF 9
ENDMDL
