MODEL 1
REMARK VINA RESULT:      -7.1      0.000      0.000
REMARK  Name = modded_pdb/CHEMBL2037208_nitrogen_modded_with_ethanol_version_1.pdb
REMARK                            x       y       z     vdW  Elec       q    Type
REMARK                         _______ _______ _______ _____ _____    ______ ____
ROOT
ATOM      1  C   LIG    1      -39.505  74.762  24.472  0.00  0.00    +0.038 A 
ATOM      2  C   LIG    1      -39.115  73.409  24.638  0.00  0.00    +0.046 A 
ATOM      3  C   LIG    1      -39.904  72.313  24.232  0.00  0.00    +0.033 A 
ATOM      4  C   LIG    1      -41.093  72.580  23.559  0.00  0.00    +0.023 A 
ATOM      5  C   LIG    1      -41.488  73.895  23.328  0.00  0.00    +0.004 A 
ATOM      6  C   LIG    1      -40.709  74.967  23.786  0.00  0.00    +0.023 A 
ENDROOT
BRANCH   1   8
ATOM      7  C   LIG    1      -38.212  75.773  26.396  0.00  0.00    +0.251 C 
ATOM      8  N   LIG    1      -38.732  75.863  25.071  0.00  0.00    -0.265 N 
ATOM      9  O   LIG    1      -38.539  74.901  27.205  0.00  0.00    -0.270 OA
BRANCH   7  12
ATOM     10  C   LIG    1      -34.805  77.037  27.559  0.00  0.00    +0.056 A 
ATOM     11  C   LIG    1      -35.837  76.264  26.986  0.00  0.00    +0.025 A 
ATOM     12  C   LIG    1      -37.175  76.723  26.946  0.00  0.00    +0.038 A 
ATOM     13  C   LIG    1      -37.456  77.948  27.554  0.00  0.00    +0.013 A 
ATOM     14  C   LIG    1      -36.431  78.778  28.021  0.00  0.00    +0.001 A 
ATOM     15  C   LIG    1      -35.112  78.325  28.020  0.00  0.00    +0.012 A 
BRANCH  10  17
ATOM     16  F   LIG    1      -32.958  76.501  29.003  0.00  0.00    -0.166 F 
ATOM     17  C   LIG    1      -33.407  76.472  27.715  0.00  0.00    +0.417 C 
ATOM     18  F   LIG    1      -33.313  75.169  27.327  0.00  0.00    -0.166 F 
ATOM     19  F   LIG    1      -32.488  77.153  26.984  0.00  0.00    -0.166 F 
ENDBRANCH  10  17
ENDBRANCH   7  12
BRANCH   8  20
ATOM     20  C   LIG    1      -38.351  76.935  24.130  0.00  0.00    +0.141 C 
BRANCH  20  21
ATOM     21  C   LIG    1      -39.228  78.178  24.247  0.00  0.00    +0.175 C 
BRANCH  21  22
ATOM     22  O   LIG    1      -39.146  78.913  23.029  0.00  0.00    -0.393 OA
ATOM     23  H   LIG    1      -39.981  79.403  22.935  0.00  0.00    +0.209 HD
ENDBRANCH  21  22
ENDBRANCH  20  21
ENDBRANCH   8  20
ENDBRANCH   1   8
BRANCH   3  24
ATOM     24  N   LIG    1      -39.441  71.002  24.487  0.00  0.00    -0.314 N 
ATOM     25  H   LIG    1      -39.830  70.591  25.330  0.00  0.00    +0.152 HD
BRANCH  24  26
ATOM     26  C   LIG    1      -38.718  70.108  23.670  0.00  0.00    +0.033 A 
ATOM     27  C   LIG    1      -37.440  69.662  24.029  0.00  0.00    +0.047 A 
ATOM     28  C   LIG    1      -36.762  68.832  23.157  0.00  0.00    +0.043 A 
ATOM     29  N   LIG    1      -35.491  68.306  23.352  0.00  0.00    -0.281 N 
ATOM     30  H   LIG    1      -34.900  68.458  24.154  0.00  0.00    +0.155 HD
ATOM     31  C   LIG    1      -35.117  67.497  22.306  0.00  0.00    +0.249 C 
ATOM     32  O   LIG    1      -34.075  66.863  22.242  0.00  0.00    -0.270 OA
ATOM     33  C   LIG    1      -36.279  67.520  21.338  0.00  0.00    +0.048 C 
ATOM     34  C   LIG    1      -36.402  66.890  20.154  0.00  0.00    +0.039 C 
ATOM     35  C   LIG    1      -37.293  68.405  21.940  0.00  0.00    +0.008 A 
ATOM     36  C   LIG    1      -38.553  68.833  21.561  0.00  0.00    +0.012 A 
ATOM     37  C   LIG    1      -39.257  69.690  22.430  0.00  0.00    +0.024 A 
BRANCH  34  38
ATOM     38  C   LIG    1      -35.450  66.030  19.538  0.00  0.00    +0.040 A 
ATOM     39  N   LIG    1      -34.263  66.511  19.030  0.00  0.00    -0.361 N 
ATOM     40  H   LIG    1      -34.021  67.493  18.953  0.00  0.00    +0.165 HD
ATOM     41  C   LIG    1      -33.517  65.486  18.510  0.00  0.00    +0.083 A 
ATOM     42  C   LIG    1      -34.221  64.320  18.692  0.00  0.00    +0.019 A 
ATOM     43  C   LIG    1      -35.426  64.658  19.356  0.00  0.00    +0.027 A 
ENDBRANCH  34  38
ENDBRANCH  24  26
ENDBRANCH   3  24
TORSDOF 9
ENDMDL
MODEL 2
REMARK VINA RESULT:      -6.9      9.132     14.056
REMARK  Name = modded_pdb/CHEMBL2037208_nitrogen_modded_with_ethanol_version_1.pdb
REMARK                            x       y       z     vdW  Elec       q    Type
REMARK                         _______ _______ _______ _____ _____    ______ ____
ROOT
ATOM      1  C   LIG    1      -26.598  76.154  32.384  0.00  0.00    +0.038 A 
ATOM      2  C   LIG    1      -27.599  75.406  31.716  0.00  0.00    +0.046 A 
ATOM      3  C   LIG    1      -28.950  75.374  32.121  0.00  0.00    +0.033 A 
ATOM      4  C   LIG    1      -29.330  76.186  33.185  0.00  0.00    +0.023 A 
ATOM      5  C   LIG    1      -28.387  76.977  33.835  0.00  0.00    +0.004 A 
ATOM      6  C   LIG    1      -27.041  76.953  33.445  0.00  0.00    +0.023 A 
ENDROOT
BRANCH   1   8
ATOM      7  C   LIG    1      -24.594  76.760  30.964  0.00  0.00    +0.251 C 
ATOM      8  N   LIG    1      -25.173  76.014  32.033  0.00  0.00    -0.265 N 
ATOM      9  O   LIG    1      -25.249  77.388  30.129  0.00  0.00    -0.270 OA
BRANCH   7  12
ATOM     10  C   LIG    1      -20.969  77.711  31.678  0.00  0.00    +0.056 A 
ATOM     11  C   LIG    1      -22.352  77.466  31.804  0.00  0.00    +0.025 A 
ATOM     12  C   LIG    1      -23.104  76.887  30.755  0.00  0.00    +0.038 A 
ATOM     13  C   LIG    1      -22.440  76.622  29.555  0.00  0.00    +0.013 A 
ATOM     14  C   LIG    1      -21.051  76.748  29.453  0.00  0.00    +0.001 A 
ATOM     15  C   LIG    1      -20.318  77.288  30.510  0.00  0.00    +0.012 A 
BRANCH  10  17
ATOM     16  F   LIG    1      -21.028  79.087  33.650  0.00  0.00    -0.166 F 
ATOM     17  C   LIG    1      -20.210  78.457  32.759  0.00  0.00    +0.417 C 
ATOM     18  F   LIG    1      -19.415  77.643  33.509  0.00  0.00    -0.166 F 
ATOM     19  F   LIG    1      -19.398  79.419  32.251  0.00  0.00    -0.166 F 
ENDBRANCH  10  17
ENDBRANCH   7  12
BRANCH   8  20
ATOM     20  C   LIG    1      -24.370  75.243  33.002  0.00  0.00    +0.141 C 
BRANCH  20  21
ATOM     21  C   LIG    1      -24.059  73.826  32.533  0.00  0.00    +0.175 C 
BRANCH  21  22
ATOM     22  O   LIG    1      -25.180  72.992  32.814  0.00  0.00    -0.393 OA
ATOM     23  H   LIG    1      -25.629  73.370  33.589  0.00  0.00    +0.209 HD
ENDBRANCH  21  22
ENDBRANCH  20  21
ENDBRANCH   8  20
ENDBRANCH   1   8
BRANCH   3  24
ATOM     24  N   LIG    1      -29.860  74.558  31.411  0.00  0.00    -0.314 N 
ATOM     25  H   LIG    1      -29.781  73.571  31.636  0.00  0.00    +0.152 HD
BRANCH  24  26
ATOM     26  C   LIG    1      -30.981  74.900  30.625  0.00  0.00    +0.033 A 
ATOM     27  C   LIG    1      -31.069  76.138  29.979  0.00  0.00    +0.047 A 
ATOM     28  C   LIG    1      -32.220  76.432  29.271  0.00  0.00    +0.043 A 
ATOM     29  N   LIG    1      -32.475  77.611  28.581  0.00  0.00    -0.281 N 
ATOM     30  H   LIG    1      -31.855  78.402  28.504  0.00  0.00    +0.155 HD
ATOM     31  C   LIG    1      -33.702  77.574  27.962  0.00  0.00    +0.249 C 
ATOM     32  O   LIG    1      -34.155  78.451  27.243  0.00  0.00    -0.270 OA
ATOM     33  C   LIG    1      -34.290  76.224  28.305  0.00  0.00    +0.048 C 
ATOM     34  C   LIG    1      -35.479  75.706  27.942  0.00  0.00    +0.039 C 
ATOM     35  C   LIG    1      -33.293  75.550  29.158  0.00  0.00    +0.008 A 
ATOM     36  C   LIG    1      -33.231  74.319  29.788  0.00  0.00    +0.012 A 
ATOM     37  C   LIG    1      -32.072  74.004  30.526  0.00  0.00    +0.024 A 
BRANCH  34  38
ATOM     38  C   LIG    1      -36.468  76.322  27.125  0.00  0.00    +0.040 A 
ATOM     39  N   LIG    1      -37.092  77.491  27.500  0.00  0.00    -0.361 N 
ATOM     40  H   LIG    1      -36.988  77.940  28.405  0.00  0.00    +0.165 HD
ATOM     41  C   LIG    1      -37.984  77.885  26.538  0.00  0.00    +0.083 A 
ATOM     42  C   LIG    1      -37.933  76.969  25.516  0.00  0.00    +0.019 A 
ATOM     43  C   LIG    1      -36.965  75.997  25.875  0.00  0.00    +0.027 A 
ENDBRANCH  34  38
ENDBRANCH  24  26
ENDBRANCH   3  24
TORSDOF 9
ENDMDL
MODEL 3
REMARK VINA RESULT:      -6.9      1.249      2.044
REMARK  Name = modded_pdb/CHEMBL2037208_nitrogen_modded_with_ethanol_version_1.pdb
REMARK                            x       y       z     vdW  Elec       q    Type
REMARK                         _______ _______ _______ _____ _____    ______ ____
ROOT
ATOM      1  C   LIG    1      -38.939  74.205  25.127  0.00  0.00    +0.038 A 
ATOM      2  C   LIG    1      -38.991  72.810  24.881  0.00  0.00    +0.046 A 
ATOM      3  C   LIG    1      -39.998  72.189  24.113  0.00  0.00    +0.033 A 
ATOM      4  C   LIG    1      -40.944  73.005  23.499  0.00  0.00    +0.023 A 
ATOM      5  C   LIG    1      -40.898  74.385  23.672  0.00  0.00    +0.004 A 
ATOM      6  C   LIG    1      -39.916  74.973  24.480  0.00  0.00    +0.023 A 
ENDROOT
BRANCH   1   8
ATOM      7  C   LIG    1      -37.206  75.938  25.752  0.00  0.00    +0.251 C 
ATOM      8  N   LIG    1      -37.974  74.782  26.079  0.00  0.00    -0.265 N 
ATOM      9  O   LIG    1      -37.118  76.406  24.613  0.00  0.00    -0.270 OA
BRANCH   7  12
ATOM     10  C   LIG    1      -34.346  76.952  28.064  0.00  0.00    +0.056 A 
ATOM     11  C   LIG    1      -35.118  76.327  27.063  0.00  0.00    +0.025 A 
ATOM     12  C   LIG    1      -36.440  76.741  26.776  0.00  0.00    +0.038 A 
ATOM     13  C   LIG    1      -36.985  77.757  27.565  0.00  0.00    +0.013 A 
ATOM     14  C   LIG    1      -36.197  78.465  28.479  0.00  0.00    +0.001 A 
ATOM     15  C   LIG    1      -34.884  78.066  28.725  0.00  0.00    +0.012 A 
BRANCH  10  17
ATOM     16  F   LIG    1      -32.635  76.699  29.736  0.00  0.00    -0.166 F 
ATOM     17  C   LIG    1      -32.985  76.406  28.450  0.00  0.00    +0.417 C 
ATOM     18  F   LIG    1      -32.909  75.049  28.354  0.00  0.00    -0.166 F 
ATOM     19  F   LIG    1      -31.989  76.899  27.670  0.00  0.00    -0.166 F 
ENDBRANCH  10  17
ENDBRANCH   7  12
BRANCH   8  20
ATOM     20  C   LIG    1      -38.040  74.221  27.443  0.00  0.00    +0.141 C 
BRANCH  20  21
ATOM     21  C   LIG    1      -37.299  72.896  27.586  0.00  0.00    +0.175 C 
BRANCH  21  22
ATOM     22  O   LIG    1      -35.949  73.078  27.171  0.00  0.00    -0.393 OA
ATOM     23  H   LIG    1      -35.917  73.902  26.655  0.00  0.00    +0.209 HD
ENDBRANCH  21  22
ENDBRANCH  20  21
ENDBRANCH   8  20
ENDBRANCH   1   8
BRANCH   3  24
ATOM     24  N   LIG    1      -39.982  70.784  23.967  0.00  0.00    -0.314 N 
ATOM     25  H   LIG    1      -40.828  70.331  24.301  0.00  0.00    +0.152 HD
BRANCH  24  26
ATOM     26  C   LIG    1      -39.102  69.944  23.253  0.00  0.00    +0.033 A 
ATOM     27  C   LIG    1      -37.866  69.559  23.787  0.00  0.00    +0.047 A 
ATOM     28  C   LIG    1      -37.027  68.782  23.011  0.00  0.00    +0.043 A 
ATOM     29  N   LIG    1      -35.769  68.320  23.381  0.00  0.00    -0.281 N 
ATOM     30  H   LIG    1      -35.308  68.489  24.261  0.00  0.00    +0.155 HD
ATOM     31  C   LIG    1      -35.206  67.550  22.391  0.00  0.00    +0.249 C 
ATOM     32  O   LIG    1      -34.133  66.973  22.470  0.00  0.00    -0.270 OA
ATOM     33  C   LIG    1      -36.219  67.530  21.267  0.00  0.00    +0.048 C 
ATOM     34  C   LIG    1      -36.137  66.915  20.071  0.00  0.00    +0.039 C 
ATOM     35  C   LIG    1      -37.354  68.349  21.727  0.00  0.00    +0.008 A 
ATOM     36  C   LIG    1      -38.570  68.717  21.176  0.00  0.00    +0.012 A 
ATOM     37  C   LIG    1      -39.436  69.520  21.945  0.00  0.00    +0.024 A 
BRANCH  34  38
ATOM     38  C   LIG    1      -35.062  66.119  19.589  0.00  0.00    +0.040 A 
ATOM     39  N   LIG    1      -34.770  64.889  20.135  0.00  0.00    -0.361 N 
ATOM     40  H   LIG    1      -35.207  64.505  20.967  0.00  0.00    +0.165 HD
ATOM     41  C   LIG    1      -33.707  64.318  19.485  0.00  0.00    +0.083 A 
ATOM     42  C   LIG    1      -33.307  65.182  18.495  0.00  0.00    +0.019 A 
ATOM     43  C   LIG    1      -34.171  66.305  18.546  0.00  0.00    +0.027 A 
ENDBRANCH  34  38
ENDBRANCH  24  26
ENDBRANCH   3  24
TORSDOF 9
ENDMDL
MODEL 4
REMARK VINA RESULT:      -6.9     19.522     21.319
REMARK  Name = modded_pdb/CHEMBL2037208_nitrogen_modded_with_ethanol_version_1.pdb
REMARK                            x       y       z     vdW  Elec       q    Type
REMARK                         _______ _______ _______ _____ _____    ______ ____
ROOT
ATOM      1  C   LIG    1      -21.064  85.476  13.658  0.00  0.00    +0.038 A 
ATOM      2  C   LIG    1      -22.181  84.786  14.190  0.00  0.00    +0.046 A 
ATOM      3  C   LIG    1      -22.168  83.413  14.515  0.00  0.00    +0.033 A 
ATOM      4  C   LIG    1      -20.967  82.723  14.380  0.00  0.00    +0.023 A 
ATOM      5  C   LIG    1      -19.832  83.377  13.911  0.00  0.00    +0.004 A 
ATOM      6  C   LIG    1      -19.883  84.730  13.548  0.00  0.00    +0.023 A 
ENDROOT
BRANCH   1   8
ATOM      7  C   LIG    1      -21.689  87.152  11.870  0.00  0.00    +0.251 C 
ATOM      8  N   LIG    1      -21.178  86.861  13.169  0.00  0.00    -0.265 N 
ATOM      9  O   LIG    1      -21.861  86.302  10.992  0.00  0.00    -0.270 OA
BRANCH   7  12
ATOM     10  C   LIG    1      -23.961  90.158  11.268  0.00  0.00    +0.056 A 
ATOM     11  C   LIG    1      -23.442  88.922  11.708  0.00  0.00    +0.025 A 
ATOM     12  C   LIG    1      -22.109  88.536  11.434  0.00  0.00    +0.038 A 
ATOM     13  C   LIG    1      -21.334  89.396  10.652  0.00  0.00    +0.013 A 
ATOM     14  C   LIG    1      -21.792  90.672  10.308  0.00  0.00    +0.001 A 
ATOM     15  C   LIG    1      -23.098  91.052  10.617  0.00  0.00    +0.012 A 
BRANCH  10  17
ATOM     16  F   LIG    1      -25.820  91.591  10.742  0.00  0.00    -0.166 F 
ATOM     17  C   LIG    1      -25.428  90.494  11.452  0.00  0.00    +0.417 C 
ATOM     18  F   LIG    1      -26.258  89.489  11.054  0.00  0.00    -0.166 F 
ATOM     19  F   LIG    1      -25.741  90.755  12.747  0.00  0.00    -0.166 F 
ENDBRANCH  10  17
ENDBRANCH   7  12
BRANCH   8  20
ATOM     20  C   LIG    1      -20.950  87.900  14.193  0.00  0.00    +0.141 C 
BRANCH  20  21
ATOM     21  C   LIG    1      -22.165  88.147  15.081  0.00  0.00    +0.175 C 
BRANCH  21  22
ATOM     22  O   LIG    1      -21.832  87.799  16.422  0.00  0.00    -0.393 OA
ATOM     23  H   LIG    1      -20.894  88.023  16.550  0.00  0.00    +0.209 HD
ENDBRANCH  21  22
ENDBRANCH  20  21
ENDBRANCH   8  20
ENDBRANCH   1   8
BRANCH   3  24
ATOM     24  N   LIG    1      -23.353  82.811  14.997  0.00  0.00    -0.314 N 
ATOM     25  H   LIG    1      -23.756  83.291  15.796  0.00  0.00    +0.152 HD
BRANCH  24  26
ATOM     26  C   LIG    1      -24.169  81.808  14.433  0.00  0.00    +0.033 A 
ATOM     27  C   LIG    1      -24.403  80.598  15.097  0.00  0.00    +0.047 A 
ATOM     28  C   LIG    1      -25.165  79.635  14.463  0.00  0.00    +0.043 A 
ATOM     29  N   LIG    1      -25.486  78.382  14.973  0.00  0.00    -0.281 N 
ATOM     30  H   LIG    1      -25.208  78.015  15.869  0.00  0.00    +0.155 HD
ATOM     31  C   LIG    1      -26.282  77.675  14.103  0.00  0.00    +0.249 C 
ATOM     32  O   LIG    1      -26.757  76.572  14.319  0.00  0.00    -0.270 OA
ATOM     33  C   LIG    1      -26.479  78.580  12.907  0.00  0.00    +0.048 C 
ATOM     34  C   LIG    1      -27.178  78.346  11.780  0.00  0.00    +0.039 C 
ATOM     35  C   LIG    1      -25.725  79.813  13.199  0.00  0.00    +0.008 A 
ATOM     36  C   LIG    1      -25.508  81.000  12.521  0.00  0.00    +0.012 A 
ATOM     37  C   LIG    1      -24.723  81.991  13.143  0.00  0.00    +0.024 A 
BRANCH  34  38
ATOM     38  C   LIG    1      -27.916  77.172  11.458  0.00  0.00    +0.040 A 
ATOM     39  N   LIG    1      -29.069  76.835  12.131  0.00  0.00    -0.361 N 
ATOM     40  H   LIG    1      -29.422  77.313  12.954  0.00  0.00    +0.165 HD
ATOM     41  C   LIG    1      -29.597  75.677  11.622  0.00  0.00    +0.083 A 
ATOM     42  C   LIG    1      -28.784  75.260  10.596  0.00  0.00    +0.019 A 
ATOM     43  C   LIG    1      -27.738  76.210  10.479  0.00  0.00    +0.027 A 
ENDBRANCH  34  38
ENDBRANCH  24  26
ENDBRANCH   3  24
TORSDOF 9
ENDMDL
MODEL 5
REMARK VINA RESULT:      -6.9      8.924     13.028
REMARK  Name = modded_pdb/CHEMBL2037208_nitrogen_modded_with_ethanol_version_1.pdb
REMARK                            x       y       z     vdW  Elec       q    Type
REMARK                         _______ _______ _______ _____ _____    ______ ____
ROOT
ATOM      1  C   LIG    1      -27.027  76.319  32.262  0.00  0.00    +0.038 A 
ATOM      2  C   LIG    1      -28.106  76.549  31.372  0.00  0.00    +0.046 A 
ATOM      3  C   LIG    1      -29.458  76.573  31.775  0.00  0.00    +0.033 A 
ATOM      4  C   LIG    1      -29.736  76.443  33.132  0.00  0.00    +0.023 A 
ATOM      5  C   LIG    1      -28.701  76.269  34.046  0.00  0.00    +0.004 A 
ATOM      6  C   LIG    1      -27.369  76.199  33.615  0.00  0.00    +0.023 A 
ENDROOT
BRANCH   1   8
ATOM      7  C   LIG    1      -24.954  77.165  31.083  0.00  0.00    +0.251 C 
ATOM      8  N   LIG    1      -25.652  76.126  31.768  0.00  0.00    -0.265 N 
ATOM      9  O   LIG    1      -25.492  78.193  30.662  0.00  0.00    -0.270 OA
BRANCH   7  12
ATOM     10  C   LIG    1      -21.226  77.693  31.697  0.00  0.00    +0.056 A 
ATOM     11  C   LIG    1      -22.624  77.597  31.864  0.00  0.00    +0.025 A 
ATOM     12  C   LIG    1      -23.467  77.135  30.827  0.00  0.00    +0.038 A 
ATOM     13  C   LIG    1      -22.874  76.834  29.598  0.00  0.00    +0.013 A 
ATOM     14  C   LIG    1      -21.483  76.811  29.451  0.00  0.00    +0.001 A 
ATOM     15  C   LIG    1      -20.663  77.235  30.496  0.00  0.00    +0.012 A 
BRANCH  10  17
ATOM     16  F   LIG    1      -21.063  79.068  33.664  0.00  0.00    -0.166 F 
ATOM     17  C   LIG    1      -20.356  78.319  32.770  0.00  0.00    +0.417 C 
ATOM     18  F   LIG    1      -19.687  77.396  33.517  0.00  0.00    -0.166 F 
ATOM     19  F   LIG    1      -19.412  79.146  32.253  0.00  0.00    -0.166 F 
ENDBRANCH  10  17
ENDBRANCH   7  12
BRANCH   8  20
ATOM     20  C   LIG    1      -24.994  74.890  32.235  0.00  0.00    +0.141 C 
BRANCH  20  21
ATOM     21  C   LIG    1      -25.175  73.715  31.280  0.00  0.00    +0.175 C 
BRANCH  21  22
ATOM     22  O   LIG    1      -23.954  73.503  30.577  0.00  0.00    -0.393 OA
ATOM     23  H   LIG    1      -24.186  73.331  29.648  0.00  0.00    +0.209 HD
ENDBRANCH  21  22
ENDBRANCH  20  21
ENDBRANCH   8  20
ENDBRANCH   1   8
BRANCH   3  24
ATOM     24  N   LIG    1      -30.461  76.765  30.798  0.00  0.00    -0.314 N 
ATOM     25  H   LIG    1      -30.446  77.689  30.377  0.00  0.00    +0.152 HD
BRANCH  24  26
ATOM     26  C   LIG    1      -31.320  75.840  30.168  0.00  0.00    +0.033 A 
ATOM     27  C   LIG    1      -32.562  76.230  29.654  0.00  0.00    +0.047 A 
ATOM     28  C   LIG    1      -33.380  75.262  29.101  0.00  0.00    +0.043 A 
ATOM     29  N   LIG    1      -34.640  75.474  28.555  0.00  0.00    -0.281 N 
ATOM     30  H   LIG    1      -35.120  76.357  28.489  0.00  0.00    +0.155 HD
ATOM     31  C   LIG    1      -35.177  74.307  28.066  0.00  0.00    +0.249 C 
ATOM     32  O   LIG    1      -36.246  74.212  27.484  0.00  0.00    -0.270 OA
ATOM     33  C   LIG    1      -34.142  73.238  28.339  0.00  0.00    +0.048 C 
ATOM     34  C   LIG    1      -34.195  71.922  28.054  0.00  0.00    +0.039 C 
ATOM     35  C   LIG    1      -33.023  73.917  29.016  0.00  0.00    +0.008 A 
ATOM     36  C   LIG    1      -31.800  73.506  29.518  0.00  0.00    +0.012 A 
ATOM     37  C   LIG    1      -30.956  74.474  30.098  0.00  0.00    +0.024 A 
BRANCH  34  38
ATOM     38  C   LIG    1      -35.254  71.228  27.406  0.00  0.00    +0.040 A 
ATOM     39  N   LIG    1      -35.532  71.416  26.070  0.00  0.00    -0.361 N 
ATOM     40  H   LIG    1      -35.097  72.118  25.480  0.00  0.00    +0.165 HD
ATOM     41  C   LIG    1      -36.581  70.622  25.685  0.00  0.00    +0.083 A 
ATOM     42  C   LIG    1      -36.984  69.898  26.780  0.00  0.00    +0.019 A 
ATOM     43  C   LIG    1      -36.138  70.263  27.858  0.00  0.00    +0.027 A 
ENDBRANCH  34  38
ENDBRANCH  24  26
ENDBRANCH   3  24
TORSDOF 9
ENDMDL
MODEL 6
REMARK VINA RESULT:      -6.8      4.259      9.931
REMARK  Name = modded_pdb/CHEMBL2037208_nitrogen_modded_with_ethanol_version_1.pdb
REMARK                            x       y       z     vdW  Elec       q    Type
REMARK                         _______ _______ _______ _____ _____    ______ ____
ROOT
ATOM      1  C   LIG    1      -36.205  68.225  24.815  0.00  0.00    +0.038 A 
ATOM      2  C   LIG    1      -37.343  69.040  25.037  0.00  0.00    +0.046 A 
ATOM      3  C   LIG    1      -38.219  69.455  24.013  0.00  0.00    +0.033 A 
ATOM      4  C   LIG    1      -37.995  68.969  22.728  0.00  0.00    +0.023 A 
ATOM      5  C   LIG    1      -36.919  68.122  22.476  0.00  0.00    +0.004 A 
ATOM      6  C   LIG    1      -36.034  67.764  23.503  0.00  0.00    +0.023 A 
ENDROOT
BRANCH   1   8
ATOM      7  C   LIG    1      -35.336  66.831  26.738  0.00  0.00    +0.251 C 
ATOM      8  N   LIG    1      -35.224  67.967  25.883  0.00  0.00    -0.265 N 
ATOM      9  O   LIG    1      -36.340  66.117  26.806  0.00  0.00    -0.270 OA
BRANCH   7  12
ATOM     10  C   LIG    1      -32.659  66.944  29.455  0.00  0.00    +0.056 A 
ATOM     11  C   LIG    1      -33.756  67.255  28.623  0.00  0.00    +0.025 A 
ATOM     12  C   LIG    1      -34.218  66.355  27.635  0.00  0.00    +0.038 A 
ATOM     13  C   LIG    1      -33.508  65.164  27.463  0.00  0.00    +0.013 A 
ATOM     14  C   LIG    1      -32.496  64.789  28.353  0.00  0.00    +0.001 A 
ATOM     15  C   LIG    1      -32.076  65.674  29.346  0.00  0.00    +0.012 A 
BRANCH  10  17
ATOM     16  F   LIG    1      -31.238  67.442  31.330  0.00  0.00    -0.166 F 
ATOM     17  C   LIG    1      -32.094  67.975  30.413  0.00  0.00    +0.417 C 
ATOM     18  F   LIG    1      -31.388  68.956  29.783  0.00  0.00    -0.166 F 
ATOM     19  F   LIG    1      -33.063  68.604  31.127  0.00  0.00    -0.166 F 
ENDBRANCH  10  17
ENDBRANCH   7  12
BRANCH   8  20
ATOM     20  C   LIG    1      -34.023  68.826  25.842  0.00  0.00    +0.141 C 
BRANCH  20  21
ATOM     21  C   LIG    1      -34.266  70.226  26.394  0.00  0.00    +0.175 C 
BRANCH  21  22
ATOM     22  O   LIG    1      -34.442  71.126  25.303  0.00  0.00    -0.393 OA
ATOM     23  H   LIG    1      -34.365  70.602  24.486  0.00  0.00    +0.209 HD
ENDBRANCH  21  22
ENDBRANCH  20  21
ENDBRANCH   8  20
ENDBRANCH   1   8
BRANCH   3  24
ATOM     24  N   LIG    1      -39.299  70.306  24.336  0.00  0.00    -0.314 N 
ATOM     25  H   LIG    1      -40.040  69.843  24.854  0.00  0.00    +0.152 HD
BRANCH  24  26
ATOM     26  C   LIG    1      -39.420  71.709  24.255  0.00  0.00    +0.033 A 
ATOM     27  C   LIG    1      -38.417  72.558  24.737  0.00  0.00    +0.047 A 
ATOM     28  C   LIG    1      -38.625  73.924  24.679  0.00  0.00    +0.043 A 
ATOM     29  N   LIG    1      -37.741  74.903  25.118  0.00  0.00    -0.281 N 
ATOM     30  H   LIG    1      -36.836  74.745  25.532  0.00  0.00    +0.155 HD
ATOM     31  C   LIG    1      -38.238  76.164  24.892  0.00  0.00    +0.249 C 
ATOM     32  O   LIG    1      -37.649  77.207  25.128  0.00  0.00    -0.270 OA
ATOM     33  C   LIG    1      -39.590  75.958  24.245  0.00  0.00    +0.048 C 
ATOM     34  C   LIG    1      -40.477  76.885  23.835  0.00  0.00    +0.039 C 
ATOM     35  C   LIG    1      -39.779  74.499  24.151  0.00  0.00    +0.008 A 
ATOM     36  C   LIG    1      -40.787  73.682  23.668  0.00  0.00    +0.012 A 
ATOM     37  C   LIG    1      -40.601  72.286  23.730  0.00  0.00    +0.024 A 
BRANCH  34  38
ATOM     38  C   LIG    1      -40.335  78.299  23.909  0.00  0.00    +0.040 A 
ATOM     39  N   LIG    1      -39.396  78.972  23.160  0.00  0.00    -0.361 N 
ATOM     40  H   LIG    1      -38.678  78.529  22.595  0.00  0.00    +0.165 HD
ATOM     41  C   LIG    1      -39.473  80.320  23.397  0.00  0.00    +0.083 A 
ATOM     42  C   LIG    1      -40.484  80.530  24.303  0.00  0.00    +0.019 A 
ATOM     43  C   LIG    1      -41.039  79.262  24.610  0.00  0.00    +0.027 A 
ENDBRANCH  34  38
ENDBRANCH  24  26
ENDBRANCH   3  24
TORSDOF 9
ENDMDL
MODEL 7
REMARK VINA RESULT:      -6.7      3.276      9.199
REMARK  Name = modded_pdb/CHEMBL2037208_nitrogen_modded_with_ethanol_version_1.pdb
REMARK                            x       y       z     vdW  Elec       q    Type
REMARK                         _______ _______ _______ _____ _____    ______ ____
ROOT
ATOM      1  C   LIG    1      -36.807  68.831  25.093  0.00  0.00    +0.038 A 
ATOM      2  C   LIG    1      -37.958  69.658  25.098  0.00  0.00    +0.046 A 
ATOM      3  C   LIG    1      -38.796  69.837  23.978  0.00  0.00    +0.033 A 
ATOM      4  C   LIG    1      -38.519  69.097  22.832  0.00  0.00    +0.023 A 
ATOM      5  C   LIG    1      -37.429  68.232  22.803  0.00  0.00    +0.004 A 
ATOM      6  C   LIG    1      -36.582  68.109  23.913  0.00  0.00    +0.023 A 
ENDROOT
BRANCH   1   8
ATOM      7  C   LIG    1      -34.710  69.650  26.247  0.00  0.00    +0.251 C 
ATOM      8  N   LIG    1      -35.867  68.816  26.227  0.00  0.00    -0.265 N 
ATOM      9  O   LIG    1      -34.289  70.265  25.263  0.00  0.00    -0.270 OA
BRANCH   7  12
ATOM     10  C   LIG    1      -33.088  71.576  29.113  0.00  0.00    +0.056 A 
ATOM     11  C   LIG    1      -33.888  71.215  28.009  0.00  0.00    +0.025 A 
ATOM     12  C   LIG    1      -33.889  69.900  27.489  0.00  0.00    +0.038 A 
ATOM     13  C   LIG    1      -33.016  68.975  28.067  0.00  0.00    +0.013 A 
ATOM     14  C   LIG    1      -32.305  69.282  29.232  0.00  0.00    +0.001 A 
ATOM     15  C   LIG    1      -32.343  70.575  29.754  0.00  0.00    +0.012 A 
BRANCH  10  17
ATOM     16  F   LIG    1      -33.078  73.911  28.540  0.00  0.00    -0.166 F 
ATOM     17  C   LIG    1      -32.997  73.019  29.568  0.00  0.00    +0.417 C 
ATOM     18  F   LIG    1      -33.992  73.368  30.432  0.00  0.00    -0.166 F 
ATOM     19  F   LIG    1      -31.829  73.288  30.206  0.00  0.00    -0.166 F 
ENDBRANCH  10  17
ENDBRANCH   7  12
BRANCH   8  20
ATOM     20  C   LIG    1      -36.335  68.064  27.409  0.00  0.00    +0.141 C 
BRANCH  20  21
ATOM     21  C   LIG    1      -36.119  66.559  27.288  0.00  0.00    +0.175 C 
BRANCH  21  22
ATOM     22  O   LIG    1      -34.906  66.324  26.580  0.00  0.00    -0.393 OA
ATOM     23  H   LIG    1      -34.571  67.191  26.293  0.00  0.00    +0.209 HD
ENDBRANCH  21  22
ENDBRANCH  20  21
ENDBRANCH   8  20
ENDBRANCH   1   8
BRANCH   3  24
ATOM     24  N   LIG    1      -39.894  70.721  24.077  0.00  0.00    -0.314 N 
ATOM     25  H   LIG    1      -40.751  70.272  24.384  0.00  0.00    +0.152 HD
BRANCH  24  26
ATOM     26  C   LIG    1      -39.946  72.130  24.032  0.00  0.00    +0.033 A 
ATOM     27  C   LIG    1      -38.921  72.917  24.571  0.00  0.00    +0.047 A 
ATOM     28  C   LIG    1      -39.062  74.291  24.547  0.00  0.00    +0.043 A 
ATOM     29  N   LIG    1      -38.149  75.214  25.042  0.00  0.00    -0.281 N 
ATOM     30  H   LIG    1      -37.267  75.002  25.481  0.00  0.00    +0.155 HD
ATOM     31  C   LIG    1      -38.578  76.504  24.837  0.00  0.00    +0.249 C 
ATOM     32  O   LIG    1      -37.948  77.510  25.123  0.00  0.00    -0.270 OA
ATOM     33  C   LIG    1      -39.915  76.381  24.141  0.00  0.00    +0.048 C 
ATOM     34  C   LIG    1      -40.744  77.361  23.730  0.00  0.00    +0.039 C 
ATOM     35  C   LIG    1      -40.169  74.936  23.998  0.00  0.00    +0.008 A 
ATOM     36  C   LIG    1      -41.198  74.182  23.460  0.00  0.00    +0.012 A 
ATOM     37  C   LIG    1      -41.080  72.778  23.486  0.00  0.00    +0.024 A 
BRANCH  34  38
ATOM     38  C   LIG    1      -40.537  78.764  23.850  0.00  0.00    +0.040 A 
ATOM     39  N   LIG    1      -39.528  79.408  23.170  0.00  0.00    -0.361 N 
ATOM     40  H   LIG    1      -38.803  78.944  22.632  0.00  0.00    +0.165 HD
ATOM     41  C   LIG    1      -39.553  80.751  23.439  0.00  0.00    +0.083 A 
ATOM     42  C   LIG    1      -40.600  80.988  24.296  0.00  0.00    +0.019 A 
ATOM     43  C   LIG    1      -41.231  79.743  24.539  0.00  0.00    +0.027 A 
ENDBRANCH  34  38
ENDBRANCH  24  26
ENDBRANCH   3  24
TORSDOF 9
ENDMDL
MODEL 8
REMARK VINA RESULT:      -6.7      4.902     11.420
REMARK  Name = modded_pdb/CHEMBL2037208_nitrogen_modded_with_ethanol_version_1.pdb
REMARK                            x       y       z     vdW  Elec       q    Type
REMARK                         _______ _______ _______ _____ _____    ______ ____
ROOT
ATOM      1  C   LIG    1      -37.311  68.232  23.372  0.00  0.00    +0.038 A 
ATOM      2  C   LIG    1      -38.335  69.199  23.208  0.00  0.00    +0.046 A 
ATOM      3  C   LIG    1      -39.173  69.634  24.256  0.00  0.00    +0.033 A 
ATOM      4  C   LIG    1      -38.924  69.145  25.535  0.00  0.00    +0.023 A 
ATOM      5  C   LIG    1      -37.893  68.234  25.749  0.00  0.00    +0.004 A 
ATOM      6  C   LIG    1      -37.106  67.779  24.682  0.00  0.00    +0.023 A 
ENDROOT
BRANCH   1   8
ATOM      7  C   LIG    1      -35.210  67.310  22.308  0.00  0.00    +0.251 C 
ATOM      8  N   LIG    1      -36.584  67.680  22.216  0.00  0.00    -0.265 N 
ATOM      9  O   LIG    1      -34.478  67.614  23.254  0.00  0.00    -0.270 OA
BRANCH   7  12
ATOM     10  C   LIG    1      -34.286  64.239  20.240  0.00  0.00    +0.056 A 
ATOM     11  C   LIG    1      -34.933  65.132  21.121  0.00  0.00    +0.025 A 
ATOM     12  C   LIG    1      -34.505  66.472  21.268  0.00  0.00    +0.038 A 
ATOM     13  C   LIG    1      -33.371  66.870  20.557  0.00  0.00    +0.013 A 
ATOM     14  C   LIG    1      -32.790  66.037  19.595  0.00  0.00    +0.001 A 
ATOM     15  C   LIG    1      -33.247  64.729  19.436  0.00  0.00    +0.012 A 
BRANCH  10  17
ATOM     16  F   LIG    1      -33.799  62.010  19.480  0.00  0.00    -0.166 F 
ATOM     17  C   LIG    1      -34.672  62.773  20.198  0.00  0.00    +0.417 C 
ATOM     18  F   LIG    1      -34.725  62.201  21.433  0.00  0.00    -0.166 F 
ATOM     19  F   LIG    1      -35.892  62.576  19.635  0.00  0.00    -0.166 F 
ENDBRANCH  10  17
ENDBRANCH   7  12
BRANCH   8  20
ATOM     20  C   LIG    1      -37.433  67.333  21.059  0.00  0.00    +0.141 C 
BRANCH  20  21
ATOM     21  C   LIG    1      -37.353  68.351  19.926  0.00  0.00    +0.175 C 
BRANCH  21  22
ATOM     22  O   LIG    1      -36.975  67.678  18.729  0.00  0.00    -0.393 OA
ATOM     23  H   LIG    1      -36.021  67.499  18.792  0.00  0.00    +0.209 HD
ENDBRANCH  21  22
ENDBRANCH  20  21
ENDBRANCH   8  20
ENDBRANCH   1   8
BRANCH   3  24
ATOM     24  N   LIG    1      -40.194  70.569  23.975  0.00  0.00    -0.314 N 
ATOM     25  H   LIG    1      -41.123  70.159  23.942  0.00  0.00    +0.152 HD
BRANCH  24  26
ATOM     26  C   LIG    1      -40.168  71.979  23.948  0.00  0.00    +0.033 A 
ATOM     27  C   LIG    1      -39.093  72.700  24.482  0.00  0.00    +0.047 A 
ATOM     28  C   LIG    1      -39.156  74.080  24.477  0.00  0.00    +0.043 A 
ATOM     29  N   LIG    1      -38.185  74.944  24.971  0.00  0.00    -0.281 N 
ATOM     30  H   LIG    1      -37.311  74.677  25.394  0.00  0.00    +0.155 HD
ATOM     31  C   LIG    1      -38.544  76.258  24.788  0.00  0.00    +0.249 C 
ATOM     32  O   LIG    1      -37.855  77.224  25.076  0.00  0.00    -0.270 OA
ATOM     33  C   LIG    1      -39.896  76.220  24.109  0.00  0.00    +0.048 C 
ATOM     34  C   LIG    1      -40.673  77.250  23.722  0.00  0.00    +0.039 C 
ATOM     35  C   LIG    1      -40.233  74.794  23.952  0.00  0.00    +0.008 A 
ATOM     36  C   LIG    1      -41.309  74.105  23.419  0.00  0.00    +0.012 A 
ATOM     37  C   LIG    1      -41.271  72.696  23.427  0.00  0.00    +0.024 A 
BRANCH  34  38
ATOM     38  C   LIG    1      -40.387  78.637  23.856  0.00  0.00    +0.040 A 
ATOM     39  N   LIG    1      -39.402  79.248  23.113  0.00  0.00    -0.361 N 
ATOM     40  H   LIG    1      -38.746  78.763  22.508  0.00  0.00    +0.165 HD
ATOM     41  C   LIG    1      -39.337  80.583  23.413  0.00  0.00    +0.083 A 
ATOM     42  C   LIG    1      -40.300  80.850  24.356  0.00  0.00    +0.019 A 
ATOM     43  C   LIG    1      -40.973  79.631  24.621  0.00  0.00    +0.027 A 
ENDBRANCH  34  38
ENDBRANCH  24  26
ENDBRANCH   3  24
TORSDOF 9
ENDMDL
MODEL 9
REMARK VINA RESULT:      -6.6      5.691     10.883
REMARK  Name = modded_pdb/CHEMBL2037208_nitrogen_modded_with_ethanol_version_1.pdb
REMARK                            x       y       z     vdW  Elec       q    Type
REMARK                         _______ _______ _______ _____ _____    ______ ____
ROOT
ATOM      1  C   LIG    1      -37.026  77.023  27.157  0.00  0.00    +0.038 A 
ATOM      2  C   LIG    1      -35.826  76.271  27.225  0.00  0.00    +0.046 A 
ATOM      3  C   LIG    1      -34.588  76.811  27.632  0.00  0.00    +0.033 A 
ATOM      4  C   LIG    1      -34.566  78.133  28.067  0.00  0.00    +0.023 A 
ATOM      5  C   LIG    1      -35.733  78.891  28.066  0.00  0.00    +0.004 A 
ATOM      6  C   LIG    1      -36.941  78.346  27.610  0.00  0.00    +0.023 A 
ENDROOT
BRANCH   1   8
ATOM      7  C   LIG    1      -38.306  76.102  25.179  0.00  0.00    +0.251 C 
ATOM      8  N   LIG    1      -38.250  76.463  26.558  0.00  0.00    -0.265 N 
ATOM      9  O   LIG    1      -37.449  76.420  24.350  0.00  0.00    -0.270 OA
BRANCH   7  12
ATOM     10  C   LIG    1      -40.146  72.982  23.979  0.00  0.00    +0.056 A 
ATOM     11  C   LIG    1      -39.218  73.856  24.584  0.00  0.00    +0.025 A 
ATOM     12  C   LIG    1      -39.409  75.257  24.588  0.00  0.00    +0.038 A 
ATOM     13  C   LIG    1      -40.523  75.760  23.911  0.00  0.00    +0.013 A 
ATOM     14  C   LIG    1      -41.511  74.906  23.408  0.00  0.00    +0.001 A 
ATOM     15  C   LIG    1      -41.324  73.524  23.445  0.00  0.00    +0.012 A 
BRANCH  10  17
ATOM     16  F   LIG    1      -38.523  71.212  23.861  0.00  0.00    -0.166 F 
ATOM     17  C   LIG    1      -39.856  71.498  23.866  0.00  0.00    +0.417 C 
ATOM     18  F   LIG    1      -40.380  70.774  24.894  0.00  0.00    -0.166 F 
ATOM     19  F   LIG    1      -40.359  70.959  22.725  0.00  0.00    -0.166 F 
ENDBRANCH  10  17
ENDBRANCH   7  12
BRANCH   8  20
ATOM     20  C   LIG    1      -39.303  76.099  27.527  0.00  0.00    +0.141 C 
BRANCH  20  21
ATOM     21  C   LIG    1      -39.014  74.799  28.269  0.00  0.00    +0.175 C 
BRANCH  21  22
ATOM     22  O   LIG    1      -40.168  73.966  28.203  0.00  0.00    -0.393 OA
ATOM     23  H   LIG    1      -40.791  74.288  28.877  0.00  0.00    +0.209 HD
ENDBRANCH  21  22
ENDBRANCH  20  21
ENDBRANCH   8  20
ENDBRANCH   1   8
BRANCH   3  24
ATOM     24  N   LIG    1      -33.442  75.984  27.620  0.00  0.00    -0.314 N 
ATOM     25  H   LIG    1      -33.099  75.779  26.686  0.00  0.00    +0.152 HD
BRANCH  24  26
ATOM     26  C   LIG    1      -32.585  75.586  28.667  0.00  0.00    +0.033 A 
ATOM     27  C   LIG    1      -31.610  76.449  29.181  0.00  0.00    +0.047 A 
ATOM     28  C   LIG    1      -30.765  75.976  30.167  0.00  0.00    +0.043 A 
ATOM     29  N   LIG    1      -29.743  76.693  30.779  0.00  0.00    -0.281 N 
ATOM     30  H   LIG    1      -29.487  77.648  30.586  0.00  0.00    +0.155 HD
ATOM     31  C   LIG    1      -29.107  75.940  31.738  0.00  0.00    +0.249 C 
ATOM     32  O   LIG    1      -28.211  76.337  32.467  0.00  0.00    -0.270 OA
ATOM     33  C   LIG    1      -29.801  74.596  31.725  0.00  0.00    +0.048 C 
ATOM     34  C   LIG    1      -29.545  73.509  32.479  0.00  0.00    +0.039 C 
ATOM     35  C   LIG    1      -30.843  74.685  30.687  0.00  0.00    +0.008 A 
ATOM     36  C   LIG    1      -31.798  73.811  30.195  0.00  0.00    +0.012 A 
ATOM     37  C   LIG    1      -32.662  74.269  29.180  0.00  0.00    +0.024 A 
BRANCH  34  38
ATOM     38  C   LIG    1      -28.550  73.382  33.488  0.00  0.00    +0.040 A 
ATOM     39  N   LIG    1      -27.207  73.361  33.183  0.00  0.00    -0.361 N 
ATOM     40  H   LIG    1      -26.827  73.324  32.242  0.00  0.00    +0.165 HD
ATOM     41  C   LIG    1      -26.460  73.249  34.326  0.00  0.00    +0.083 A 
ATOM     42  C   LIG    1      -27.325  73.209  35.392  0.00  0.00    +0.019 A 
ATOM     43  C   LIG    1      -28.638  73.313  34.868  0.00  0.00    +0.027 A 
ENDBRANCH  34  38
ENDBRANCH  24  26
ENDBRANCH   3  24
TORSDOF 9
ENDMDL
