MODEL 1
REMARK VINA RESULT:      -6.9      0.000      0.000
REMARK  Name = pdb/CHEMBL3939888.pdb
REMARK                            x       y       z     vdW  Elec       q    Type
REMARK                         _______ _______ _______ _____ _____    ______ ____
ROOT
ATOM      1  C   LIG    1      -31.833  94.034  22.985  0.00  0.00    +0.131 A 
ATOM      2  C   LIG    1      -32.185  93.525  21.759  0.00  0.00    +0.183 A 
ATOM      3  N   LIG    1      -33.277  92.808  21.353  0.00  0.00    -0.211 NA
ATOM      4  C   LIG    1      -33.403  92.504  20.081  0.00  0.00    +0.126 A 
ATOM      5  C   LIG    1      -32.339  92.898  19.077  0.00  0.00    +0.063 A 
ATOM      6  C   LIG    1      -31.296  93.610  19.525  0.00  0.00    +0.118 A 
ATOM      7  N   LIG    1      -31.200  93.944  20.868  0.00  0.00    -0.220 N 
ATOM      8  N   LIG    1      -30.231  94.671  21.482  0.00  0.00    -0.171 NA
ATOM      9  C   LIG    1      -30.618  94.709  22.763  0.00  0.00    +0.165 A 
ENDROOT
BRANCH   4  10
ATOM     10  N   LIG    1      -34.548  91.827  19.674  0.00  0.00    -0.308 N 
ATOM     11  C   LIG    1      -34.565  90.347  19.511  0.00  0.00    +0.105 C 
ATOM     12  C   LIG    1      -36.005  89.929  19.869  0.00  0.00    +0.029 C 
ATOM     13  C   LIG    1      -36.541  91.102  20.669  0.00  0.00    +0.021 C 
ATOM     14  C   LIG    1      -35.899  92.292  19.977  0.00  0.00    +0.107 C 
BRANCH  11  15
ATOM     15  C   LIG    1      -34.186  89.908  18.105  0.00  0.00    -0.024 A 
ATOM     16  C   LIG    1      -33.463  88.728  17.869  0.00  0.00    +0.043 A 
ATOM     17  C   LIG    1      -33.154  88.332  16.571  0.00  0.00    +0.124 A 
ATOM     18  F   LIG    1      -32.488  87.186  16.374  0.00  0.00    -0.205 F 
ATOM     19  C   LIG    1      -33.524  89.102  15.477  0.00  0.00    +0.038 A 
ATOM     20  C   LIG    1      -34.207  90.298  15.689  0.00  0.00    +0.003 A 
ATOM     21  C   LIG    1      -34.534  90.699  16.992  0.00  0.00    +0.005 A 
ENDBRANCH  11  15
ENDBRANCH   4  10
BRANCH   1  23
ATOM     22  C   LIG    1      -32.283  92.815  24.931  0.00  0.00    +0.239 C 
ATOM     23  N   LIG    1      -32.433  93.903  24.248  0.00  0.00    -0.206 NA
BRANCH  22  24
ATOM     24  C   LIG    1      -32.904  92.570  26.274  0.00  0.00    +0.125 A 
ATOM     25  N   LIG    1      -32.673  91.356  26.853  0.00  0.00    -0.250 NA
ATOM     26  C   LIG    1      -33.236  91.123  28.053  0.00  0.00    +0.111 A 
ATOM     27  C   LIG    1      -34.023  92.043  28.721  0.00  0.00    +0.020 A 
ATOM     28  C   LIG    1      -34.242  93.282  28.123  0.00  0.00    +0.004 A 
ATOM     29  C   LIG    1      -33.673  93.556  26.880  0.00  0.00    +0.033 A 
ENDBRANCH  22  24
BRANCH  22  30
ATOM     30  O   LIG    1      -31.572  91.718  24.581  0.00  0.00    -0.491 OA
ATOM     31  H   LIG    1      -32.148  90.936  24.512  0.00  0.00    +0.294 HD
ENDBRANCH  22  30
ENDBRANCH   1  23
TORSDOF 5
ENDMDL
MODEL 2
REMARK VINA RESULT:      -6.3     17.993     19.839
REMARK  Name = pdb/CHEMBL3939888.pdb
REMARK                            x       y       z     vdW  Elec       q    Type
REMARK                         _______ _______ _______ _____ _____    ______ ____
ROOT
ATOM      1  C   LIG    1      -38.036  76.140  24.955  0.00  0.00    +0.131 A 
ATOM      2  C   LIG    1      -38.592  74.912  24.694  0.00  0.00    +0.183 A 
ATOM      3  N   LIG    1      -38.141  73.642  24.929  0.00  0.00    -0.211 NA
ATOM      4  C   LIG    1      -38.923  72.625  24.640  0.00  0.00    +0.126 A 
ATOM      5  C   LIG    1      -40.285  72.842  24.015  0.00  0.00    +0.063 A 
ATOM      6  C   LIG    1      -40.683  74.107  23.817  0.00  0.00    +0.118 A 
ATOM      7  N   LIG    1      -39.852  75.164  24.157  0.00  0.00    -0.220 N 
ATOM      8  N   LIG    1      -40.103  76.494  24.044  0.00  0.00    -0.171 NA
ATOM      9  C   LIG    1      -38.994  77.074  24.518  0.00  0.00    +0.165 A 
ENDROOT
BRANCH   4  10
ATOM     10  N   LIG    1      -38.475  71.342  24.941  0.00  0.00    -0.308 N 
ATOM     11  C   LIG    1      -37.457  70.653  24.100  0.00  0.00    +0.105 C 
ATOM     12  C   LIG    1      -36.671  69.765  25.085  0.00  0.00    +0.029 C 
ATOM     13  C   LIG    1      -36.959  70.378  26.444  0.00  0.00    +0.021 C 
ATOM     14  C   LIG    1      -38.404  70.822  26.304  0.00  0.00    +0.107 C 
BRANCH  11  15
ATOM     15  C   LIG    1      -38.081  69.833  22.981  0.00  0.00    -0.024 A 
ATOM     16  C   LIG    1      -39.459  69.571  22.937  0.00  0.00    +0.043 A 
ATOM     17  C   LIG    1      -40.010  68.842  21.887  0.00  0.00    +0.124 A 
ATOM     18  F   LIG    1      -41.334  68.632  21.857  0.00  0.00    -0.205 F 
ATOM     19  C   LIG    1      -39.215  68.330  20.872  0.00  0.00    +0.038 A 
ATOM     20  C   LIG    1      -37.839  68.543  20.915  0.00  0.00    +0.003 A 
ATOM     21  C   LIG    1      -37.275  69.286  21.962  0.00  0.00    +0.005 A 
ENDBRANCH  11  15
ENDBRANCH   4  10
BRANCH   1  23
ATOM     22  C   LIG    1      -36.429  76.136  26.657  0.00  0.00    +0.239 C 
ATOM     23  N   LIG    1      -36.775  76.495  25.464  0.00  0.00    -0.206 NA
BRANCH  22  24
ATOM     24  C   LIG    1      -35.120  76.487  27.298  0.00  0.00    +0.125 A 
ATOM     25  N   LIG    1      -34.775  77.807  27.324  0.00  0.00    -0.250 NA
ATOM     26  C   LIG    1      -33.595  78.129  27.886  0.00  0.00    +0.111 A 
ATOM     27  C   LIG    1      -32.731  77.202  28.436  0.00  0.00    +0.020 A 
ATOM     28  C   LIG    1      -33.101  75.859  28.413  0.00  0.00    +0.004 A 
ATOM     29  C   LIG    1      -34.315  75.490  27.838  0.00  0.00    +0.033 A 
ENDBRANCH  22  24
BRANCH  22  30
ATOM     30  O   LIG    1      -37.155  75.406  27.538  0.00  0.00    -0.491 OA
ATOM     31  H   LIG    1      -36.607  74.720  27.957  0.00  0.00    +0.294 HD
ENDBRANCH  22  30
ENDBRANCH   1  23
TORSDOF 5
ENDMDL
MODEL 3
REMARK VINA RESULT:      -6.3     12.996     15.154
REMARK  Name = pdb/CHEMBL3939888.pdb
REMARK                            x       y       z     vdW  Elec       q    Type
REMARK                         _______ _______ _______ _____ _____    ______ ____
ROOT
ATOM      1  C   LIG    1      -20.882  85.703  13.628  0.00  0.00    +0.131 A 
ATOM      2  C   LIG    1      -21.407  86.771  12.944  0.00  0.00    +0.183 A 
ATOM      3  N   LIG    1      -22.609  86.944  12.314  0.00  0.00    -0.211 NA
ATOM      4  C   LIG    1      -22.891  88.116  11.790  0.00  0.00    +0.126 A 
ATOM      5  C   LIG    1      -21.890  89.251  11.837  0.00  0.00    +0.063 A 
ATOM      6  C   LIG    1      -20.732  89.032  12.476  0.00  0.00    +0.118 A 
ATOM      7  N   LIG    1      -20.470  87.796  13.047  0.00  0.00    -0.220 N 
ATOM      8  N   LIG    1      -19.368  87.413  13.742  0.00  0.00    -0.171 NA
ATOM      9  C   LIG    1      -19.623  86.143  14.078  0.00  0.00    +0.165 A 
ENDROOT
BRANCH   4  10
ATOM     10  N   LIG    1      -24.142  88.295  11.207  0.00  0.00    -0.308 N 
ATOM     11  C   LIG    1      -24.384  89.352  10.186  0.00  0.00    +0.105 C 
ATOM     12  C   LIG    1      -25.464  88.761   9.258  0.00  0.00    +0.029 C 
ATOM     13  C   LIG    1      -25.392  87.266   9.514  0.00  0.00    +0.021 C 
ATOM     14  C   LIG    1      -25.088  87.202  11.000  0.00  0.00    +0.107 C 
BRANCH  11  15
ATOM     15  C   LIG    1      -24.831  90.669  10.801  0.00  0.00    -0.024 A 
ATOM     16  C   LIG    1      -25.755  90.714  11.857  0.00  0.00    +0.043 A 
ATOM     17  C   LIG    1      -26.126  91.931  12.423  0.00  0.00    +0.124 A 
ATOM     18  F   LIG    1      -26.988  91.941  13.449  0.00  0.00    -0.205 F 
ATOM     19  C   LIG    1      -25.621  93.131  11.944  0.00  0.00    +0.038 A 
ATOM     20  C   LIG    1      -24.734  93.113  10.870  0.00  0.00    +0.003 A 
ATOM     21  C   LIG    1      -24.343  91.892  10.301  0.00  0.00    +0.005 A 
ENDBRANCH  11  15
ENDBRANCH   4  10
BRANCH   1  23
ATOM     22  C   LIG    1      -22.102  84.127  14.856  0.00  0.00    +0.239 C 
ATOM     23  N   LIG    1      -21.369  84.400  13.825  0.00  0.00    -0.206 NA
BRANCH  22  24
ATOM     24  C   LIG    1      -22.647  82.765  15.167  0.00  0.00    +0.125 A 
ATOM     25  N   LIG    1      -23.653  82.301  14.372  0.00  0.00    -0.250 NA
ATOM     26  C   LIG    1      -24.156  81.085  14.652  0.00  0.00    +0.111 A 
ATOM     27  C   LIG    1      -23.705  80.291  15.690  0.00  0.00    +0.020 A 
ATOM     28  C   LIG    1      -22.670  80.773  16.488  0.00  0.00    +0.004 A 
ATOM     29  C   LIG    1      -22.126  82.029  16.225  0.00  0.00    +0.033 A 
ENDBRANCH  22  24
BRANCH  22  30
ATOM     30  O   LIG    1      -22.501  84.981  15.829  0.00  0.00    -0.491 OA
ATOM     31  H   LIG    1      -22.064  85.845  15.735  0.00  0.00    +0.294 HD
ENDBRANCH  22  30
ENDBRANCH   1  23
TORSDOF 5
ENDMDL
MODEL 4
REMARK VINA RESULT:      -6.2     17.935     20.099
REMARK  Name = pdb/CHEMBL3939888.pdb
REMARK                            x       y       z     vdW  Elec       q    Type
REMARK                         _______ _______ _______ _____ _____    ______ ____
ROOT
ATOM      1  C   LIG    1      -28.232  77.002  32.567  0.00  0.00    +0.131 A 
ATOM      2  C   LIG    1      -29.494  76.643  32.163  0.00  0.00    +0.183 A 
ATOM      3  N   LIG    1      -29.988  76.282  30.939  0.00  0.00    -0.211 NA
ATOM      4  C   LIG    1      -31.244  75.909  30.843  0.00  0.00    +0.126 A 
ATOM      5  C   LIG    1      -32.154  75.918  32.054  0.00  0.00    +0.063 A 
ATOM      6  C   LIG    1      -31.617  76.269  33.231  0.00  0.00    +0.118 A 
ATOM      7  N   LIG    1      -30.280  76.630  33.312  0.00  0.00    -0.220 N 
ATOM      8  N   LIG    1      -29.577  76.990  34.417  0.00  0.00    -0.171 NA
ATOM      9  C   LIG    1      -28.344  77.224  33.953  0.00  0.00    +0.165 A 
ENDROOT
BRANCH   4  10
ATOM     10  N   LIG    1      -31.715  75.486  29.604  0.00  0.00    -0.308 N 
ATOM     11  C   LIG    1      -32.823  74.498  29.485  0.00  0.00    +0.105 C 
ATOM     12  C   LIG    1      -33.561  74.891  28.189  0.00  0.00    +0.029 C 
ATOM     13  C   LIG    1      -33.140  76.329  27.947  0.00  0.00    +0.021 C 
ATOM     14  C   LIG    1      -31.695  76.332  28.413  0.00  0.00    +0.107 C 
BRANCH  11  15
ATOM     15  C   LIG    1      -32.324  73.062  29.433  0.00  0.00    -0.024 A 
ATOM     16  C   LIG    1      -30.977  72.740  29.657  0.00  0.00    +0.043 A 
ATOM     17  C   LIG    1      -30.551  71.415  29.633  0.00  0.00    +0.124 A 
ATOM     18  F   LIG    1      -29.263  71.135  29.878  0.00  0.00    -0.205 F 
ATOM     19  C   LIG    1      -31.434  70.380  29.360  0.00  0.00    +0.038 A 
ATOM     20  C   LIG    1      -32.769  70.679  29.095  0.00  0.00    +0.003 A 
ATOM     21  C   LIG    1      -33.211  72.010  29.129  0.00  0.00    +0.005 A 
ENDBRANCH  11  15
ENDBRANCH   4  10
BRANCH   1  23
ATOM     22  C   LIG    1      -26.174  76.262  31.734  0.00  0.00    +0.239 C 
ATOM     23  N   LIG    1      -27.050  77.208  31.837  0.00  0.00    -0.206 NA
BRANCH  22  24
ATOM     24  C   LIG    1      -24.873  76.393  31.000  0.00  0.00    +0.125 A 
ATOM     25  N   LIG    1      -24.030  75.321  31.033  0.00  0.00    -0.250 NA
ATOM     26  C   LIG    1      -22.854  75.435  30.387  0.00  0.00    +0.111 A 
ATOM     27  C   LIG    1      -22.467  76.568  29.696  0.00  0.00    +0.020 A 
ATOM     28  C   LIG    1      -23.342  77.652  29.662  0.00  0.00    +0.004 A 
ATOM     29  C   LIG    1      -24.568  77.567  30.321  0.00  0.00    +0.033 A 
ENDBRANCH  22  24
BRANCH  22  30
ATOM     30  O   LIG    1      -26.248  75.015  32.255  0.00  0.00    -0.491 OA
ATOM     31  H   LIG    1      -26.791  74.434  31.695  0.00  0.00    +0.294 HD
ENDBRANCH  22  30
ENDBRANCH   1  23
TORSDOF 5
ENDMDL
MODEL 5
REMARK VINA RESULT:      -6.1     21.620     23.410
REMARK  Name = pdb/CHEMBL3939888.pdb
REMARK                            x       y       z     vdW  Elec       q    Type
REMARK                         _______ _______ _______ _____ _____    ______ ____
ROOT
ATOM      1  C   LIG    1      -24.870  74.182  31.391  0.00  0.00    +0.131 A 
ATOM      2  C   LIG    1      -25.306  72.925  31.054  0.00  0.00    +0.183 A 
ATOM      3  N   LIG    1      -24.768  71.964  30.242  0.00  0.00    -0.211 NA
ATOM      4  C   LIG    1      -25.367  70.797  30.153  0.00  0.00    +0.126 A 
ATOM      5  C   LIG    1      -26.657  70.524  30.898  0.00  0.00    +0.063 A 
ATOM      6  C   LIG    1      -27.133  71.495  31.689  0.00  0.00    +0.118 A 
ATOM      7  N   LIG    1      -26.468  72.707  31.790  0.00  0.00    -0.220 N 
ATOM      8  N   LIG    1      -26.797  73.781  32.553  0.00  0.00    -0.171 NA
ATOM      9  C   LIG    1      -25.832  74.671  32.295  0.00  0.00    +0.165 A 
ENDROOT
BRANCH   4  10
ATOM     10  N   LIG    1      -24.775  69.810  29.370  0.00  0.00    -0.308 N 
ATOM     11  C   LIG    1      -23.700  70.130  28.390  0.00  0.00    +0.105 C 
ATOM     12  C   LIG    1      -22.806  68.874  28.366  0.00  0.00    +0.029 C 
ATOM     13  C   LIG    1      -23.139  68.159  29.662  0.00  0.00    +0.021 C 
ATOM     14  C   LIG    1      -24.627  68.426  29.811  0.00  0.00    +0.107 C 
BRANCH  11  15
ATOM     15  C   LIG    1      -24.246  70.456  27.008  0.00  0.00    -0.024 A 
ATOM     16  C   LIG    1      -25.427  69.873  26.524  0.00  0.00    +0.043 A 
ATOM     17  C   LIG    1      -25.922  70.211  25.267  0.00  0.00    +0.124 A 
ATOM     18  F   LIG    1      -27.067  69.659  24.842  0.00  0.00    -0.205 F 
ATOM     19  C   LIG    1      -25.251  71.107  24.447  0.00  0.00    +0.038 A 
ATOM     20  C   LIG    1      -24.055  71.668  24.890  0.00  0.00    +0.003 A 
ATOM     21  C   LIG    1      -23.555  71.344  26.160  0.00  0.00    +0.005 A 
ENDBRANCH  11  15
ENDBRANCH   4  10
BRANCH   1  23
ATOM     22  C   LIG    1      -22.608  74.777  31.469  0.00  0.00    +0.239 C 
ATOM     23  N   LIG    1      -23.775  74.935  30.934  0.00  0.00    -0.206 NA
BRANCH  22  24
ATOM     24  C   LIG    1      -21.385  75.550  31.071  0.00  0.00    +0.125 A 
ATOM     25  N   LIG    1      -20.288  75.433  31.872  0.00  0.00    -0.250 NA
ATOM     26  C   LIG    1      -19.191  76.133  31.529  0.00  0.00    +0.111 A 
ATOM     27  C   LIG    1      -19.121  76.949  30.415  0.00  0.00    +0.020 A 
ATOM     28  C   LIG    1      -20.246  77.050  29.599  0.00  0.00    +0.004 A 
ATOM     29  C   LIG    1      -21.399  76.339  29.927  0.00  0.00    +0.033 A 
ENDBRANCH  22  24
BRANCH  22  30
ATOM     30  O   LIG    1      -22.269  73.923  32.464  0.00  0.00    -0.491 OA
ATOM     31  H   LIG    1      -21.945  73.080  32.104  0.00  0.00    +0.294 HD
ENDBRANCH  22  30
ENDBRANCH   1  23
TORSDOF 5
ENDMDL
MODEL 6
REMARK VINA RESULT:      -6.1     17.204     20.463
REMARK  Name = pdb/CHEMBL3939888.pdb
REMARK                            x       y       z     vdW  Elec       q    Type
REMARK                         _______ _______ _______ _____ _____    ______ ____
ROOT
ATOM      1  C   LIG    1      -22.681  79.656  14.802  0.00  0.00    +0.131 A 
ATOM      2  C   LIG    1      -21.572  79.003  15.281  0.00  0.00    +0.183 A 
ATOM      3  N   LIG    1      -21.155  77.707  15.154  0.00  0.00    -0.211 NA
ATOM      4  C   LIG    1      -19.994  77.358  15.662  0.00  0.00    +0.126 A 
ATOM      5  C   LIG    1      -19.142  78.357  16.418  0.00  0.00    +0.063 A 
ATOM      6  C   LIG    1      -19.592  79.617  16.503  0.00  0.00    +0.118 A 
ATOM      7  N   LIG    1      -20.807  79.968  15.933  0.00  0.00    -0.220 N 
ATOM      8  N   LIG    1      -21.397  81.191  15.908  0.00  0.00    -0.171 NA
ATOM      9  C   LIG    1      -22.534  80.987  15.232  0.00  0.00    +0.165 A 
ENDROOT
BRANCH   4  10
ATOM     10  N   LIG    1      -19.555  76.051  15.471  0.00  0.00    -0.308 N 
ATOM     11  C   LIG    1      -20.498  74.955  15.114  0.00  0.00    +0.105 C 
ATOM     12  C   LIG    1      -19.669  73.993  14.241  0.00  0.00    +0.029 C 
ATOM     13  C   LIG    1      -18.503  74.841  13.764  0.00  0.00    +0.021 C 
ATOM     14  C   LIG    1      -18.224  75.723  14.969  0.00  0.00    +0.107 C 
BRANCH  11  15
ATOM     15  C   LIG    1      -21.069  74.252  16.337  0.00  0.00    -0.024 A 
ATOM     16  C   LIG    1      -20.256  73.515  17.211  0.00  0.00    +0.043 A 
ATOM     17  C   LIG    1      -20.797  72.904  18.339  0.00  0.00    +0.124 A 
ATOM     18  F   LIG    1      -19.991  72.231  19.171  0.00  0.00    -0.205 F 
ATOM     19  C   LIG    1      -22.154  72.982  18.617  0.00  0.00    +0.038 A 
ATOM     20  C   LIG    1      -22.988  73.674  17.741  0.00  0.00    +0.003 A 
ATOM     21  C   LIG    1      -22.450  74.303  16.609  0.00  0.00    +0.005 A 
ENDBRANCH  11  15
ENDBRANCH   4  10
BRANCH   1  23
ATOM     22  C   LIG    1      -24.822  78.714  14.744  0.00  0.00    +0.239 C 
ATOM     23  N   LIG    1      -23.802  79.181  14.101  0.00  0.00    -0.206 NA
BRANCH  22  24
ATOM     24  C   LIG    1      -26.053  78.161  14.088  0.00  0.00    +0.125 A 
ATOM     25  N   LIG    1      -26.609  77.049  14.648  0.00  0.00    -0.250 NA
ATOM     26  C   LIG    1      -27.706  76.539  14.059  0.00  0.00    +0.111 A 
ATOM     27  C   LIG    1      -28.293  77.084  12.932  0.00  0.00    +0.020 A 
ATOM     28  C   LIG    1      -27.720  78.227  12.377  0.00  0.00    +0.004 A 
ATOM     29  C   LIG    1      -26.583  78.780  12.962  0.00  0.00    +0.033 A 
ENDBRANCH  22  24
BRANCH  22  30
ATOM     30  O   LIG    1      -24.975  78.623  16.087  0.00  0.00    -0.491 OA
ATOM     31  H   LIG    1      -24.116  78.671  16.540  0.00  0.00    +0.294 HD
ENDBRANCH  22  30
ENDBRANCH   1  23
TORSDOF 5
ENDMDL
MODEL 7
REMARK VINA RESULT:      -6.1     19.295     22.014
REMARK  Name = pdb/CHEMBL3939888.pdb
REMARK                            x       y       z     vdW  Elec       q    Type
REMARK                         _______ _______ _______ _____ _____    ______ ____
ROOT
ATOM      1  C   LIG    1      -23.207  77.307  30.825  0.00  0.00    +0.131 A 
ATOM      2  C   LIG    1      -21.905  77.505  31.211  0.00  0.00    +0.183 A 
ATOM      3  N   LIG    1      -21.363  77.951  32.386  0.00  0.00    -0.211 NA
ATOM      4  C   LIG    1      -20.056  77.975  32.516  0.00  0.00    +0.126 A 
ATOM      5  C   LIG    1      -19.151  77.560  31.374  0.00  0.00    +0.063 A 
ATOM      6  C   LIG    1      -19.733  77.119  30.250  0.00  0.00    +0.118 A 
ATOM      7  N   LIG    1      -21.115  77.075  30.147  0.00  0.00    -0.220 N 
ATOM      8  N   LIG    1      -21.862  76.642  29.099  0.00  0.00    -0.171 NA
ATOM      9  C   LIG    1      -23.124  76.798  29.515  0.00  0.00    +0.165 A 
ENDROOT
BRANCH   4  10
ATOM     10  N   LIG    1      -19.521  78.374  33.738  0.00  0.00    -0.308 N 
ATOM     11  C   LIG    1      -20.307  78.286  35.000  0.00  0.00    +0.105 C 
ATOM     12  C   LIG    1      -19.259  78.007  36.096  0.00  0.00    +0.029 C 
ATOM     13  C   LIG    1      -18.061  77.472  35.332  0.00  0.00    +0.021 C 
ATOM     14  C   LIG    1      -18.097  78.286  34.051  0.00  0.00    +0.107 C 
BRANCH  11  15
ATOM     15  C   LIG    1      -21.095  79.555  35.288  0.00  0.00    -0.024 A 
ATOM     16  C   LIG    1      -20.481  80.703  35.812  0.00  0.00    +0.043 A 
ATOM     17  C   LIG    1      -21.219  81.861  36.040  0.00  0.00    +0.124 A 
ATOM     18  F   LIG    1      -20.600  82.951  36.514  0.00  0.00    -0.205 F 
ATOM     19  C   LIG    1      -22.581  81.907  35.784  0.00  0.00    +0.038 A 
ATOM     20  C   LIG    1      -23.221  80.768  35.302  0.00  0.00    +0.003 A 
ATOM     21  C   LIG    1      -22.484  79.600  35.057  0.00  0.00    +0.005 A 
ENDBRANCH  11  15
ENDBRANCH   4  10
BRANCH   1  23
ATOM     22  C   LIG    1      -25.332  76.680  31.579  0.00  0.00    +0.239 C 
ATOM     23  N   LIG    1      -24.419  77.591  31.477  0.00  0.00    -0.206 NA
BRANCH  22  24
ATOM     24  C   LIG    1      -26.665  76.893  32.232  0.00  0.00    +0.125 A 
ATOM     25  N   LIG    1      -27.745  77.032  31.410  0.00  0.00    -0.250 NA
ATOM     26  C   LIG    1      -28.943  77.235  31.987  0.00  0.00    +0.111 A 
ATOM     27  C   LIG    1      -29.132  77.303  33.354  0.00  0.00    +0.020 A 
ATOM     28  C   LIG    1      -28.023  77.149  34.183  0.00  0.00    +0.004 A 
ATOM     29  C   LIG    1      -26.767  76.937  33.617  0.00  0.00    +0.033 A 
ENDBRANCH  22  24
BRANCH  22  30
ATOM     30  O   LIG    1      -25.274  75.405  31.128  0.00  0.00    -0.491 OA
ATOM     31  H   LIG    1      -24.353  75.101  31.058  0.00  0.00    +0.294 HD
ENDBRANCH  22  30
ENDBRANCH   1  23
TORSDOF 5
ENDMDL
MODEL 8
REMARK VINA RESULT:      -6.1     18.791     21.138
REMARK  Name = pdb/CHEMBL3939888.pdb
REMARK                            x       y       z     vdW  Elec       q    Type
REMARK                         _______ _______ _______ _____ _____    ______ ____
ROOT
ATOM      1  C   LIG    1      -27.541  77.038  33.981  0.00  0.00    +0.131 A 
ATOM      2  C   LIG    1      -26.274  77.525  33.775  0.00  0.00    +0.183 A 
ATOM      3  N   LIG    1      -25.411  77.397  32.721  0.00  0.00    -0.211 NA
ATOM      4  C   LIG    1      -24.266  78.040  32.754  0.00  0.00    +0.126 A 
ATOM      5  C   LIG    1      -23.875  78.877  33.954  0.00  0.00    +0.063 A 
ATOM      6  C   LIG    1      -24.762  78.979  34.954  0.00  0.00    +0.118 A 
ATOM      7  N   LIG    1      -25.978  78.315  34.884  0.00  0.00    -0.220 N 
ATOM      8  N   LIG    1      -26.990  78.324  35.789  0.00  0.00    -0.171 NA
ATOM      9  C   LIG    1      -27.924  77.540  35.238  0.00  0.00    +0.165 A 
ENDROOT
BRANCH   4  10
ATOM     10  N   LIG    1      -23.425  77.948  31.648  0.00  0.00    -0.308 N 
ATOM     11  C   LIG    1      -22.253  77.030  31.632  0.00  0.00    +0.105 C 
ATOM     12  C   LIG    1      -22.112  76.600  30.158  0.00  0.00    +0.029 C 
ATOM     13  C   LIG    1      -23.474  76.894  29.556  0.00  0.00    +0.021 C 
ATOM     14  C   LIG    1      -23.884  78.166  30.278  0.00  0.00    +0.107 C 
BRANCH  11  15
ATOM     15  C   LIG    1      -20.984  77.693  32.146  0.00  0.00    -0.024 A 
ATOM     16  C   LIG    1      -20.983  78.490  33.301  0.00  0.00    +0.043 A 
ATOM     17  C   LIG    1      -19.803  79.062  33.768  0.00  0.00    +0.124 A 
ATOM     18  F   LIG    1      -19.828  79.796  34.889  0.00  0.00    -0.205 F 
ATOM     19  C   LIG    1      -18.603  78.885  33.095  0.00  0.00    +0.038 A 
ATOM     20  C   LIG    1      -18.586  78.130  31.924  0.00  0.00    +0.003 A 
ATOM     21  C   LIG    1      -19.767  77.540  31.452  0.00  0.00    +0.005 A 
ENDBRANCH  11  15
ENDBRANCH   4  10
BRANCH   1  23
ATOM     22  C   LIG    1      -28.922  76.592  32.145  0.00  0.00    +0.239 C 
ATOM     23  N   LIG    1      -28.333  76.166  33.215  0.00  0.00    -0.206 NA
BRANCH  22  24
ATOM     24  C   LIG    1      -29.807  75.748  31.277  0.00  0.00    +0.125 A 
ATOM     25  N   LIG    1      -30.379  76.354  30.196  0.00  0.00    -0.250 NA
ATOM     26  C   LIG    1      -31.184  75.607  29.419  0.00  0.00    +0.111 A 
ATOM     27  C   LIG    1      -31.453  74.272  29.656  0.00  0.00    +0.020 A 
ATOM     28  C   LIG    1      -30.854  73.663  30.756  0.00  0.00    +0.004 A 
ATOM     29  C   LIG    1      -30.015  74.408  31.583  0.00  0.00    +0.033 A 
ENDBRANCH  22  24
BRANCH  22  30
ATOM     30  O   LIG    1      -28.869  77.838  31.619  0.00  0.00    -0.491 OA
ATOM     31  H   LIG    1      -27.949  78.123  31.488  0.00  0.00    +0.294 HD
ENDBRANCH  22  30
ENDBRANCH   1  23
TORSDOF 5
ENDMDL
MODEL 9
REMARK VINA RESULT:      -6.1     16.585     20.149
REMARK  Name = pdb/CHEMBL3939888.pdb
REMARK                            x       y       z     vdW  Elec       q    Type
REMARK                         _______ _______ _______ _____ _____    ______ ____
ROOT
ATOM      1  C   LIG    1      -26.636  77.382  13.194  0.00  0.00    +0.131 A 
ATOM      2  C   LIG    1      -26.745  76.028  13.393  0.00  0.00    +0.183 A 
ATOM      3  N   LIG    1      -25.948  75.141  14.063  0.00  0.00    -0.211 NA
ATOM      4  C   LIG    1      -26.332  73.888  14.163  0.00  0.00    +0.126 A 
ATOM      5  C   LIG    1      -27.613  73.411  13.510  0.00  0.00    +0.063 A 
ATOM      6  C   LIG    1      -28.363  74.323  12.876  0.00  0.00    +0.118 A 
ATOM      7  N   LIG    1      -27.951  75.646  12.810  0.00  0.00    -0.220 N 
ATOM      8  N   LIG    1      -28.593  76.694  12.231  0.00  0.00    -0.171 NA
ATOM      9  C   LIG    1      -27.783  77.735  12.458  0.00  0.00    +0.165 A 
ENDROOT
BRANCH   4  10
ATOM     10  N   LIG    1      -25.541  73.011  14.899  0.00  0.00    -0.308 N 
ATOM     11  C   LIG    1      -25.933  71.589  15.104  0.00  0.00    +0.105 C 
ATOM     12  C   LIG    1      -24.599  70.822  15.184  0.00  0.00    +0.029 C 
ATOM     13  C   LIG    1      -23.596  71.758  14.534  0.00  0.00    +0.021 C 
ATOM     14  C   LIG    1      -24.087  73.125  14.979  0.00  0.00    +0.107 C 
BRANCH  11  15
ATOM     15  C   LIG    1      -26.772  71.388  16.357  0.00  0.00    -0.024 A 
ATOM     16  C   LIG    1      -26.254  70.755  17.498  0.00  0.00    +0.043 A 
ATOM     17  C   LIG    1      -27.033  70.609  18.643  0.00  0.00    +0.124 A 
ATOM     18  F   LIG    1      -26.502  70.027  19.727  0.00  0.00    -0.205 F 
ATOM     19  C   LIG    1      -28.346  71.055  18.681  0.00  0.00    +0.038 A 
ATOM     20  C   LIG    1      -28.895  71.649  17.547  0.00  0.00    +0.003 A 
ATOM     21  C   LIG    1      -28.115  71.813  16.393  0.00  0.00    +0.005 A 
ENDBRANCH  11  15
ENDBRANCH   4  10
BRANCH   1  23
ATOM     22  C   LIG    1      -25.603  78.844  14.701  0.00  0.00    +0.239 C 
ATOM     23  N   LIG    1      -25.617  78.288  13.533  0.00  0.00    -0.206 NA
BRANCH  22  24
ATOM     24  C   LIG    1      -24.575  79.841  15.147  0.00  0.00    +0.125 A 
ATOM     25  N   LIG    1      -24.673  81.104  14.640  0.00  0.00    -0.250 NA
ATOM     26  C   LIG    1      -23.747  82.002  15.025  0.00  0.00    +0.111 A 
ATOM     27  C   LIG    1      -22.720  81.712  15.904  0.00  0.00    +0.020 A 
ATOM     28  C   LIG    1      -22.639  80.422  16.423  0.00  0.00    +0.004 A 
ATOM     29  C   LIG    1      -23.581  79.467  16.043  0.00  0.00    +0.033 A 
ENDBRANCH  22  24
BRANCH  22  30
ATOM     30  O   LIG    1      -26.482  78.653  15.712  0.00  0.00    -0.491 OA
ATOM     31  H   LIG    1      -26.702  77.711  15.810  0.00  0.00    +0.294 HD
ENDBRANCH  22  30
ENDBRANCH   1  23
TORSDOF 5
ENDMDL
