MODEL 1
REMARK VINA RESULT:      -6.0      0.000      0.000
REMARK  Name = pdb/CHEMBL3639583.pdb
REMARK                            x       y       z     vdW  Elec       q    Type
REMARK                         _______ _______ _______ _____ _____    ______ ____
ROOT
ATOM      1  N   LIG    1      -25.559  77.591  33.194  0.00  0.00    -0.266 N 
ATOM      2  C   LIG    1      -25.166  78.427  34.224  0.00  0.00    +0.168 A 
ATOM      3  N   LIG    1      -24.193  79.366  34.220  0.00  0.00    -0.213 NA
ATOM      4  C   LIG    1      -24.094  80.083  35.362  0.00  0.00    +0.122 A 
ATOM      5  C   LIG    1      -24.946  79.888  36.458  0.00  0.00    +0.046 A 
ATOM      6  C   LIG    1      -25.910  78.873  36.445  0.00  0.00    +0.035 A 
ATOM      7  C   LIG    1      -26.025  78.124  35.274  0.00  0.00    +0.108 A 
ATOM      8  N   LIG    1      -26.880  77.105  34.949  0.00  0.00    -0.234 NA
ATOM      9  C   LIG    1      -26.576  76.810  33.703  0.00  0.00    +0.207 A 
ENDROOT
BRANCH   1  14
ATOM     10  C   LIG    1      -23.788  77.362  30.062  0.00  0.00    +0.213 A 
ATOM     11  N   LIG    1      -25.059  77.775  29.769  0.00  0.00    -0.245 N 
ATOM     12  H   LIG    1      -25.438  77.992  28.850  0.00  0.00    +0.192 HD
ATOM     13  N   LIG    1      -25.866  77.889  30.845  0.00  0.00    -0.153 NA
ATOM     14  C   LIG    1      -25.064  77.547  31.862  0.00  0.00    +0.165 A 
ATOM     15  C   LIG    1      -23.774  77.200  31.438  0.00  0.00    +0.115 A 
BRANCH  10  16
ATOM     16  O   LIG    1      -22.882  77.185  29.105  0.00  0.00    -0.477 OA
BRANCH  16  18
ATOM     17  C   LIG    1      -20.535  77.102  29.631  0.00  0.00    +0.048 C 
ATOM     18  C   LIG    1      -21.806  76.302  29.437  0.00  0.00    +0.227 C 
ENDBRANCH  16  18
ENDBRANCH  10  16
ENDBRANCH   1  14
BRANCH   4  19
ATOM     19  N   LIG    1      -23.192  81.167  35.418  0.00  0.00    -0.321 N 
ATOM     20  H   LIG    1      -23.664  81.987  35.800  0.00  0.00    +0.148 HD
BRANCH  19  21
ATOM     21  C   LIG    1      -21.989  80.925  36.240  0.00  0.00    +0.120 C 
BRANCH  21  22
ATOM     22  C   LIG    1      -21.792  82.060  37.258  0.00  0.00    +0.062 A 
ATOM     23  N   LIG    1      -22.858  82.403  38.041  0.00  0.00    -0.255 NA
ATOM     24  C   LIG    1      -22.677  83.417  38.925  0.00  0.00    +0.149 A 
ATOM     25  C   LIG    1      -21.491  84.113  39.066  0.00  0.00    +0.141 A 
ATOM     26  F   LIG    1      -21.377  85.100  39.963  0.00  0.00    -0.204 F 
ATOM     27  C   LIG    1      -20.417  83.769  38.262  0.00  0.00    +0.042 A 
ATOM     28  C   LIG    1      -20.565  82.728  37.343  0.00  0.00    +0.028 A 
ENDBRANCH  21  22
BRANCH  21  29
ATOM     29  C   LIG    1      -20.765  80.777  35.310  0.00  0.00    +0.025 C 
ATOM     30  C   LIG    1      -20.563  79.388  34.713  0.00  0.00    +0.006 C 
ENDBRANCH  21  29
ENDBRANCH  19  21
ENDBRANCH   4  19
TORSDOF 7
ENDMDL
MODEL 2
REMARK VINA RESULT:      -5.7      2.554      4.924
REMARK  Name = pdb/CHEMBL3639583.pdb
REMARK                            x       y       z     vdW  Elec       q    Type
REMARK                         _______ _______ _______ _____ _____    ______ ____
ROOT
ATOM      1  N   LIG    1      -21.423  77.299  30.479  0.00  0.00    -0.266 N 
ATOM      2  C   LIG    1      -20.598  77.830  31.456  0.00  0.00    +0.168 A 
ATOM      3  N   LIG    1      -20.947  78.513  32.571  0.00  0.00    -0.213 NA
ATOM      4  C   LIG    1      -19.915  78.839  33.380  0.00  0.00    +0.122 A 
ATOM      5  C   LIG    1      -18.588  78.481  33.102  0.00  0.00    +0.046 A 
ATOM      6  C   LIG    1      -18.259  77.817  31.915  0.00  0.00    +0.035 A 
ATOM      7  C   LIG    1      -19.313  77.472  31.068  0.00  0.00    +0.108 A 
ATOM      8  N   LIG    1      -19.314  76.802  29.875  0.00  0.00    -0.234 NA
ATOM      9  C   LIG    1      -20.586  76.716  29.550  0.00  0.00    +0.207 A 
ENDROOT
BRANCH   1  14
ATOM     10  C   LIG    1      -24.991  76.825  30.681  0.00  0.00    +0.213 A 
ATOM     11  N   LIG    1      -24.779  77.884  29.842  0.00  0.00    -0.245 N 
ATOM     12  H   LIG    1      -25.484  78.431  29.352  0.00  0.00    +0.192 HD
ATOM     13  N   LIG    1      -23.479  78.208  29.675  0.00  0.00    -0.153 NA
ATOM     14  C   LIG    1      -22.843  77.304  30.433  0.00  0.00    +0.165 A 
ATOM     15  C   LIG    1      -23.725  76.433  31.088  0.00  0.00    +0.115 A 
BRANCH  10  16
ATOM     16  O   LIG    1      -26.220  76.399  30.958  0.00  0.00    -0.477 OA
BRANCH  16  18
ATOM     17  C   LIG    1      -28.245  76.842  32.180  0.00  0.00    +0.048 C 
ATOM     18  C   LIG    1      -26.732  76.798  32.233  0.00  0.00    +0.227 C 
ENDBRANCH  16  18
ENDBRANCH  10  16
ENDBRANCH   1  14
BRANCH   4  19
ATOM     19  N   LIG    1      -20.182  79.447  34.625  0.00  0.00    -0.321 N 
ATOM     20  H   LIG    1      -20.278  80.456  34.502  0.00  0.00    +0.148 HD
BRANCH  19  21
ATOM     21  C   LIG    1      -21.406  78.964  35.297  0.00  0.00    +0.120 C 
BRANCH  21  22
ATOM     22  C   LIG    1      -22.294  80.146  35.717  0.00  0.00    +0.062 A 
ATOM     23  N   LIG    1      -23.631  79.912  35.877  0.00  0.00    -0.255 NA
ATOM     24  C   LIG    1      -24.408  80.966  36.233  0.00  0.00    +0.149 A 
ATOM     25  C   LIG    1      -23.924  82.246  36.432  0.00  0.00    +0.141 A 
ATOM     26  F   LIG    1      -24.745  83.241  36.789  0.00  0.00    -0.204 F 
ATOM     27  C   LIG    1      -22.571  82.481  36.258  0.00  0.00    +0.042 A 
ATOM     28  C   LIG    1      -21.740  81.419  35.895  0.00  0.00    +0.028 A 
ENDBRANCH  21  22
BRANCH  21  29
ATOM     29  C   LIG    1      -21.005  78.095  36.509  0.00  0.00    +0.025 C 
ATOM     30  C   LIG    1      -19.632  78.394  37.101  0.00  0.00    +0.006 C 
ENDBRANCH  21  29
ENDBRANCH  19  21
ENDBRANCH   4  19
TORSDOF 7
ENDMDL
MODEL 3
REMARK VINA RESULT:      -5.7      2.587      3.946
REMARK  Name = pdb/CHEMBL3639583.pdb
REMARK                            x       y       z     vdW  Elec       q    Type
REMARK                         _______ _______ _______ _____ _____    ______ ____
ROOT
ATOM      1  N   LIG    1      -25.191  78.009  33.299  0.00  0.00    -0.266 N 
ATOM      2  C   LIG    1      -24.596  78.835  34.238  0.00  0.00    +0.168 A 
ATOM      3  N   LIG    1      -23.484  79.594  34.105  0.00  0.00    -0.213 NA
ATOM      4  C   LIG    1      -23.192  80.360  35.180  0.00  0.00    +0.122 A 
ATOM      5  C   LIG    1      -23.988  80.386  36.334  0.00  0.00    +0.046 A 
ATOM      6  C   LIG    1      -25.104  79.551  36.454  0.00  0.00    +0.035 A 
ATOM      7  C   LIG    1      -25.420  78.754  35.354  0.00  0.00    +0.108 A 
ATOM      8  N   LIG    1      -26.451  77.874  35.158  0.00  0.00    -0.234 NA
ATOM      9  C   LIG    1      -26.285  77.448  33.925  0.00  0.00    +0.207 A 
ENDROOT
BRANCH   1  14
ATOM     10  C   LIG    1      -23.662  77.407  30.090  0.00  0.00    +0.213 A 
ATOM     11  N   LIG    1      -24.978  77.698  29.854  0.00  0.00    -0.245 N 
ATOM     12  H   LIG    1      -25.442  77.751  28.950  0.00  0.00    +0.192 HD
ATOM     13  N   LIG    1      -25.703  77.929  30.969  0.00  0.00    -0.153 NA
ATOM     14  C   LIG    1      -24.800  77.792  31.950  0.00  0.00    +0.165 A 
ATOM     15  C   LIG    1      -23.528  77.457  31.469  0.00  0.00    +0.115 A 
BRANCH  10  16
ATOM     16  O   LIG    1      -22.825  77.138  29.093  0.00  0.00    -0.477 OA
BRANCH  16  18
ATOM     17  C   LIG    1      -20.451  77.010  29.468  0.00  0.00    +0.048 C 
ATOM     18  C   LIG    1      -21.756  76.243  29.416  0.00  0.00    +0.227 C 
ENDBRANCH  16  18
ENDBRANCH  10  16
ENDBRANCH   1  14
BRANCH   4  19
ATOM     19  N   LIG    1      -22.122  81.277  35.101  0.00  0.00    -0.321 N 
ATOM     20  H   LIG    1      -22.343  82.111  35.646  0.00  0.00    +0.148 HD
BRANCH  19  21
ATOM     21  C   LIG    1      -20.828  80.758  35.590  0.00  0.00    +0.120 C 
BRANCH  21  22
ATOM     22  C   LIG    1      -20.443  79.472  34.842  0.00  0.00    +0.062 A 
ATOM     23  N   LIG    1      -20.531  78.290  35.522  0.00  0.00    -0.255 NA
ATOM     24  C   LIG    1      -20.173  77.163  34.856  0.00  0.00    +0.149 A 
ATOM     25  C   LIG    1      -19.725  77.151  33.548  0.00  0.00    +0.141 A 
ATOM     26  F   LIG    1      -19.394  76.002  32.947  0.00  0.00    -0.204 F 
ATOM     27  C   LIG    1      -19.626  78.352  32.867  0.00  0.00    +0.042 A 
ATOM     28  C   LIG    1      -19.989  79.533  33.519  0.00  0.00    +0.028 A 
ENDBRANCH  21  22
BRANCH  21  29
ATOM     29  C   LIG    1      -20.924  80.522  37.113  0.00  0.00    +0.025 C 
ATOM     30  C   LIG    1      -20.116  81.487  37.975  0.00  0.00    +0.006 C 
ENDBRANCH  21  29
ENDBRANCH  19  21
ENDBRANCH   4  19
TORSDOF 7
ENDMDL
MODEL 4
REMARK VINA RESULT:      -5.6     14.301     17.413
REMARK  Name = pdb/CHEMBL3639583.pdb
REMARK                            x       y       z     vdW  Elec       q    Type
REMARK                         _______ _______ _______ _____ _____    ______ ____
ROOT
ATOM      1  N   LIG    1      -40.002  78.136  24.028  0.00  0.00    -0.266 N 
ATOM      2  C   LIG    1      -39.244  77.049  24.429  0.00  0.00    +0.168 A 
ATOM      3  N   LIG    1      -38.036  77.045  25.038  0.00  0.00    -0.213 NA
ATOM      4  C   LIG    1      -37.579  75.820  25.379  0.00  0.00    +0.122 A 
ATOM      5  C   LIG    1      -38.306  74.645  25.142  0.00  0.00    +0.046 A 
ATOM      6  C   LIG    1      -39.530  74.683  24.465  0.00  0.00    +0.035 A 
ATOM      7  C   LIG    1      -40.017  75.940  24.106  0.00  0.00    +0.108 A 
ATOM      8  N   LIG    1      -41.178  76.299  23.478  0.00  0.00    -0.234 NA
ATOM      9  C   LIG    1      -41.139  77.614  23.446  0.00  0.00    +0.207 A 
ENDROOT
BRANCH   1  14
ATOM     10  C   LIG    1      -39.194  81.647  23.891  0.00  0.00    +0.213 A 
ATOM     11  N   LIG    1      -39.309  81.319  25.214  0.00  0.00    -0.245 N 
ATOM     12  H   LIG    1      -39.179  81.935  26.013  0.00  0.00    +0.192 HD
ATOM     13  N   LIG    1      -39.634  80.028  25.438  0.00  0.00    -0.153 NA
ATOM     14  C   LIG    1      -39.714  79.517  24.201  0.00  0.00    +0.165 A 
ATOM     15  C   LIG    1      -39.465  80.472  23.207  0.00  0.00    +0.115 A 
BRANCH  10  16
ATOM     16  O   LIG    1      -38.896  82.886  23.510  0.00  0.00    -0.477 OA
BRANCH  16  18
ATOM     17  C   LIG    1      -37.935  84.981  24.201  0.00  0.00    +0.048 C 
ATOM     18  C   LIG    1      -37.774  83.476  24.173  0.00  0.00    +0.227 C 
ENDBRANCH  16  18
ENDBRANCH  10  16
ENDBRANCH   1  14
BRANCH   4  19
ATOM     19  N   LIG    1      -36.386  75.713  26.125  0.00  0.00    -0.321 N 
ATOM     20  H   LIG    1      -35.591  75.973  25.540  0.00  0.00    +0.148 HD
BRANCH  19  21
ATOM     21  C   LIG    1      -36.339  76.557  27.337  0.00  0.00    +0.120 C 
BRANCH  21  22
ATOM     22  C   LIG    1      -34.986  77.279  27.441  0.00  0.00    +0.062 A 
ATOM     23  N   LIG    1      -35.000  78.622  27.692  0.00  0.00    -0.255 NA
ATOM     24  C   LIG    1      -33.801  79.252  27.767  0.00  0.00    +0.149 A 
ATOM     25  C   LIG    1      -32.585  78.615  27.597  0.00  0.00    +0.141 A 
ATOM     26  F   LIG    1      -31.436  79.295  27.689  0.00  0.00    -0.204 F 
ATOM     27  C   LIG    1      -32.576  77.256  27.331  0.00  0.00    +0.042 A 
ATOM     28  C   LIG    1      -33.792  76.574  27.251  0.00  0.00    +0.028 A 
ENDBRANCH  21  22
BRANCH  21  29
ATOM     29  C   LIG    1      -36.610  75.674  28.575  0.00  0.00    +0.025 C 
ATOM     30  C   LIG    1      -36.332  74.186  28.388  0.00  0.00    +0.006 C 
ENDBRANCH  21  29
ENDBRANCH  19  21
ENDBRANCH   4  19
TORSDOF 7
ENDMDL
MODEL 5
REMARK VINA RESULT:      -5.6     14.288     17.307
REMARK  Name = pdb/CHEMBL3639583.pdb
REMARK                            x       y       z     vdW  Elec       q    Type
REMARK                         _______ _______ _______ _____ _____    ______ ____
ROOT
ATOM      1  N   LIG    1      -39.782  78.205  24.025  0.00  0.00    -0.266 N 
ATOM      2  C   LIG    1      -38.963  77.214  24.538  0.00  0.00    +0.168 A 
ATOM      3  N   LIG    1      -37.745  77.343  25.113  0.00  0.00    -0.213 NA
ATOM      4  C   LIG    1      -37.220  76.192  25.591  0.00  0.00    +0.122 A 
ATOM      5  C   LIG    1      -37.891  74.964  25.518  0.00  0.00    +0.046 A 
ATOM      6  C   LIG    1      -39.128  74.859  24.872  0.00  0.00    +0.035 A 
ATOM      7  C   LIG    1      -39.684  76.037  24.374  0.00  0.00    +0.108 A 
ATOM      8  N   LIG    1      -40.874  76.260  23.734  0.00  0.00    -0.234 NA
ATOM      9  C   LIG    1      -40.901  77.561  23.540  0.00  0.00    +0.207 A 
ENDROOT
BRANCH   1  14
ATOM     10  C   LIG    1      -39.351  81.741  24.578  0.00  0.00    +0.213 A 
ATOM     11  N   LIG    1      -39.218  81.531  23.232  0.00  0.00    -0.245 N 
ATOM     12  H   LIG    1      -39.046  82.233  22.515  0.00  0.00    +0.192 HD
ATOM     13  N   LIG    1      -39.332  80.239  22.859  0.00  0.00    -0.153 NA
ATOM     14  C   LIG    1      -39.561  79.609  24.020  0.00  0.00    +0.165 A 
ATOM     15  C   LIG    1      -39.570  80.483  25.115  0.00  0.00    +0.115 A 
BRANCH  10  16
ATOM     16  O   LIG    1      -39.245  82.960  25.100  0.00  0.00    -0.477 OA
BRANCH  16  18
ATOM     17  C   LIG    1      -36.931  83.417  25.580  0.00  0.00    +0.048 C 
ATOM     18  C   LIG    1      -38.106  83.712  24.671  0.00  0.00    +0.227 C 
ENDBRANCH  16  18
ENDBRANCH  10  16
ENDBRANCH   1  14
BRANCH   4  19
ATOM     19  N   LIG    1      -36.010  76.237  26.315  0.00  0.00    -0.321 N 
ATOM     20  H   LIG    1      -35.353  76.863  25.848  0.00  0.00    +0.148 HD
BRANCH  19  21
ATOM     21  C   LIG    1      -36.143  76.696  27.712  0.00  0.00    +0.120 C 
BRANCH  21  22
ATOM     22  C   LIG    1      -35.856  78.202  27.817  0.00  0.00    +0.062 A 
ATOM     23  N   LIG    1      -34.559  78.613  27.686  0.00  0.00    -0.255 NA
ATOM     24  C   LIG    1      -34.315  79.943  27.795  0.00  0.00    +0.149 A 
ATOM     25  C   LIG    1      -35.296  80.888  28.036  0.00  0.00    +0.141 A 
ATOM     26  F   LIG    1      -34.988  82.187  28.126  0.00  0.00    -0.204 F 
ATOM     27  C   LIG    1      -36.606  80.466  28.179  0.00  0.00    +0.042 A 
ATOM     28  C   LIG    1      -36.896  79.104  28.069  0.00  0.00    +0.028 A 
ENDBRANCH  21  22
BRANCH  21  29
ATOM     29  C   LIG    1      -35.190  75.872  28.606  0.00  0.00    +0.025 C 
ATOM     30  C   LIG    1      -34.245  74.935  27.861  0.00  0.00    +0.006 C 
ENDBRANCH  21  29
ENDBRANCH  19  21
ENDBRANCH   4  19
TORSDOF 7
ENDMDL
MODEL 6
REMARK VINA RESULT:      -5.5      2.381      4.723
REMARK  Name = pdb/CHEMBL3639583.pdb
REMARK                            x       y       z     vdW  Elec       q    Type
REMARK                         _______ _______ _______ _____ _____    ______ ____
ROOT
ATOM      1  N   LIG    1      -22.289  77.032  30.594  0.00  0.00    -0.266 N 
ATOM      2  C   LIG    1      -21.330  77.536  31.455  0.00  0.00    +0.168 A 
ATOM      3  N   LIG    1      -21.493  78.014  32.710  0.00  0.00    -0.213 NA
ATOM      4  C   LIG    1      -20.347  78.366  33.335  0.00  0.00    +0.122 A 
ATOM      5  C   LIG    1      -19.085  78.228  32.741  0.00  0.00    +0.046 A 
ATOM      6  C   LIG    1      -18.958  77.776  31.423  0.00  0.00    +0.035 A 
ATOM      7  C   LIG    1      -20.131  77.408  30.763  0.00  0.00    +0.108 A 
ATOM      8  N   LIG    1      -20.325  76.906  29.505  0.00  0.00    -0.234 NA
ATOM      9  C   LIG    1      -21.622  76.693  29.435  0.00  0.00    +0.207 A 
ENDROOT
BRANCH   1  14
ATOM     10  C   LIG    1      -25.839  77.157  31.211  0.00  0.00    +0.213 A 
ATOM     11  N   LIG    1      -25.469  75.843  31.293  0.00  0.00    -0.245 N 
ATOM     12  H   LIG    1      -26.069  75.048  31.501  0.00  0.00    +0.192 HD
ATOM     13  N   LIG    1      -24.158  75.621  31.062  0.00  0.00    -0.153 NA
ATOM     14  C   LIG    1      -23.678  76.852  30.838  0.00  0.00    +0.165 A 
ATOM     15  C   LIG    1      -24.672  77.838  30.904  0.00  0.00    +0.115 A 
BRANCH  10  16
ATOM     16  O   LIG    1      -27.102  77.532  31.397  0.00  0.00    -0.477 OA
BRANCH  16  18
ATOM     17  C   LIG    1      -28.117  76.961  33.502  0.00  0.00    +0.048 C 
ATOM     18  C   LIG    1      -27.935  76.570  32.050  0.00  0.00    +0.227 C 
ENDBRANCH  16  18
ENDBRANCH  10  16
ENDBRANCH   1  14
BRANCH   4  19
ATOM     19  N   LIG    1      -20.396  78.763  34.688  0.00  0.00    -0.321 N 
ATOM     20  H   LIG    1      -19.478  79.102  34.980  0.00  0.00    +0.148 HD
BRANCH  19  21
ATOM     21  C   LIG    1      -21.376  79.828  34.984  0.00  0.00    +0.120 C 
BRANCH  21  22
ATOM     22  C   LIG    1      -20.839  80.769  36.074  0.00  0.00    +0.062 A 
ATOM     23  N   LIG    1      -19.933  80.262  36.962  0.00  0.00    -0.255 NA
ATOM     24  C   LIG    1      -19.479  81.097  37.930  0.00  0.00    +0.149 A 
ATOM     25  C   LIG    1      -19.885  82.412  38.065  0.00  0.00    +0.141 A 
ATOM     26  F   LIG    1      -19.392  83.186  39.040  0.00  0.00    -0.204 F 
ATOM     27  C   LIG    1      -20.812  82.918  37.170  0.00  0.00    +0.042 A 
ATOM     28  C   LIG    1      -21.300  82.089  36.158  0.00  0.00    +0.028 A 
ENDBRANCH  21  22
BRANCH  21  29
ATOM     29  C   LIG    1      -22.714  79.179  35.400  0.00  0.00    +0.025 C 
ATOM     30  C   LIG    1      -23.952  79.728  34.699  0.00  0.00    +0.006 C 
ENDBRANCH  21  29
ENDBRANCH  19  21
ENDBRANCH   4  19
TORSDOF 7
ENDMDL
MODEL 7
REMARK VINA RESULT:      -5.5     11.652     16.089
REMARK  Name = pdb/CHEMBL3639583.pdb
REMARK                            x       y       z     vdW  Elec       q    Type
REMARK                         _______ _______ _______ _____ _____    ______ ____
ROOT
ATOM      1  N   LIG    1      -32.166  76.375  28.762  0.00  0.00    -0.266 N 
ATOM      2  C   LIG    1      -32.735  75.114  28.742  0.00  0.00    +0.168 A 
ATOM      3  N   LIG    1      -33.802  74.684  28.029  0.00  0.00    -0.213 NA
ATOM      4  C   LIG    1      -34.075  73.367  28.161  0.00  0.00    +0.122 A 
ATOM      5  C   LIG    1      -33.304  72.506  28.953  0.00  0.00    +0.046 A 
ATOM      6  C   LIG    1      -32.237  72.995  29.715  0.00  0.00    +0.035 A 
ATOM      7  C   LIG    1      -31.941  74.353  29.591  0.00  0.00    +0.108 A 
ATOM      8  N   LIG    1      -30.955  75.105  30.170  0.00  0.00    -0.234 NA
ATOM      9  C   LIG    1      -31.116  76.305  29.656  0.00  0.00    +0.207 A 
ENDROOT
BRANCH   1  14
ATOM     10  C   LIG    1      -33.478  79.384  27.272  0.00  0.00    +0.213 A 
ATOM     11  N   LIG    1      -32.637  78.821  26.352  0.00  0.00    -0.245 N 
ATOM     12  H   LIG    1      -32.426  79.168  25.419  0.00  0.00    +0.192 HD
ATOM     13  N   LIG    1      -32.040  77.684  26.770  0.00  0.00    -0.153 NA
ATOM     14  C   LIG    1      -32.538  77.517  28.002  0.00  0.00    +0.165 A 
ATOM     15  C   LIG    1      -33.420  78.542  28.371  0.00  0.00    +0.115 A 
BRANCH  10  16
ATOM     16  O   LIG    1      -34.126  80.516  27.013  0.00  0.00    -0.477 OA
BRANCH  16  18
ATOM     17  C   LIG    1      -34.886  81.829  28.880  0.00  0.00    +0.048 C 
ATOM     18  C   LIG    1      -35.254  80.781  27.851  0.00  0.00    +0.227 C 
ENDBRANCH  16  18
ENDBRANCH  10  16
ENDBRANCH   1  14
BRANCH   4  19
ATOM     19  N   LIG    1      -35.093  72.793  27.368  0.00  0.00    -0.321 N 
ATOM     20  H   LIG    1      -34.751  72.657  26.416  0.00  0.00    +0.148 HD
BRANCH  19  21
ATOM     21  C   LIG    1      -35.589  71.488  27.852  0.00  0.00    +0.120 C 
BRANCH  21  22
ATOM     22  C   LIG    1      -35.363  70.398  26.793  0.00  0.00    +0.062 A 
ATOM     23  N   LIG    1      -36.359  70.179  25.883  0.00  0.00    -0.255 NA
ATOM     24  C   LIG    1      -36.155  69.203  24.962  0.00  0.00    +0.149 A 
ATOM     25  C   LIG    1      -35.012  68.427  24.904  0.00  0.00    +0.141 A 
ATOM     26  F   LIG    1      -34.871  67.483  23.965  0.00  0.00    -0.204 F 
ATOM     27  C   LIG    1      -34.011  68.644  25.835  0.00  0.00    +0.042 A 
ATOM     28  C   LIG    1      -34.184  69.643  26.796  0.00  0.00    +0.028 A 
ENDBRANCH  21  22
BRANCH  21  29
ATOM     29  C   LIG    1      -37.083  71.623  28.219  0.00  0.00    +0.025 C 
ATOM     30  C   LIG    1      -37.400  71.532  29.708  0.00  0.00    +0.006 C 
ENDBRANCH  21  29
ENDBRANCH  19  21
ENDBRANCH   4  19
TORSDOF 7
ENDMDL
MODEL 8
REMARK VINA RESULT:      -5.3     14.199     18.174
REMARK  Name = pdb/CHEMBL3639583.pdb
REMARK                            x       y       z     vdW  Elec       q    Type
REMARK                         _______ _______ _______ _____ _____    ______ ____
ROOT
ATOM      1  N   LIG    1      -35.345  78.990  28.476  0.00  0.00    -0.266 N 
ATOM      2  C   LIG    1      -35.680  77.739  27.986  0.00  0.00    +0.168 A 
ATOM      3  N   LIG    1      -36.408  77.434  26.887  0.00  0.00    -0.213 NA
ATOM      4  C   LIG    1      -36.500  76.112  26.621  0.00  0.00    +0.122 A 
ATOM      5  C   LIG    1      -35.875  75.133  27.405  0.00  0.00    +0.046 A 
ATOM      6  C   LIG    1      -35.171  75.483  28.563  0.00  0.00    +0.035 A 
ATOM      7  C   LIG    1      -35.065  76.843  28.853  0.00  0.00    +0.108 A 
ATOM      8  N   LIG    1      -34.424  77.488  29.875  0.00  0.00    -0.234 NA
ATOM      9  C   LIG    1      -34.610  78.766  29.622  0.00  0.00    +0.207 A 
ENDROOT
BRANCH   1  14
ATOM     10  C   LIG    1      -36.662  82.097  27.208  0.00  0.00    +0.213 A 
ATOM     11  N   LIG    1      -35.342  82.052  26.851  0.00  0.00    -0.245 N 
ATOM     12  H   LIG    1      -34.825  82.748  26.319  0.00  0.00    +0.192 HD
ATOM     13  N   LIG    1      -34.691  80.948  27.276  0.00  0.00    -0.153 NA
ATOM     14  C   LIG    1      -35.648  80.261  27.916  0.00  0.00    +0.165 A 
ATOM     15  C   LIG    1      -36.880  80.927  27.917  0.00  0.00    +0.115 A 
BRANCH  10  16
ATOM     16  O   LIG    1      -37.431  83.131  26.877  0.00  0.00    -0.477 OA
BRANCH  16  18
ATOM     17  C   LIG    1      -38.343  82.824  24.672  0.00  0.00    +0.048 C 
ATOM     18  C   LIG    1      -37.325  83.561  25.517  0.00  0.00    +0.227 C 
ENDBRANCH  16  18
ENDBRANCH  10  16
ENDBRANCH   1  14
BRANCH   4  19
ATOM     19  N   LIG    1      -37.136  75.693  25.432  0.00  0.00    -0.321 N 
ATOM     20  H   LIG    1      -36.700  74.834  25.094  0.00  0.00    +0.148 HD
BRANCH  19  21
ATOM     21  C   LIG    1      -38.584  75.432  25.566  0.00  0.00    +0.120 C 
BRANCH  21  22
ATOM     22  C   LIG    1      -38.943  74.059  24.976  0.00  0.00    +0.062 A 
ATOM     23  N   LIG    1      -38.038  73.047  25.125  0.00  0.00    -0.255 NA
ATOM     24  C   LIG    1      -38.359  71.843  24.586  0.00  0.00    +0.149 A 
ATOM     25  C   LIG    1      -39.533  71.596  23.899  0.00  0.00    +0.141 A 
ATOM     26  F   LIG    1      -39.792  70.382  23.397  0.00  0.00    -0.204 F 
ATOM     27  C   LIG    1      -40.442  72.628  23.741  0.00  0.00    +0.042 A 
ATOM     28  C   LIG    1      -40.147  73.880  24.285  0.00  0.00    +0.028 A 
ENDBRANCH  21  22
BRANCH  21  29
ATOM     29  C   LIG    1      -39.366  76.571  24.874  0.00  0.00    +0.025 C 
ATOM     30  C   LIG    1      -38.576  77.371  23.844  0.00  0.00    +0.006 C 
ENDBRANCH  21  29
ENDBRANCH  19  21
ENDBRANCH   4  19
TORSDOF 7
ENDMDL
MODEL 9
REMARK VINA RESULT:      -5.2     18.365     21.564
REMARK  Name = pdb/CHEMBL3639583.pdb
REMARK                            x       y       z     vdW  Elec       q    Type
REMARK                         _______ _______ _______ _____ _____    ______ ____
ROOT
ATOM      1  N   LIG    1      -40.162  69.308  22.094  0.00  0.00    -0.266 N 
ATOM      2  C   LIG    1      -41.001  70.377  22.357  0.00  0.00    +0.168 A 
ATOM      3  N   LIG    1      -40.883  71.323  23.317  0.00  0.00    -0.213 NA
ATOM      4  C   LIG    1      -41.825  72.292  23.274  0.00  0.00    +0.122 A 
ATOM      5  C   LIG    1      -42.833  72.330  22.301  0.00  0.00    +0.046 A 
ATOM      6  C   LIG    1      -42.953  71.307  21.353  0.00  0.00    +0.035 A 
ATOM      7  C   LIG    1      -41.989  70.299  21.382  0.00  0.00    +0.108 A 
ATOM      8  N   LIG    1      -41.822  69.204  20.580  0.00  0.00    -0.234 NA
ATOM      9  C   LIG    1      -40.725  68.634  21.030  0.00  0.00    +0.207 A 
ENDROOT
BRANCH   1  14
ATOM     10  C   LIG    1      -36.818  68.597  23.239  0.00  0.00    +0.213 A 
ATOM     11  N   LIG    1      -37.670  68.204  24.236  0.00  0.00    -0.245 N 
ATOM     12  H   LIG    1      -37.419  67.779  25.125  0.00  0.00    +0.192 HD
ATOM     13  N   LIG    1      -38.974  68.426  23.968  0.00  0.00    -0.153 NA
ATOM     14  C   LIG    1      -38.943  68.970  22.744  0.00  0.00    +0.165 A 
ATOM     15  C   LIG    1      -37.640  69.112  22.250  0.00  0.00    +0.115 A 
BRANCH  10  16
ATOM     16  O   LIG    1      -35.501  68.460  23.363  0.00  0.00    -0.477 OA
BRANCH  16  18
ATOM     17  C   LIG    1      -34.388  66.843  21.971  0.00  0.00    +0.048 C 
ATOM     18  C   LIG    1      -35.020  67.113  23.320  0.00  0.00    +0.227 C 
ENDBRANCH  16  18
ENDBRANCH  10  16
ENDBRANCH   1  14
BRANCH   4  19
ATOM     19  N   LIG    1      -41.723  73.389  24.155  0.00  0.00    -0.321 N 
ATOM     20  H   LIG    1      -41.045  73.179  24.889  0.00  0.00    +0.148 HD
BRANCH  19  21
ATOM     21  C   LIG    1      -41.307  74.656  23.518  0.00  0.00    +0.120 C 
BRANCH  21  22
ATOM     22  C   LIG    1      -39.969  75.140  24.098  0.00  0.00    +0.062 A 
ATOM     23  N   LIG    1      -39.132  74.203  24.635  0.00  0.00    -0.255 NA
ATOM     24  C   LIG    1      -37.961  74.643  25.159  0.00  0.00    +0.149 A 
ATOM     25  C   LIG    1      -37.580  75.973  25.182  0.00  0.00    +0.141 A 
ATOM     26  F   LIG    1      -36.406  76.340  25.709  0.00  0.00    -0.204 F 
ATOM     27  C   LIG    1      -38.436  76.920  24.647  0.00  0.00    +0.042 A 
ATOM     28  C   LIG    1      -39.650  76.503  24.096  0.00  0.00    +0.028 A 
ENDBRANCH  21  22
BRANCH  21  29
ATOM     29  C   LIG    1      -42.424  75.706  23.710  0.00  0.00    +0.025 C 
ATOM     30  C   LIG    1      -43.494  75.339  24.733  0.00  0.00    +0.006 C 
ENDBRANCH  21  29
ENDBRANCH  19  21
ENDBRANCH   4  19
TORSDOF 7
ENDMDL
