MODEL 1
REMARK VINA RESULT:      -7.9      0.000      0.000
REMARK  Name = pdb/CHEMBL2037208.pdb
REMARK                            x       y       z     vdW  Elec       q    Type
REMARK                         _______ _______ _______ _____ _____    ______ ____
ROOT
ATOM      1  C   LIG    1      -38.058  75.349  25.206  0.00  0.00    +0.035 A 
ATOM      2  C   LIG    1      -38.517  74.022  25.143  0.00  0.00    +0.046 A 
ATOM      3  C   LIG    1      -39.726  73.691  24.515  0.00  0.00    +0.033 A 
ATOM      4  C   LIG    1      -40.473  74.722  23.936  0.00  0.00    +0.023 A 
ATOM      5  C   LIG    1      -40.037  76.045  24.002  0.00  0.00    +0.004 A 
ATOM      6  C   LIG    1      -38.832  76.356  24.632  0.00  0.00    +0.023 A 
ENDROOT
BRANCH   1   8
ATOM      7  C   LIG    1      -36.572  75.655  27.202  0.00  0.00    +0.248 C 
ATOM      8  N   LIG    1      -36.818  75.571  25.842  0.00  0.00    -0.281 N 
ATOM      9  H   LIG    1      -36.021  75.636  25.224  0.00  0.00    +0.155 HD
ATOM     10  O   LIG    1      -37.384  75.489  28.105  0.00  0.00    -0.270 OA
BRANCH   7  13
ATOM     11  C   LIG    1      -33.257  77.472  27.479  0.00  0.00    +0.056 A 
ATOM     12  C   LIG    1      -34.586  77.148  27.155  0.00  0.00    +0.025 A 
ATOM     13  C   LIG    1      -35.155  75.938  27.578  0.00  0.00    +0.038 A 
ATOM     14  C   LIG    1      -34.376  75.030  28.307  0.00  0.00    +0.013 A 
ATOM     15  C   LIG    1      -33.058  75.347  28.640  0.00  0.00    +0.001 A 
ATOM     16  C   LIG    1      -32.503  76.561  28.232  0.00  0.00    +0.012 A 
BRANCH  11  18
ATOM     17  F   LIG    1      -33.544  79.823  27.077  0.00  0.00    -0.166 F 
ATOM     18  C   LIG    1      -32.667  78.781  27.013  0.00  0.00    +0.417 C 
ATOM     19  F   LIG    1      -31.586  79.159  27.749  0.00  0.00    -0.166 F 
ATOM     20  F   LIG    1      -32.245  78.730  25.721  0.00  0.00    -0.166 F 
ENDBRANCH  11  18
ENDBRANCH   7  13
ENDBRANCH   1   8
BRANCH   3  21
ATOM     21  N   LIG    1      -40.110  72.340  24.417  0.00  0.00    -0.314 N 
ATOM     22  H   LIG    1      -41.057  72.143  24.719  0.00  0.00    +0.152 HD
BRANCH  21  23
ATOM     23  C   LIG    1      -39.385  71.219  23.971  0.00  0.00    +0.033 A 
ATOM     24  C   LIG    1      -38.102  70.935  24.454  0.00  0.00    +0.047 A 
ATOM     25  C   LIG    1      -37.420  69.865  23.912  0.00  0.00    +0.043 A 
ATOM     26  N   LIG    1      -36.138  69.456  24.253  0.00  0.00    -0.281 N 
ATOM     27  H   LIG    1      -35.544  69.890  24.945  0.00  0.00    +0.155 HD
ATOM     28  C   LIG    1      -35.724  68.392  23.476  0.00  0.00    +0.249 C 
ATOM     29  O   LIG    1      -34.620  67.880  23.505  0.00  0.00    -0.270 OA
ATOM     30  C   LIG    1      -36.896  68.072  22.575  0.00  0.00    +0.048 C 
ATOM     31  C   LIG    1      -37.028  67.101  21.656  0.00  0.00    +0.039 C 
ATOM     32  C   LIG    1      -37.945  69.059  22.901  0.00  0.00    +0.008 A 
ATOM     33  C   LIG    1      -39.213  69.316  22.412  0.00  0.00    +0.012 A 
ATOM     34  C   LIG    1      -39.927  70.400  22.952  0.00  0.00    +0.024 A 
BRANCH  31  35
ATOM     35  C   LIG    1      -36.071  66.116  21.286  0.00  0.00    +0.040 A 
ATOM     36  N   LIG    1      -34.842  66.446  20.765  0.00  0.00    -0.361 N 
ATOM     37  H   LIG    1      -34.474  67.389  20.686  0.00  0.00    +0.165 HD
ATOM     38  C   LIG    1      -34.136  65.313  20.452  0.00  0.00    +0.083 A 
ATOM     39  C   LIG    1      -34.912  64.229  20.780  0.00  0.00    +0.019 A 
ATOM     40  C   LIG    1      -36.134  64.732  21.293  0.00  0.00    +0.027 A 
ENDBRANCH  31  35
ENDBRANCH  21  23
ENDBRANCH   3  21
TORSDOF 6
ENDMDL
MODEL 2
REMARK VINA RESULT:      -7.6      7.791     12.477
REMARK  Name = pdb/CHEMBL2037208.pdb
REMARK                            x       y       z     vdW  Elec       q    Type
REMARK                         _______ _______ _______ _____ _____    ______ ____
ROOT
ATOM      1  C   LIG    1      -26.787  76.510  32.561  0.00  0.00    +0.035 A 
ATOM      2  C   LIG    1      -27.620  75.650  31.826  0.00  0.00    +0.046 A 
ATOM      3  C   LIG    1      -28.971  75.472  32.160  0.00  0.00    +0.033 A 
ATOM      4  C   LIG    1      -29.480  76.184  33.251  0.00  0.00    +0.023 A 
ATOM      5  C   LIG    1      -28.661  77.032  33.997  0.00  0.00    +0.004 A 
ATOM      6  C   LIG    1      -27.320  77.196  33.651  0.00  0.00    +0.023 A 
ENDROOT
BRANCH   1   8
ATOM      7  C   LIG    1      -24.972  77.394  31.073  0.00  0.00    +0.248 C 
ATOM      8  N   LIG    1      -25.449  76.634  32.128  0.00  0.00    -0.281 N 
ATOM      9  H   LIG    1      -24.767  76.139  32.685  0.00  0.00    +0.155 HD
ATOM     10  O   LIG    1      -25.624  78.146  30.359  0.00  0.00    -0.270 OA
BRANCH   7  13
ATOM     11  C   LIG    1      -21.238  77.669  31.665  0.00  0.00    +0.056 A 
ATOM     12  C   LIG    1      -22.631  77.738  31.836  0.00  0.00    +0.025 A 
ATOM     13  C   LIG    1      -23.502  77.296  30.829  0.00  0.00    +0.038 A 
ATOM     14  C   LIG    1      -22.972  76.806  29.628  0.00  0.00    +0.013 A 
ATOM     15  C   LIG    1      -21.589  76.727  29.453  0.00  0.00    +0.001 A 
ATOM     16  C   LIG    1      -20.728  77.151  30.466  0.00  0.00    +0.012 A 
BRANCH  11  18
ATOM     17  F   LIG    1      -19.170  78.715  32.301  0.00  0.00    -0.166 F 
ATOM     18  C   LIG    1      -20.321  78.150  32.764  0.00  0.00    +0.417 C 
ATOM     19  F   LIG    1      -20.904  79.089  33.557  0.00  0.00    -0.166 F 
ATOM     20  F   LIG    1      -19.932  77.143  33.593  0.00  0.00    -0.166 F 
ENDBRANCH  11  18
ENDBRANCH   7  13
ENDBRANCH   1   8
BRANCH   3  21
ATOM     21  N   LIG    1      -29.783  74.653  31.353  0.00  0.00    -0.314 N 
ATOM     22  H   LIG    1      -29.548  73.667  31.374  0.00  0.00    +0.152 HD
BRANCH  21  23
ATOM     23  C   LIG    1      -30.865  74.987  30.518  0.00  0.00    +0.033 A 
ATOM     24  C   LIG    1      -30.934  76.223  29.864  0.00  0.00    +0.047 A 
ATOM     25  C   LIG    1      -32.063  76.512  29.126  0.00  0.00    +0.043 A 
ATOM     26  N   LIG    1      -32.307  77.690  28.434  0.00  0.00    -0.281 N 
ATOM     27  H   LIG    1      -31.686  78.484  28.382  0.00  0.00    +0.155 HD
ATOM     28  C   LIG    1      -33.561  77.685  27.855  0.00  0.00    +0.249 C 
ATOM     29  O   LIG    1      -34.069  78.614  27.255  0.00  0.00    -0.270 OA
ATOM     30  C   LIG    1      -34.152  76.332  28.186  0.00  0.00    +0.048 C 
ATOM     31  C   LIG    1      -35.334  75.805  27.829  0.00  0.00    +0.039 C 
ATOM     32  C   LIG    1      -33.142  75.635  29.009  0.00  0.00    +0.008 A 
ATOM     33  C   LIG    1      -33.096  74.406  29.641  0.00  0.00    +0.012 A 
ATOM     34  C   LIG    1      -31.953  74.089  30.396  0.00  0.00    +0.024 A 
BRANCH  31  35
ATOM     35  C   LIG    1      -36.355  76.407  27.042  0.00  0.00    +0.040 A 
ATOM     36  N   LIG    1      -37.012  77.548  27.441  0.00  0.00    -0.361 N 
ATOM     37  H   LIG    1      -36.777  78.103  28.257  0.00  0.00    +0.165 HD
ATOM     38  C   LIG    1      -37.975  77.887  26.526  0.00  0.00    +0.083 A 
ATOM     39  C   LIG    1      -37.940  76.961  25.513  0.00  0.00    +0.019 A 
ATOM     40  C   LIG    1      -36.931  76.022  25.842  0.00  0.00    +0.027 A 
ENDBRANCH  31  35
ENDBRANCH  21  23
ENDBRANCH   3  21
TORSDOF 6
ENDMDL
MODEL 3
REMARK VINA RESULT:      -7.6      5.045     10.792
REMARK  Name = pdb/CHEMBL2037208.pdb
REMARK                            x       y       z     vdW  Elec       q    Type
REMARK                         _______ _______ _______ _____ _____    ______ ____
ROOT
ATOM      1  C   LIG    1      -35.639  68.200  23.698  0.00  0.00    +0.035 A 
ATOM      2  C   LIG    1      -36.856  68.901  23.738  0.00  0.00    +0.046 A 
ATOM      3  C   LIG    1      -37.422  69.322  24.951  0.00  0.00    +0.033 A 
ATOM      4  C   LIG    1      -36.737  69.033  26.135  0.00  0.00    +0.023 A 
ATOM      5  C   LIG    1      -35.535  68.327  26.111  0.00  0.00    +0.004 A 
ATOM      6  C   LIG    1      -34.987  67.914  24.896  0.00  0.00    +0.023 A 
ENDROOT
BRANCH   1   8
ATOM      7  C   LIG    1      -34.796  66.576  21.983  0.00  0.00    +0.248 C 
ATOM      8  N   LIG    1      -35.145  67.841  22.425  0.00  0.00    -0.281 N 
ATOM      9  H   LIG    1      -35.083  68.597  21.757  0.00  0.00    +0.155 HD
ATOM     10  O   LIG    1      -34.910  65.526  22.604  0.00  0.00    -0.270 OA
BRANCH   7  13
ATOM     11  C   LIG    1      -32.313  66.457  19.121  0.00  0.00    +0.056 A 
ATOM     12  C   LIG    1      -32.873  66.516  20.409  0.00  0.00    +0.025 A 
ATOM     13  C   LIG    1      -34.264  66.512  20.589  0.00  0.00    +0.038 A 
ATOM     14  C   LIG    1      -35.103  66.476  19.468  0.00  0.00    +0.013 A 
ATOM     15  C   LIG    1      -34.555  66.408  18.185  0.00  0.00    +0.001 A 
ATOM     16  C   LIG    1      -33.170  66.394  18.013  0.00  0.00    +0.012 A 
BRANCH  11  18
ATOM     17  F   LIG    1      -30.139  66.124  20.088  0.00  0.00    -0.166 F 
ATOM     18  C   LIG    1      -30.813  66.461  18.952  0.00  0.00    +0.417 C 
ATOM     19  F   LIG    1      -30.391  65.589  17.997  0.00  0.00    -0.166 F 
ATOM     20  F   LIG    1      -30.336  67.682  18.586  0.00  0.00    -0.166 F 
ENDBRANCH  11  18
ENDBRANCH   7  13
ENDBRANCH   1   8
BRANCH   3  21
ATOM     21  N   LIG    1      -38.608  70.081  24.936  0.00  0.00    -0.314 N 
ATOM     22  H   LIG    1      -39.453  69.554  25.118  0.00  0.00    +0.152 HD
BRANCH  21  23
ATOM     23  C   LIG    1      -38.804  71.455  24.703  0.00  0.00    +0.033 A 
ATOM     24  C   LIG    1      -37.875  72.412  25.128  0.00  0.00    +0.047 A 
ATOM     25  C   LIG    1      -38.172  73.745  24.936  0.00  0.00    +0.043 A 
ATOM     26  N   LIG    1      -37.381  74.822  25.313  0.00  0.00    -0.281 N 
ATOM     27  H   LIG    1      -36.485  74.763  25.774  0.00  0.00    +0.155 HD
ATOM     28  C   LIG    1      -37.999  76.025  25.036  0.00  0.00    +0.249 C 
ATOM     29  O   LIG    1      -37.572  77.126  25.329  0.00  0.00    -0.270 OA
ATOM     30  C   LIG    1      -39.309  75.661  24.371  0.00  0.00    +0.048 C 
ATOM     31  C   LIG    1      -40.266  76.460  23.873  0.00  0.00    +0.039 C 
ATOM     32  C   LIG    1      -39.358  74.185  24.347  0.00  0.00    +0.008 A 
ATOM     33  C   LIG    1      -40.290  73.259  23.913  0.00  0.00    +0.012 A 
ATOM     34  C   LIG    1      -40.005  71.894  24.096  0.00  0.00    +0.024 A 
BRANCH  31  35
ATOM     35  C   LIG    1      -40.293  77.882  23.858  0.00  0.00    +0.040 A 
ATOM     36  N   LIG    1      -39.325  78.627  23.225  0.00  0.00    -0.361 N 
ATOM     37  H   LIG    1      -38.580  78.250  22.649  0.00  0.00    +0.165 HD
ATOM     38  C   LIG    1      -39.562  79.966  23.402  0.00  0.00    +0.083 A 
ATOM     39  C   LIG    1      -40.705  80.096  24.154  0.00  0.00    +0.019 A 
ATOM     40  C   LIG    1      -41.158  78.787  24.452  0.00  0.00    +0.027 A 
ENDBRANCH  31  35
ENDBRANCH  21  23
ENDBRANCH   3  21
TORSDOF 6
ENDMDL
MODEL 4
REMARK VINA RESULT:      -7.6      5.489     10.995
REMARK  Name = pdb/CHEMBL2037208.pdb
REMARK                            x       y       z     vdW  Elec       q    Type
REMARK                         _______ _______ _______ _____ _____    ______ ____
ROOT
ATOM      1  C   LIG    1      -35.758  68.251  23.876  0.00  0.00    +0.035 A 
ATOM      2  C   LIG    1      -36.967  68.965  23.834  0.00  0.00    +0.046 A 
ATOM      3  C   LIG    1      -37.605  69.400  25.006  0.00  0.00    +0.033 A 
ATOM      4  C   LIG    1      -36.999  69.111  26.233  0.00  0.00    +0.023 A 
ATOM      5  C   LIG    1      -35.805  68.392  26.290  0.00  0.00    +0.004 A 
ATOM      6  C   LIG    1      -35.186  67.966  25.114  0.00  0.00    +0.023 A 
ENDROOT
BRANCH   1   8
ATOM      7  C   LIG    1      -35.492  66.765  21.873  0.00  0.00    +0.248 C 
ATOM      8  N   LIG    1      -35.188  67.878  22.639  0.00  0.00    -0.281 N 
ATOM      9  H   LIG    1      -34.511  68.528  22.262  0.00  0.00    +0.155 HD
ATOM     10  O   LIG    1      -36.358  65.931  22.105  0.00  0.00    -0.270 OA
BRANCH   7  13
ATOM     11  C   LIG    1      -34.663  66.531  18.181  0.00  0.00    +0.056 A 
ATOM     12  C   LIG    1      -35.363  66.665  19.392  0.00  0.00    +0.025 A 
ATOM     13  C   LIG    1      -34.690  66.615  20.622  0.00  0.00    +0.038 A 
ATOM     14  C   LIG    1      -33.306  66.398  20.640  0.00  0.00    +0.013 A 
ATOM     15  C   LIG    1      -32.601  66.272  19.441  0.00  0.00    +0.001 A 
ATOM     16  C   LIG    1      -33.274  66.342  18.220  0.00  0.00    +0.012 A 
BRANCH  11  18
ATOM     17  F   LIG    1      -34.848  67.442  15.965  0.00  0.00    -0.166 F 
ATOM     18  C   LIG    1      -35.410  66.591  16.870  0.00  0.00    +0.417 C 
ATOM     19  F   LIG    1      -35.477  65.381  16.252  0.00  0.00    -0.166 F 
ATOM     20  F   LIG    1      -36.695  67.009  17.024  0.00  0.00    -0.166 F 
ENDBRANCH  11  18
ENDBRANCH   7  13
ENDBRANCH   1   8
BRANCH   3  21
ATOM     21  N   LIG    1      -38.778  70.171  24.911  0.00  0.00    -0.314 N 
ATOM     22  H   LIG    1      -39.640  69.651  25.026  0.00  0.00    +0.152 HD
BRANCH  21  23
ATOM     23  C   LIG    1      -38.944  71.549  24.677  0.00  0.00    +0.033 A 
ATOM     24  C   LIG    1      -37.999  72.486  25.112  0.00  0.00    +0.047 A 
ATOM     25  C   LIG    1      -38.268  73.825  24.917  0.00  0.00    +0.043 A 
ATOM     26  N   LIG    1      -37.458  74.885  25.303  0.00  0.00    -0.281 N 
ATOM     27  H   LIG    1      -36.568  74.807  25.772  0.00  0.00    +0.155 HD
ATOM     28  C   LIG    1      -38.049  76.101  25.020  0.00  0.00    +0.249 C 
ATOM     29  O   LIG    1      -37.601  77.192  25.317  0.00  0.00    -0.270 OA
ATOM     30  C   LIG    1      -39.359  75.764  24.342  0.00  0.00    +0.048 C 
ATOM     31  C   LIG    1      -40.295  76.582  23.835  0.00  0.00    +0.039 C 
ATOM     32  C   LIG    1      -39.438  74.289  24.317  0.00  0.00    +0.008 A 
ATOM     33  C   LIG    1      -40.384  73.383  23.873  0.00  0.00    +0.012 A 
ATOM     34  C   LIG    1      -40.130  72.012  24.058  0.00  0.00    +0.024 A 
BRANCH  31  35
ATOM     35  C   LIG    1      -40.292  78.005  23.820  0.00  0.00    +0.040 A 
ATOM     36  N   LIG    1      -39.303  78.730  23.196  0.00  0.00    -0.361 N 
ATOM     37  H   LIG    1      -38.561  78.338  22.627  0.00  0.00    +0.165 HD
ATOM     38  C   LIG    1      -39.514  80.073  23.372  0.00  0.00    +0.083 A 
ATOM     39  C   LIG    1      -40.660  80.227  24.113  0.00  0.00    +0.019 A 
ATOM     40  C   LIG    1      -41.143  78.927  24.407  0.00  0.00    +0.027 A 
ENDBRANCH  31  35
ENDBRANCH  21  23
ENDBRANCH   3  21
TORSDOF 6
ENDMDL
MODEL 5
REMARK VINA RESULT:      -7.5      4.480     11.205
REMARK  Name = pdb/CHEMBL2037208.pdb
REMARK                            x       y       z     vdW  Elec       q    Type
REMARK                         _______ _______ _______ _____ _____    ______ ____
ROOT
ATOM      1  C   LIG    1      -35.817  71.683  27.272  0.00  0.00    +0.035 A 
ATOM      2  C   LIG    1      -35.102  72.778  27.788  0.00  0.00    +0.046 A 
ATOM      3  C   LIG    1      -33.937  72.602  28.548  0.00  0.00    +0.033 A 
ATOM      4  C   LIG    1      -33.489  71.297  28.779  0.00  0.00    +0.023 A 
ATOM      5  C   LIG    1      -34.195  70.201  28.284  0.00  0.00    +0.004 A 
ATOM      6  C   LIG    1      -35.354  70.395  27.530  0.00  0.00    +0.023 A 
ENDROOT
BRANCH   1   8
ATOM      7  C   LIG    1      -37.164  71.705  25.157  0.00  0.00    +0.248 C 
ATOM      8  N   LIG    1      -36.965  71.970  26.502  0.00  0.00    -0.281 N 
ATOM      9  H   LIG    1      -37.736  72.378  27.012  0.00  0.00    +0.155 HD
ATOM     10  O   LIG    1      -36.397  71.118  24.405  0.00  0.00    -0.270 OA
BRANCH   7  13
ATOM     11  C   LIG    1      -39.974  74.025  24.110  0.00  0.00    +0.056 A 
ATOM     12  C   LIG    1      -38.758  73.535  24.617  0.00  0.00    +0.025 A 
ATOM     13  C   LIG    1      -38.475  72.162  24.606  0.00  0.00    +0.038 A 
ATOM     14  C   LIG    1      -39.431  71.267  24.109  0.00  0.00    +0.013 A 
ATOM     15  C   LIG    1      -40.639  71.745  23.596  0.00  0.00    +0.001 A 
ATOM     16  C   LIG    1      -40.906  73.115  23.593  0.00  0.00    +0.012 A 
BRANCH  11  18
ATOM     17  F   LIG    1      -39.132  76.274  24.021  0.00  0.00    -0.166 F 
ATOM     18  C   LIG    1      -40.255  75.508  24.132  0.00  0.00    +0.417 C 
ATOM     19  F   LIG    1      -41.074  75.900  23.118  0.00  0.00    -0.166 F 
ATOM     20  F   LIG    1      -40.862  75.904  25.283  0.00  0.00    -0.166 F 
ENDBRANCH  11  18
ENDBRANCH   7  13
ENDBRANCH   1   8
BRANCH   3  21
ATOM     21  N   LIG    1      -33.218  73.731  28.985  0.00  0.00    -0.314 N 
ATOM     22  H   LIG    1      -32.278  73.537  29.311  0.00  0.00    +0.152 HD
BRANCH  21  23
ATOM     23  C   LIG    1      -33.599  75.084  29.045  0.00  0.00    +0.033 A 
ATOM     24  C   LIG    1      -33.514  75.920  27.925  0.00  0.00    +0.047 A 
ATOM     25  C   LIG    1      -33.830  77.255  28.079  0.00  0.00    +0.043 A 
ATOM     26  N   LIG    1      -33.780  78.225  27.088  0.00  0.00    -0.281 N 
ATOM     27  H   LIG    1      -33.509  78.075  26.127  0.00  0.00    +0.155 HD
ATOM     28  C   LIG    1      -34.093  79.474  27.587  0.00  0.00    +0.249 C 
ATOM     29  O   LIG    1      -34.055  80.517  26.963  0.00  0.00    -0.270 OA
ATOM     30  C   LIG    1      -34.417  79.253  29.049  0.00  0.00    +0.048 C 
ATOM     31  C   LIG    1      -34.817  80.135  29.979  0.00  0.00    +0.039 C 
ATOM     32  C   LIG    1      -34.219  77.811  29.298  0.00  0.00    +0.008 A 
ATOM     33  C   LIG    1      -34.317  77.004  30.417  0.00  0.00    +0.012 A 
ATOM     34  C   LIG    1      -34.003  75.640  30.282  0.00  0.00    +0.024 A 
BRANCH  31  35
ATOM     35  C   LIG    1      -35.030  81.533  29.819  0.00  0.00    +0.040 A 
ATOM     36  N   LIG    1      -35.977  82.038  28.959  0.00  0.00    -0.361 N 
ATOM     37  H   LIG    1      -36.655  81.484  28.446  0.00  0.00    +0.165 HD
ATOM     38  C   LIG    1      -35.942  83.408  28.962  0.00  0.00    +0.083 A 
ATOM     39  C   LIG    1      -34.965  83.803  29.842  0.00  0.00    +0.019 A 
ATOM     40  C   LIG    1      -34.381  82.625  30.372  0.00  0.00    +0.027 A 
ENDBRANCH  31  35
ENDBRANCH  21  23
ENDBRANCH   3  21
TORSDOF 6
ENDMDL
MODEL 6
REMARK VINA RESULT:      -7.5      2.084      2.606
REMARK  Name = pdb/CHEMBL2037208.pdb
REMARK                            x       y       z     vdW  Elec       q    Type
REMARK                         _______ _______ _______ _____ _____    ______ ____
ROOT
ATOM      1  C   LIG    1      -38.289  74.237  25.115  0.00  0.00    +0.035 A 
ATOM      2  C   LIG    1      -38.470  72.847  25.025  0.00  0.00    +0.046 A 
ATOM      3  C   LIG    1      -39.582  72.290  24.376  0.00  0.00    +0.033 A 
ATOM      4  C   LIG    1      -40.517  73.160  23.805  0.00  0.00    +0.023 A 
ATOM      5  C   LIG    1      -40.356  74.543  23.898  0.00  0.00    +0.004 A 
ATOM      6  C   LIG    1      -39.244  75.079  24.548  0.00  0.00    +0.023 A 
ENDROOT
BRANCH   1   8
ATOM      7  C   LIG    1      -36.940  74.876  27.130  0.00  0.00    +0.248 C 
ATOM      8  N   LIG    1      -37.124  74.694  25.770  0.00  0.00    -0.281 N 
ATOM      9  H   LIG    1      -36.330  74.865  25.169  0.00  0.00    +0.155 HD
ATOM     10  O   LIG    1      -37.741  74.615  28.019  0.00  0.00    -0.270 OA
BRANCH   7  13
ATOM     11  C   LIG    1      -33.449  75.003  28.601  0.00  0.00    +0.056 A 
ATOM     12  C   LIG    1      -34.721  74.557  28.204  0.00  0.00    +0.025 A 
ATOM     13  C   LIG    1      -35.603  75.411  27.526  0.00  0.00    +0.038 A 
ATOM     14  C   LIG    1      -35.218  76.733  27.269  0.00  0.00    +0.013 A 
ATOM     15  C   LIG    1      -33.953  77.182  27.653  0.00  0.00    +0.001 A 
ATOM     16  C   LIG    1      -33.073  76.322  28.310  0.00  0.00    +0.012 A 
BRANCH  11  18
ATOM     17  F   LIG    1      -32.447  72.825  28.766  0.00  0.00    -0.166 F 
ATOM     18  C   LIG    1      -32.516  74.064  29.329  0.00  0.00    +0.417 C 
ATOM     19  F   LIG    1      -31.237  74.526  29.370  0.00  0.00    -0.166 F 
ATOM     20  F   LIG    1      -32.887  73.864  30.623  0.00  0.00    -0.166 F 
ENDBRANCH  11  18
ENDBRANCH   7  13
ENDBRANCH   1   8
BRANCH   3  21
ATOM     21  N   LIG    1      -39.685  70.892  24.252  0.00  0.00    -0.314 N 
ATOM     22  H   LIG    1      -40.426  70.469  24.798  0.00  0.00    +0.152 HD
BRANCH  21  23
ATOM     23  C   LIG    1      -38.918  69.988  23.493  0.00  0.00    +0.033 A 
ATOM     24  C   LIG    1      -37.651  69.568  23.912  0.00  0.00    +0.047 A 
ATOM     25  C   LIG    1      -36.924  68.744  23.077  0.00  0.00    +0.043 A 
ATOM     26  N   LIG    1      -35.649  68.252  23.322  0.00  0.00    -0.281 N 
ATOM     27  H   LIG    1      -35.094  68.434  24.144  0.00  0.00    +0.155 HD
ATOM     28  C   LIG    1      -35.181  67.510  22.255  0.00  0.00    +0.249 C 
ATOM     29  O   LIG    1      -34.069  67.025  22.163  0.00  0.00    -0.270 OA
ATOM     30  C   LIG    1      -36.308  67.501  21.245  0.00  0.00    +0.048 C 
ATOM     31  C   LIG    1      -36.382  66.891  20.051  0.00  0.00    +0.039 C 
ATOM     32  C   LIG    1      -37.390  68.317  21.833  0.00  0.00    +0.008 A 
ATOM     33  C   LIG    1      -38.642  68.714  21.399  0.00  0.00    +0.012 A 
ATOM     34  C   LIG    1      -39.401  69.552  22.236  0.00  0.00    +0.024 A 
BRANCH  31  35
ATOM     35  C   LIG    1      -35.389  66.092  19.419  0.00  0.00    +0.040 A 
ATOM     36  N   LIG    1      -34.215  66.623  18.937  0.00  0.00    -0.361 N 
ATOM     37  H   LIG    1      -33.912  67.583  19.066  0.00  0.00    +0.165 HD
ATOM     38  C   LIG    1      -33.462  65.648  18.337  0.00  0.00    +0.083 A 
ATOM     39  C   LIG    1      -34.149  64.463  18.435  0.00  0.00    +0.019 A 
ATOM     40  C   LIG    1      -35.367  64.743  19.103  0.00  0.00    +0.027 A 
ENDBRANCH  31  35
ENDBRANCH  21  23
ENDBRANCH   3  21
TORSDOF 6
ENDMDL
MODEL 7
REMARK VINA RESULT:      -7.5      1.484      1.888
REMARK  Name = pdb/CHEMBL2037208.pdb
REMARK                            x       y       z     vdW  Elec       q    Type
REMARK                         _______ _______ _______ _____ _____    ______ ____
ROOT
ATOM      1  C   LIG    1      -38.270  74.399  25.161  0.00  0.00    +0.035 A 
ATOM      2  C   LIG    1      -38.298  72.995  25.198  0.00  0.00    +0.046 A 
ATOM      3  C   LIG    1      -39.336  72.264  24.600  0.00  0.00    +0.033 A 
ATOM      4  C   LIG    1      -40.353  72.972  23.952  0.00  0.00    +0.023 A 
ATOM      5  C   LIG    1      -40.345  74.366  23.920  0.00  0.00    +0.004 A 
ATOM      6  C   LIG    1      -39.305  75.077  24.520  0.00  0.00    +0.023 A 
ENDROOT
BRANCH   1   8
ATOM      7  C   LIG    1      -37.132  75.638  27.021  0.00  0.00    +0.248 C 
ATOM      8  N   LIG    1      -37.170  75.037  25.774  0.00  0.00    -0.281 N 
ATOM      9  H   LIG    1      -36.307  75.010  25.248  0.00  0.00    +0.155 HD
ATOM     10  O   LIG    1      -38.037  75.672  27.845  0.00  0.00    -0.270 OA
BRANCH   7  13
ATOM     11  C   LIG    1      -34.603  78.304  27.953  0.00  0.00    +0.056 A 
ATOM     12  C   LIG    1      -35.800  77.654  27.607  0.00  0.00    +0.025 A 
ATOM     13  C   LIG    1      -35.828  76.269  27.385  0.00  0.00    +0.038 A 
ATOM     14  C   LIG    1      -34.641  75.532  27.484  0.00  0.00    +0.013 A 
ATOM     15  C   LIG    1      -33.449  76.169  27.835  0.00  0.00    +0.001 A 
ATOM     16  C   LIG    1      -33.431  77.544  28.073  0.00  0.00    +0.012 A 
BRANCH  11  18
ATOM     17  F   LIG    1      -33.983  80.498  27.196  0.00  0.00    -0.166 F 
ATOM     18  C   LIG    1      -34.598  79.795  28.188  0.00  0.00    +0.417 C 
ATOM     19  F   LIG    1      -35.853  80.313  28.289  0.00  0.00    -0.166 F 
ATOM     20  F   LIG    1      -33.955  80.137  29.338  0.00  0.00    -0.166 F 
ENDBRANCH  11  18
ENDBRANCH   7  13
ENDBRANCH   1   8
BRANCH   3  21
ATOM     21  N   LIG    1      -39.284  70.857  24.603  0.00  0.00    -0.314 N 
ATOM     22  H   LIG    1      -39.825  70.413  25.335  0.00  0.00    +0.152 HD
BRANCH  21  23
ATOM     23  C   LIG    1      -38.596  69.972  23.752  0.00  0.00    +0.033 A 
ATOM     24  C   LIG    1      -37.327  69.479  24.077  0.00  0.00    +0.047 A 
ATOM     25  C   LIG    1      -36.681  68.678  23.158  0.00  0.00    +0.043 A 
ATOM     26  N   LIG    1      -35.416  68.124  23.304  0.00  0.00    -0.281 N 
ATOM     27  H   LIG    1      -34.811  68.236  24.104  0.00  0.00    +0.155 HD
ATOM     28  C   LIG    1      -35.035  67.430  22.172  0.00  0.00    +0.249 C 
ATOM     29  O   LIG    1      -33.951  66.908  21.992  0.00  0.00    -0.270 OA
ATOM     30  C   LIG    1      -36.213  67.524  21.227  0.00  0.00    +0.048 C 
ATOM     31  C   LIG    1      -36.374  66.989  20.006  0.00  0.00    +0.039 C 
ATOM     32  C   LIG    1      -37.228  68.344  21.919  0.00  0.00    +0.008 A 
ATOM     33  C   LIG    1      -38.483  68.814  21.578  0.00  0.00    +0.012 A 
ATOM     34  C   LIG    1      -39.162  69.629  22.501  0.00  0.00    +0.024 A 
BRANCH  31  35
ATOM     35  C   LIG    1      -35.450  66.191  19.275  0.00  0.00    +0.040 A 
ATOM     36  N   LIG    1      -34.603  66.726  18.334  0.00  0.00    -0.361 N 
ATOM     37  H   LIG    1      -34.490  67.716  18.144  0.00  0.00    +0.165 HD
ATOM     38  C   LIG    1      -33.855  65.736  17.749  0.00  0.00    +0.083 A 
ATOM     39  C   LIG    1      -34.214  64.541  18.322  0.00  0.00    +0.019 A 
ATOM     40  C   LIG    1      -35.226  64.823  19.273  0.00  0.00    +0.027 A 
ENDBRANCH  31  35
ENDBRANCH  21  23
ENDBRANCH   3  21
TORSDOF 6
ENDMDL
MODEL 8
REMARK VINA RESULT:      -7.4      5.344     10.148
REMARK  Name = pdb/CHEMBL2037208.pdb
REMARK                            x       y       z     vdW  Elec       q    Type
REMARK                         _______ _______ _______ _____ _____    ______ ____
ROOT
ATOM      1  C   LIG    1      -32.505  66.551  19.672  0.00  0.00    +0.035 A 
ATOM      2  C   LIG    1      -33.496  66.701  20.656  0.00  0.00    +0.046 A 
ATOM      3  C   LIG    1      -34.349  65.644  21.008  0.00  0.00    +0.033 A 
ATOM      4  C   LIG    1      -34.185  64.418  20.355  0.00  0.00    +0.023 A 
ATOM      5  C   LIG    1      -33.214  64.259  19.367  0.00  0.00    +0.004 A 
ATOM      6  C   LIG    1      -32.375  65.321  19.029  0.00  0.00    +0.023 A 
ENDROOT
BRANCH   1   8
ATOM      7  C   LIG    1      -31.750  68.523  18.320  0.00  0.00    +0.248 C 
ATOM      8  N   LIG    1      -31.685  67.669  19.408  0.00  0.00    -0.281 N 
ATOM      9  H   LIG    1      -31.004  67.883  20.123  0.00  0.00    +0.155 HD
ATOM     10  O   LIG    1      -32.576  68.495  17.415  0.00  0.00    -0.270 OA
BRANCH   7  13
ATOM     11  C   LIG    1      -28.410  70.268  18.733  0.00  0.00    +0.056 A 
ATOM     12  C   LIG    1      -29.423  69.294  18.735  0.00  0.00    +0.025 A 
ATOM     13  C   LIG    1      -30.719  69.603  18.294  0.00  0.00    +0.038 A 
ATOM     14  C   LIG    1      -31.010  70.908  17.875  0.00  0.00    +0.013 A 
ATOM     15  C   LIG    1      -30.007  71.879  17.863  0.00  0.00    +0.001 A 
ATOM     16  C   LIG    1      -28.715  71.561  18.284  0.00  0.00    +0.012 A 
BRANCH  11  18
ATOM     17  F   LIG    1      -26.677  68.618  18.951  0.00  0.00    -0.166 F 
ATOM     18  C   LIG    1      -27.023  69.911  19.210  0.00  0.00    +0.417 C 
ATOM     19  F   LIG    1      -26.058  70.677  18.633  0.00  0.00    -0.166 F 
ATOM     20  F   LIG    1      -26.880  70.071  20.554  0.00  0.00    -0.166 F 
ENDBRANCH  11  18
ENDBRANCH   7  13
ENDBRANCH   1   8
BRANCH   3  21
ATOM     21  N   LIG    1      -35.281  65.822  22.049  0.00  0.00    -0.314 N 
ATOM     22  H   LIG    1      -35.451  64.998  22.613  0.00  0.00    +0.152 HD
BRANCH  21  23
ATOM     23  C   LIG    1      -36.015  66.962  22.426  0.00  0.00    +0.033 A 
ATOM     24  C   LIG    1      -35.585  67.804  23.458  0.00  0.00    +0.047 A 
ATOM     25  C   LIG    1      -36.397  68.857  23.825  0.00  0.00    +0.043 A 
ATOM     26  N   LIG    1      -36.140  69.773  24.837  0.00  0.00    -0.281 N 
ATOM     27  H   LIG    1      -35.323  69.784  25.429  0.00  0.00    +0.155 HD
ATOM     28  C   LIG    1      -37.186  70.661  24.992  0.00  0.00    +0.249 C 
ATOM     29  O   LIG    1      -37.266  71.520  25.850  0.00  0.00    -0.270 OA
ATOM     30  C   LIG    1      -38.194  70.285  23.928  0.00  0.00    +0.048 C 
ATOM     31  C   LIG    1      -39.371  70.857  23.625  0.00  0.00    +0.039 C 
ATOM     32  C   LIG    1      -37.629  69.116  23.224  0.00  0.00    +0.008 A 
ATOM     33  C   LIG    1      -38.073  68.302  22.197  0.00  0.00    +0.012 A 
ATOM     34  C   LIG    1      -37.259  67.225  21.804  0.00  0.00    +0.024 A 
BRANCH  31  35
ATOM     35  C   LIG    1      -39.982  71.979  24.252  0.00  0.00    +0.040 A 
ATOM     36  N   LIG    1      -40.824  71.848  25.331  0.00  0.00    -0.361 N 
ATOM     37  H   LIG    1      -41.009  70.982  25.827  0.00  0.00    +0.165 HD
ATOM     38  C   LIG    1      -41.308  73.073  25.709  0.00  0.00    +0.083 A 
ATOM     39  C   LIG    1      -40.770  74.017  24.869  0.00  0.00    +0.019 A 
ATOM     40  C   LIG    1      -39.946  73.329  23.944  0.00  0.00    +0.027 A 
ENDBRANCH  31  35
ENDBRANCH  21  23
ENDBRANCH   3  21
TORSDOF 6
ENDMDL
MODEL 9
REMARK VINA RESULT:      -7.4     12.974     17.967
REMARK  Name = pdb/CHEMBL2037208.pdb
REMARK                            x       y       z     vdW  Elec       q    Type
REMARK                         _______ _______ _______ _____ _____    ______ ____
ROOT
ATOM      1  C   LIG    1      -18.655  78.087  32.298  0.00  0.00    +0.035 A 
ATOM      2  C   LIG    1      -19.812  77.935  31.517  0.00  0.00    +0.046 A 
ATOM      3  C   LIG    1      -19.789  77.250  30.293  0.00  0.00    +0.033 A 
ATOM      4  C   LIG    1      -18.574  76.705  29.865  0.00  0.00    +0.023 A 
ATOM      5  C   LIG    1      -17.414  76.859  30.625  0.00  0.00    +0.004 A 
ATOM      6  C   LIG    1      -17.456  77.545  31.839  0.00  0.00    +0.023 A 
ENDROOT
BRANCH   1   8
ATOM      7  C   LIG    1      -19.227  78.262  34.734  0.00  0.00    +0.248 C 
ATOM      8  N   LIG    1      -18.791  78.775  33.523  0.00  0.00    -0.281 N 
ATOM      9  H   LIG    1      -18.495  79.741  33.511  0.00  0.00    +0.155 HD
ATOM     10  O   LIG    1      -19.518  77.096  34.973  0.00  0.00    -0.270 OA
BRANCH   7  13
ATOM     11  C   LIG    1      -20.408  81.201  36.816  0.00  0.00    +0.056 A 
ATOM     12  C   LIG    1      -20.286  80.247  35.792  0.00  0.00    +0.025 A 
ATOM     13  C   LIG    1      -19.304  79.247  35.853  0.00  0.00    +0.038 A 
ATOM     14  C   LIG    1      -18.417  79.221  36.937  0.00  0.00    +0.013 A 
ATOM     15  C   LIG    1      -18.536  80.161  37.963  0.00  0.00    +0.001 A 
ATOM     16  C   LIG    1      -19.527  81.141  37.905  0.00  0.00    +0.012 A 
BRANCH  11  18
ATOM     17  F   LIG    1      -22.134  82.276  35.535  0.00  0.00    -0.166 F 
ATOM     18  C   LIG    1      -21.474  82.267  36.727  0.00  0.00    +0.417 C 
ATOM     19  F   LIG    1      -22.434  82.126  37.682  0.00  0.00    -0.166 F 
ATOM     20  F   LIG    1      -20.969  83.521  36.881  0.00  0.00    -0.166 F 
ENDBRANCH  11  18
ENDBRANCH   7  13
ENDBRANCH   1   8
BRANCH   3  21
ATOM     21  N   LIG    1      -20.988  77.065  29.579  0.00  0.00    -0.314 N 
ATOM     22  H   LIG    1      -20.929  77.271  28.588  0.00  0.00    +0.152 HD
BRANCH  21  23
ATOM     23  C   LIG    1      -22.254  76.642  30.023  0.00  0.00    +0.033 A 
ATOM     24  C   LIG    1      -23.344  77.520  30.075  0.00  0.00    +0.047 A 
ATOM     25  C   LIG    1      -24.534  77.056  30.597  0.00  0.00    +0.043 A 
ATOM     26  N   LIG    1      -25.703  77.790  30.744  0.00  0.00    -0.281 N 
ATOM     27  H   LIG    1      -25.829  78.757  30.484  0.00  0.00    +0.155 HD
ATOM     28  C   LIG    1      -26.691  77.049  31.361  0.00  0.00    +0.249 C 
ATOM     29  O   LIG    1      -27.789  77.461  31.685  0.00  0.00    -0.270 OA
ATOM     30  C   LIG    1      -26.085  75.681  31.588  0.00  0.00    +0.048 C 
ATOM     31  C   LIG    1      -26.638  74.579  32.121  0.00  0.00    +0.039 C 
ATOM     32  C   LIG    1      -24.700  75.758  31.083  0.00  0.00    +0.008 A 
ATOM     33  C   LIG    1      -23.640  74.871  31.036  0.00  0.00    +0.012 A 
ATOM     34  C   LIG    1      -22.418  75.322  30.505  0.00  0.00    +0.024 A 
BRANCH  31  35
ATOM     35  C   LIG    1      -27.958  74.424  32.627  0.00  0.00    +0.040 A 
ATOM     36  N   LIG    1      -28.368  75.011  33.801  0.00  0.00    -0.361 N 
ATOM     37  H   LIG    1      -27.820  75.666  34.350  0.00  0.00    +0.165 HD
ATOM     38  C   LIG    1      -29.664  74.665  34.081  0.00  0.00    +0.083 A 
ATOM     39  C   LIG    1      -30.109  73.846  33.072  0.00  0.00    +0.019 A 
ATOM     40  C   LIG    1      -29.034  73.683  32.163  0.00  0.00    +0.027 A 
ENDBRANCH  31  35
ENDBRANCH  21  23
ENDBRANCH   3  21
TORSDOF 6
ENDMDL
