MODEL 1
REMARK VINA RESULT:      -6.6      0.000      0.000
REMARK  Name = pdb/CHEMBL3947413.pdb
REMARK                            x       y       z     vdW  Elec       q    Type
REMARK                         _______ _______ _______ _____ _____    ______ ____
ROOT
ATOM      1  C   LIG    1      -38.128  77.259  26.407  0.00  0.00    +0.149 A 
ATOM      2  N   LIG    1      -39.329  76.979  25.879  0.00  0.00    -0.160 NA
ATOM      3  N   LIG    1      -39.166  75.827  25.187  0.00  0.00    -0.218 N 
ATOM      4  C   LIG    1      -37.885  75.286  25.361  0.00  0.00    +0.129 A 
ATOM      5  C   LIG    1      -37.183  76.254  26.053  0.00  0.00    +0.078 A 
ENDROOT
BRANCH   3   6
ATOM      6  C   LIG    1      -40.242  75.321  24.403  0.00  0.00    +0.067 A 
ATOM      7  C   LIG    1      -40.398  73.946  24.199  0.00  0.00    +0.028 A 
ATOM      8  C   LIG    1      -41.437  73.461  23.404  0.00  0.00    +0.002 A 
ATOM      9  C   LIG    1      -42.330  74.346  22.806  0.00  0.00    +0.000 A 
ATOM     10  C   LIG    1      -42.184  75.718  23.003  0.00  0.00    +0.002 A 
ATOM     11  C   LIG    1      -41.133  76.209  23.784  0.00  0.00    +0.028 A 
ENDBRANCH   3   6
BRANCH   4  12
ATOM     12  N   LIG    1      -37.449  73.989  24.993  0.00  0.00    -0.266 N 
ATOM     13  H   LIG    1      -37.053  73.890  24.063  0.00  0.00    +0.157 HD
ATOM     14  C   LIG    1      -37.541  72.836  25.844  0.00  0.00    +0.251 C 
ATOM     15  O   LIG    1      -38.031  72.946  26.970  0.00  0.00    -0.270 OA
BRANCH  14  16
ATOM     16  C   LIG    1      -37.104  71.492  25.370  0.00  0.00    +0.056 A 
ATOM     17  C   LIG    1      -36.054  70.748  25.907  0.00  0.00    +0.054 A 
ATOM     18 CL   LIG    1      -35.209  71.212  27.328  0.00  0.00    -0.083 Cl
ATOM     19  C   LIG    1      -35.721  69.505  25.352  0.00  0.00    +0.041 A 
ATOM     20  C   LIG    1      -36.482  68.945  24.313  0.00  0.00    +0.052 A 
ATOM     21 CL   LIG    1      -35.883  67.446  23.681  0.00  0.00    -0.083 Cl
ATOM     22  C   LIG    1      -37.635  69.599  23.830  0.00  0.00    +0.022 A 
ATOM     23  C   LIG    1      -37.888  70.891  24.365  0.00  0.00    +0.026 A 
BRANCH  22  24
ATOM     24  C   LIG    1      -38.603  68.982  22.877  0.00  0.00    +0.107 A 
ATOM     25  C   LIG    1      -38.388  68.885  21.498  0.00  0.00    +0.149 A 
ATOM     26  F   LIG    1      -37.243  69.298  20.933  0.00  0.00    -0.203 F 
ATOM     27  C   LIG    1      -39.374  68.360  20.668  0.00  0.00    +0.042 A 
ATOM     28  C   LIG    1      -40.569  67.923  21.224  0.00  0.00    +0.023 A 
ATOM     29  C   LIG    1      -40.725  68.047  22.591  0.00  0.00    +0.111 A 
ATOM     30  N   LIG    1      -39.786  68.578  23.410  0.00  0.00    -0.252 NA
ENDBRANCH  22  24
ENDBRANCH  14  16
ENDBRANCH   4  12
BRANCH   1  32
ATOM     31  N   LIG    1      -36.781  79.050  27.251  0.00  0.00    -0.246 NA
ATOM     32  C   LIG    1      -37.907  78.426  27.270  0.00  0.00    +0.236 C 
BRANCH  32  33
ATOM     33  O   LIG    1      -38.934  78.742  28.092  0.00  0.00    -0.491 OA
ATOM     34  H   LIG    1      -39.745  78.291  27.787  0.00  0.00    +0.294 HD
ENDBRANCH  32  33
BRANCH  31  35
ATOM     35  C   LIG    1      -36.662  80.318  27.991  0.00  0.00    +0.179 C 
BRANCH  35  36
ATOM     36  C   LIG    1      -35.219  80.836  28.023  0.00  0.00    +0.161 C 
BRANCH  36  37
ATOM     37  O   LIG    1      -35.029  81.716  26.898  0.00  0.00    -0.388 OA
ATOM     38  H   LIG    1      -34.086  81.606  26.660  0.00  0.00    +0.210 HD
ENDBRANCH  36  37
BRANCH  36  39
ATOM     39  C   LIG    1      -34.218  79.671  27.922  0.00  0.00    +0.192 C 
BRANCH  39  41
ATOM     40  C   LIG    1      -32.299  78.966  26.743  0.00  0.00    +0.194 C 
ATOM     41  O   LIG    1      -33.484  79.762  26.694  0.00  0.00    -0.380 OA
ENDBRANCH  39  41
ENDBRANCH  36  39
ENDBRANCH  35  36
ENDBRANCH  31  35
ENDBRANCH   1  32
TORSDOF 11
ENDMDL
MODEL 2
REMARK VINA RESULT:      -6.5      4.410      6.747
REMARK  Name = pdb/CHEMBL3947413.pdb
REMARK                            x       y       z     vdW  Elec       q    Type
REMARK                         _______ _______ _______ _____ _____    ______ ____
ROOT
ATOM      1  C   LIG    1      -32.463  76.024  29.144  0.00  0.00    +0.149 A 
ATOM      2  N   LIG    1      -33.037  77.224  29.321  0.00  0.00    -0.160 NA
ATOM      3  N   LIG    1      -34.022  77.299  28.395  0.00  0.00    -0.218 N 
ATOM      4  C   LIG    1      -34.173  76.097  27.689  0.00  0.00    +0.129 A 
ATOM      5  C   LIG    1      -33.107  75.314  28.091  0.00  0.00    +0.078 A 
ENDROOT
BRANCH   3   6
ATOM      6  C   LIG    1      -34.750  78.513  28.242  0.00  0.00    +0.067 A 
ATOM      7  C   LIG    1      -34.131  79.665  27.748  0.00  0.00    +0.028 A 
ATOM      8  C   LIG    1      -34.844  80.859  27.630  0.00  0.00    +0.002 A 
ATOM      9  C   LIG    1      -36.184  80.910  28.004  0.00  0.00    +0.000 A 
ATOM     10  C   LIG    1      -36.812  79.767  28.496  0.00  0.00    +0.002 A 
ATOM     11  C   LIG    1      -36.095  78.575  28.634  0.00  0.00    +0.028 A 
ENDBRANCH   3   6
BRANCH   4  12
ATOM     12  N   LIG    1      -35.244  75.739  26.834  0.00  0.00    -0.266 N 
ATOM     13  H   LIG    1      -35.107  75.904  25.841  0.00  0.00    +0.157 HD
ATOM     14  C   LIG    1      -36.484  75.174  27.288  0.00  0.00    +0.251 C 
ATOM     15  O   LIG    1      -36.662  74.981  28.492  0.00  0.00    -0.270 OA
BRANCH  14  16
ATOM     16  C   LIG    1      -37.584  74.865  26.331  0.00  0.00    +0.056 A 
ATOM     17  C   LIG    1      -38.376  75.808  25.678  0.00  0.00    +0.054 A 
ATOM     18 CL   LIG    1      -38.078  77.497  25.758  0.00  0.00    -0.083 Cl
ATOM     19  C   LIG    1      -39.402  75.388  24.821  0.00  0.00    +0.041 A 
ATOM     20  C   LIG    1      -39.597  74.028  24.532  0.00  0.00    +0.052 A 
ATOM     21 CL   LIG    1      -40.964  73.674  23.525  0.00  0.00    -0.083 Cl
ATOM     22  C   LIG    1      -38.734  73.046  25.061  0.00  0.00    +0.022 A 
ATOM     23  C   LIG    1      -37.760  73.509  25.987  0.00  0.00    +0.026 A 
BRANCH  22  24
ATOM     24  C   LIG    1      -38.749  71.613  24.646  0.00  0.00    +0.107 A 
ATOM     25  C   LIG    1      -39.800  70.732  24.921  0.00  0.00    +0.149 A 
ATOM     26  F   LIG    1      -40.918  71.140  25.541  0.00  0.00    -0.203 F 
ATOM     27  C   LIG    1      -39.704  69.390  24.562  0.00  0.00    +0.042 A 
ATOM     28  C   LIG    1      -38.560  68.939  23.918  0.00  0.00    +0.023 A 
ATOM     29  C   LIG    1      -37.555  69.855  23.676  0.00  0.00    +0.111 A 
ATOM     30  N   LIG    1      -37.620  71.158  24.041  0.00  0.00    -0.252 NA
ENDBRANCH  22  24
ENDBRANCH  14  16
ENDBRANCH   4  12
BRANCH   1  32
ATOM     31  N   LIG    1      -30.436  76.356  30.375  0.00  0.00    -0.246 NA
ATOM     32  C   LIG    1      -31.366  75.549  29.998  0.00  0.00    +0.236 C 
BRANCH  32  33
ATOM     33  O   LIG    1      -31.393  74.230  30.296  0.00  0.00    -0.491 OA
ATOM     34  H   LIG    1      -31.992  74.080  31.053  0.00  0.00    +0.294 HD
ENDBRANCH  32  33
BRANCH  31  35
ATOM     35  C   LIG    1      -29.459  75.890  31.375  0.00  0.00    +0.179 C 
BRANCH  35  36
ATOM     36  C   LIG    1      -28.688  77.051  32.015  0.00  0.00    +0.161 C 
BRANCH  36  37
ATOM     37  O   LIG    1      -28.741  78.178  31.119  0.00  0.00    -0.388 OA
ATOM     38  H   LIG    1      -29.578  78.058  30.626  0.00  0.00    +0.210 HD
ENDBRANCH  36  37
BRANCH  36  39
ATOM     39  C   LIG    1      -27.217  76.665  32.250  0.00  0.00    +0.192 C 
BRANCH  39  41
ATOM     40  C   LIG    1      -25.275  77.247  31.039  0.00  0.00    +0.194 C 
ATOM     41  O   LIG    1      -26.531  76.568  30.993  0.00  0.00    -0.380 OA
ENDBRANCH  39  41
ENDBRANCH  36  39
ENDBRANCH  35  36
ENDBRANCH  31  35
ENDBRANCH   1  32
TORSDOF 11
ENDMDL
MODEL 3
REMARK VINA RESULT:      -6.5      4.581      8.209
REMARK  Name = pdb/CHEMBL3947413.pdb
REMARK                            x       y       z     vdW  Elec       q    Type
REMARK                         _______ _______ _______ _____ _____    ______ ____
ROOT
ATOM      1  C   LIG    1      -32.618  76.329  28.750  0.00  0.00    +0.149 A 
ATOM      2  N   LIG    1      -33.140  77.515  29.099  0.00  0.00    -0.160 NA
ATOM      3  N   LIG    1      -34.161  77.734  28.237  0.00  0.00    -0.218 N 
ATOM      4  C   LIG    1      -34.385  76.635  27.396  0.00  0.00    +0.129 A 
ATOM      5  C   LIG    1      -33.333  75.776  27.648  0.00  0.00    +0.078 A 
ENDROOT
BRANCH   3   6
ATOM      6  C   LIG    1      -34.850  78.980  28.268  0.00  0.00    +0.067 A 
ATOM      7  C   LIG    1      -34.306  80.118  27.663  0.00  0.00    +0.028 A 
ATOM      8  C   LIG    1      -34.975  81.341  27.725  0.00  0.00    +0.002 A 
ATOM      9  C   LIG    1      -36.194  81.437  28.391  0.00  0.00    +0.000 A 
ATOM     10  C   LIG    1      -36.745  80.310  28.996  0.00  0.00    +0.002 A 
ATOM     11  C   LIG    1      -36.069  79.087  28.953  0.00  0.00    +0.028 A 
ENDBRANCH   3   6
BRANCH   4  12
ATOM     12  N   LIG    1      -35.504  76.419  26.555  0.00  0.00    -0.266 N 
ATOM     13  H   LIG    1      -35.418  76.736  25.594  0.00  0.00    +0.157 HD
ATOM     14  C   LIG    1      -36.725  75.794  26.981  0.00  0.00    +0.251 C 
ATOM     15  O   LIG    1      -36.841  75.416  28.149  0.00  0.00    -0.270 OA
BRANCH  14  16
ATOM     16  C   LIG    1      -37.878  75.642  26.049  0.00  0.00    +0.056 A 
ATOM     17  C   LIG    1      -38.291  74.447  25.462  0.00  0.00    +0.054 A 
ATOM     18 CL   LIG    1      -37.617  72.921  25.872  0.00  0.00    -0.083 Cl
ATOM     19  C   LIG    1      -39.377  74.440  24.577  0.00  0.00    +0.041 A 
ATOM     20  C   LIG    1      -40.123  75.604  24.332  0.00  0.00    +0.052 A 
ATOM     21 CL   LIG    1      -41.377  75.445  23.144  0.00  0.00    -0.083 Cl
ATOM     22  C   LIG    1      -39.828  76.807  25.008  0.00  0.00    +0.022 A 
ATOM     23  C   LIG    1      -38.671  76.788  25.833  0.00  0.00    +0.026 A 
BRANCH  22  24
ATOM     24  C   LIG    1      -40.689  78.024  24.956  0.00  0.00    +0.107 A 
ATOM     25  C   LIG    1      -40.461  79.106  24.099  0.00  0.00    +0.149 A 
ATOM     26  F   LIG    1      -39.462  79.097  23.203  0.00  0.00    -0.203 F 
ATOM     27  C   LIG    1      -41.270  80.236  24.164  0.00  0.00    +0.042 A 
ATOM     28  C   LIG    1      -42.313  80.274  25.080  0.00  0.00    +0.023 A 
ATOM     29  C   LIG    1      -42.487  79.177  25.901  0.00  0.00    +0.111 A 
ATOM     30  N   LIG    1      -41.694  78.080  25.869  0.00  0.00    -0.252 NA
ENDBRANCH  22  24
ENDBRANCH  14  16
ENDBRANCH   4  12
BRANCH   1  32
ATOM     31  N   LIG    1      -30.633  76.456  30.081  0.00  0.00    -0.246 NA
ATOM     32  C   LIG    1      -31.504  75.719  29.486  0.00  0.00    +0.236 C 
BRANCH  32  33
ATOM     33  O   LIG    1      -31.450  74.367  29.439  0.00  0.00    -0.491 OA
ATOM     34  H   LIG    1      -31.566  74.006  30.339  0.00  0.00    +0.294 HD
ENDBRANCH  32  33
BRANCH  31  35
ATOM     35  C   LIG    1      -29.640  75.810  30.958  0.00  0.00    +0.179 C 
BRANCH  35  36
ATOM     36  C   LIG    1      -28.904  76.822  31.844  0.00  0.00    +0.161 C 
BRANCH  36  37
ATOM     37  O   LIG    1      -28.916  78.099  31.177  0.00  0.00    -0.388 OA
ATOM     38  H   LIG    1      -29.846  78.397  31.238  0.00  0.00    +0.210 HD
ENDBRANCH  36  37
BRANCH  36  39
ATOM     39  C   LIG    1      -27.445  76.389  32.071  0.00  0.00    +0.192 C 
BRANCH  39  41
ATOM     40  C   LIG    1      -25.431  77.211  31.154  0.00  0.00    +0.194 C 
ATOM     41  O   LIG    1      -26.574  77.523  31.952  0.00  0.00    -0.380 OA
ENDBRANCH  39  41
ENDBRANCH  36  39
ENDBRANCH  35  36
ENDBRANCH  31  35
ENDBRANCH   1  32
TORSDOF 11
ENDMDL
MODEL 4
REMARK VINA RESULT:      -6.4      8.698     13.031
REMARK  Name = pdb/CHEMBL3947413.pdb
REMARK                            x       y       z     vdW  Elec       q    Type
REMARK                         _______ _______ _______ _____ _____    ______ ____
ROOT
ATOM      1  C   LIG    1      -31.165  87.072  30.781  0.00  0.00    +0.149 A 
ATOM      2  N   LIG    1      -32.257  87.833  30.613  0.00  0.00    -0.160 NA
ATOM      3  N   LIG    1      -33.125  87.079  29.900  0.00  0.00    -0.218 N 
ATOM      4  C   LIG    1      -32.649  85.775  29.701  0.00  0.00    +0.129 A 
ATOM      5  C   LIG    1      -31.349  85.798  30.170  0.00  0.00    +0.078 A 
ENDROOT
BRANCH   3   6
ATOM      6  C   LIG    1      -34.348  87.651  29.450  0.00  0.00    +0.067 A 
ATOM      7  C   LIG    1      -35.560  87.342  30.076  0.00  0.00    +0.028 A 
ATOM      8  C   LIG    1      -36.758  87.884  29.609  0.00  0.00    +0.002 A 
ATOM      9  C   LIG    1      -36.755  88.742  28.513  0.00  0.00    +0.000 A 
ATOM     10  C   LIG    1      -35.554  89.058  27.882  0.00  0.00    +0.002 A 
ATOM     11  C   LIG    1      -34.354  88.502  28.335  0.00  0.00    +0.028 A 
ENDBRANCH   3   6
BRANCH   4  12
ATOM     12  N   LIG    1      -33.382  84.662  29.220  0.00  0.00    -0.266 N 
ATOM     13  H   LIG    1      -33.312  84.469  28.226  0.00  0.00    +0.157 HD
ATOM     14  C   LIG    1      -34.201  83.819  30.045  0.00  0.00    +0.251 C 
ATOM     15  O   LIG    1      -34.299  84.055  31.251  0.00  0.00    -0.270 OA
BRANCH  14  16
ATOM     16  C   LIG    1      -34.981  82.693  29.458  0.00  0.00    +0.056 A 
ATOM     17  C   LIG    1      -36.348  82.712  29.184  0.00  0.00    +0.054 A 
ATOM     18 CL   LIG    1      -37.312  84.126  29.332  0.00  0.00    -0.083 Cl
ATOM     19  C   LIG    1      -36.973  81.575  28.657  0.00  0.00    +0.041 A 
ATOM     20  C   LIG    1      -36.233  80.433  28.311  0.00  0.00    +0.052 A 
ATOM     21 CL   LIG    1      -37.169  79.083  27.756  0.00  0.00    -0.083 Cl
ATOM     22  C   LIG    1      -34.828  80.416  28.442  0.00  0.00    +0.022 A 
ATOM     23  C   LIG    1      -34.247  81.559  29.055  0.00  0.00    +0.026 A 
BRANCH  22  24
ATOM     24  C   LIG    1      -33.956  79.326  27.914  0.00  0.00    +0.107 A 
ATOM     25  C   LIG    1      -33.741  78.110  28.571  0.00  0.00    +0.149 A 
ATOM     26  F   LIG    1      -34.364  77.811  29.721  0.00  0.00    -0.203 F 
ATOM     27  C   LIG    1      -32.854  77.175  28.046  0.00  0.00    +0.042 A 
ATOM     28  C   LIG    1      -32.195  77.456  26.857  0.00  0.00    +0.023 A 
ATOM     29  C   LIG    1      -32.446  78.674  26.255  0.00  0.00    +0.111 A 
ATOM     30  N   LIG    1      -33.286  79.607  26.765  0.00  0.00    -0.252 NA
ENDBRANCH  22  24
ENDBRANCH  14  16
ENDBRANCH   4  12
BRANCH   1  32
ATOM     31  N   LIG    1      -29.958  87.369  32.827  0.00  0.00    -0.246 NA
ATOM     32  C   LIG    1      -30.003  87.532  31.551  0.00  0.00    +0.236 C 
BRANCH  32  33
ATOM     33  O   LIG    1      -29.044  88.161  30.833  0.00  0.00    -0.491 OA
ATOM     34  H   LIG    1      -28.164  87.889  31.155  0.00  0.00    +0.294 HD
ENDBRANCH  32  33
BRANCH  31  35
ATOM     35  C   LIG    1      -28.703  87.676  33.536  0.00  0.00    +0.179 C 
BRANCH  35  36
ATOM     36  C   LIG    1      -28.529  86.822  34.798  0.00  0.00    +0.161 C 
BRANCH  36  37
ATOM     37  O   LIG    1      -27.135  86.478  34.923  0.00  0.00    -0.388 OA
ATOM     38  H   LIG    1      -26.838  86.328  34.002  0.00  0.00    +0.210 HD
ENDBRANCH  36  37
BRANCH  36  39
ATOM     39  C   LIG    1      -29.358  85.529  34.701  0.00  0.00    +0.192 C 
BRANCH  39  41
ATOM     40  C   LIG    1      -29.178  83.729  36.218  0.00  0.00    +0.194 C 
ATOM     41  O   LIG    1      -28.566  84.409  35.121  0.00  0.00    -0.380 OA
ENDBRANCH  39  41
ENDBRANCH  36  39
ENDBRANCH  35  36
ENDBRANCH  31  35
ENDBRANCH   1  32
TORSDOF 11
ENDMDL
MODEL 5
REMARK VINA RESULT:      -6.3     17.264     19.567
REMARK  Name = pdb/CHEMBL3947413.pdb
REMARK                            x       y       z     vdW  Elec       q    Type
REMARK                         _______ _______ _______ _____ _____    ______ ____
ROOT
ATOM      1  C   LIG    1      -22.651  82.770  15.189  0.00  0.00    +0.149 A 
ATOM      2  N   LIG    1      -23.767  82.159  14.762  0.00  0.00    -0.160 NA
ATOM      3  N   LIG    1      -23.493  80.833  14.792  0.00  0.00    -0.218 N 
ATOM      4  C   LIG    1      -22.236  80.568  15.354  0.00  0.00    +0.129 A 
ATOM      5  C   LIG    1      -21.649  81.810  15.510  0.00  0.00    +0.078 A 
ENDROOT
BRANCH   3   6
ATOM      6  C   LIG    1      -24.445  79.908  14.279  0.00  0.00    +0.067 A 
ATOM      7  C   LIG    1      -24.524  79.643  12.907  0.00  0.00    +0.028 A 
ATOM      8  C   LIG    1      -25.481  78.758  12.410  0.00  0.00    +0.002 A 
ATOM      9  C   LIG    1      -26.367  78.128  13.279  0.00  0.00    +0.000 A 
ATOM     10  C   LIG    1      -26.297  78.383  14.647  0.00  0.00    +0.002 A 
ATOM     11  C   LIG    1      -25.352  79.284  15.147  0.00  0.00    +0.028 A 
ENDBRANCH   3   6
BRANCH   4  12
ATOM     12  N   LIG    1      -21.732  79.309  15.762  0.00  0.00    -0.266 N 
ATOM     13  H   LIG    1      -21.799  79.092  16.752  0.00  0.00    +0.157 HD
ATOM     14  C   LIG    1      -21.141  78.350  14.871  0.00  0.00    +0.251 C 
ATOM     15  O   LIG    1      -21.046  78.610  13.670  0.00  0.00    -0.270 OA
BRANCH  14  16
ATOM     16  C   LIG    1      -20.589  77.063  15.382  0.00  0.00    +0.056 A 
ATOM     17  C   LIG    1      -19.338  76.898  15.976  0.00  0.00    +0.054 A 
ATOM     18 CL   LIG    1      -18.305  78.215  16.360  0.00  0.00    -0.083 Cl
ATOM     19  C   LIG    1      -18.922  75.627  16.391  0.00  0.00    +0.041 A 
ATOM     20  C   LIG    1      -19.778  74.517  16.304  0.00  0.00    +0.052 A 
ATOM     21 CL   LIG    1      -19.077  73.002  16.776  0.00  0.00    -0.083 Cl
ATOM     22  C   LIG    1      -21.101  74.660  15.837  0.00  0.00    +0.022 A 
ATOM     23  C   LIG    1      -21.453  75.949  15.353  0.00  0.00    +0.026 A 
BRANCH  22  24
ATOM     24  C   LIG    1      -22.128  73.580  15.902  0.00  0.00    +0.107 A 
ATOM     25  C   LIG    1      -23.009  73.403  16.975  0.00  0.00    +0.149 A 
ATOM     26  F   LIG    1      -23.029  74.247  18.017  0.00  0.00    -0.203 F 
ATOM     27  C   LIG    1      -23.889  72.324  16.990  0.00  0.00    +0.042 A 
ATOM     28  C   LIG    1      -23.891  71.434  15.925  0.00  0.00    +0.023 A 
ATOM     29  C   LIG    1      -22.998  71.659  14.896  0.00  0.00    +0.111 A 
ATOM     30  N   LIG    1      -22.117  72.688  14.877  0.00  0.00    -0.252 NA
ENDBRANCH  22  24
ENDBRANCH  14  16
ENDBRANCH   4  12
BRANCH   1  32
ATOM     31  N   LIG    1      -22.440  84.984  14.303  0.00  0.00    -0.246 NA
ATOM     32  C   LIG    1      -22.568  84.229  15.337  0.00  0.00    +0.236 C 
BRANCH  32  33
ATOM     33  O   LIG    1      -22.585  84.683  16.611  0.00  0.00    -0.491 OA
ATOM     34  H   LIG    1      -23.507  84.853  16.883  0.00  0.00    +0.294 HD
ENDBRANCH  32  33
BRANCH  31  35
ATOM     35  C   LIG    1      -22.544  86.444  14.476  0.00  0.00    +0.179 C 
BRANCH  35  36
ATOM     36  C   LIG    1      -21.171  87.106  14.643  0.00  0.00    +0.161 C 
BRANCH  36  37
ATOM     37  O   LIG    1      -20.979  87.404  16.040  0.00  0.00    -0.388 OA
ATOM     38  H   LIG    1      -20.866  86.528  16.462  0.00  0.00    +0.210 HD
ENDBRANCH  36  37
BRANCH  36  39
ATOM     39  C   LIG    1      -21.095  88.415  13.837  0.00  0.00    +0.192 C 
BRANCH  39  41
ATOM     40  C   LIG    1      -19.297  87.203  12.904  0.00  0.00    +0.194 C 
ATOM     41  O   LIG    1      -19.831  88.502  13.165  0.00  0.00    -0.380 OA
ENDBRANCH  39  41
ENDBRANCH  36  39
ENDBRANCH  35  36
ENDBRANCH  31  35
ENDBRANCH   1  32
TORSDOF 11
ENDMDL
MODEL 6
REMARK VINA RESULT:      -6.3      2.155      2.971
REMARK  Name = pdb/CHEMBL3947413.pdb
REMARK                            x       y       z     vdW  Elec       q    Type
REMARK                         _______ _______ _______ _____ _____    ______ ____
ROOT
ATOM      1  C   LIG    1      -37.596  76.962  26.843  0.00  0.00    +0.149 A 
ATOM      2  N   LIG    1      -38.872  77.295  26.598  0.00  0.00    -0.160 NA
ATOM      3  N   LIG    1      -39.309  76.415  25.666  0.00  0.00    -0.218 N 
ATOM      4  C   LIG    1      -38.354  75.428  25.387  0.00  0.00    +0.129 A 
ATOM      5  C   LIG    1      -37.217  75.835  26.058  0.00  0.00    +0.078 A 
ENDROOT
BRANCH   3   6
ATOM      6  C   LIG    1      -40.605  76.578  25.100  0.00  0.00    +0.067 A 
ATOM      7  C   LIG    1      -40.785  76.610  23.714  0.00  0.00    +0.028 A 
ATOM      8  C   LIG    1      -42.056  76.800  23.168  0.00  0.00    +0.002 A 
ATOM      9  C   LIG    1      -43.158  76.958  24.004  0.00  0.00    +0.000 A 
ATOM     10  C   LIG    1      -42.990  76.927  25.387  0.00  0.00    +0.002 A 
ATOM     11  C   LIG    1      -41.716  76.756  25.938  0.00  0.00    +0.028 A 
ENDBRANCH   3   6
BRANCH   4  12
ATOM     12  N   LIG    1      -38.555  74.228  24.661  0.00  0.00    -0.266 N 
ATOM     13  H   LIG    1      -38.177  74.200  23.718  0.00  0.00    +0.157 HD
ATOM     14  C   LIG    1      -39.251  73.082  25.173  0.00  0.00    +0.251 C 
ATOM     15  O   LIG    1      -39.722  73.113  26.312  0.00  0.00    -0.270 OA
BRANCH  14  16
ATOM     16  C   LIG    1      -39.463  71.870  24.332  0.00  0.00    +0.056 A 
ATOM     17  C   LIG    1      -40.536  71.664  23.466  0.00  0.00    +0.054 A 
ATOM     18 CL   LIG    1      -41.701  72.877  23.116  0.00  0.00    -0.083 Cl
ATOM     19  C   LIG    1      -40.637  70.466  22.748  0.00  0.00    +0.041 A 
ATOM     20  C   LIG    1      -39.628  69.492  22.812  0.00  0.00    +0.052 A 
ATOM     21 CL   LIG    1      -39.950  68.032  21.934  0.00  0.00    -0.083 Cl
ATOM     22  C   LIG    1      -38.457  69.714  23.567  0.00  0.00    +0.022 A 
ATOM     23  C   LIG    1      -38.434  70.906  24.341  0.00  0.00    +0.026 A 
BRANCH  22  24
ATOM     24  C   LIG    1      -37.260  68.825  23.527  0.00  0.00    +0.107 A 
ATOM     25  C   LIG    1      -36.585  68.476  22.353  0.00  0.00    +0.149 A 
ATOM     26  F   LIG    1      -36.942  68.976  21.160  0.00  0.00    -0.203 F 
ATOM     27  C   LIG    1      -35.519  67.582  22.394  0.00  0.00    +0.042 A 
ATOM     28  C   LIG    1      -35.125  67.049  23.614  0.00  0.00    +0.023 A 
ATOM     29  C   LIG    1      -35.831  67.429  24.740  0.00  0.00    +0.111 A 
ATOM     30  N   LIG    1      -36.887  68.278  24.715  0.00  0.00    -0.252 NA
ENDBRANCH  22  24
ENDBRANCH  14  16
ENDBRANCH   4  12
BRANCH   1  32
ATOM     31  N   LIG    1      -36.249  78.806  27.563  0.00  0.00    -0.246 NA
ATOM     32  C   LIG    1      -36.782  77.667  27.841  0.00  0.00    +0.236 C 
BRANCH  32  33
ATOM     33  O   LIG    1      -36.607  77.014  29.013  0.00  0.00    -0.491 OA
ATOM     34  H   LIG    1      -36.327  77.648  29.700  0.00  0.00    +0.294 HD
ENDBRANCH  32  33
BRANCH  31  35
ATOM     35  C   LIG    1      -35.597  79.564  28.645  0.00  0.00    +0.179 C 
BRANCH  35  36
ATOM     36  C   LIG    1      -34.304  80.243  28.177  0.00  0.00    +0.161 C 
BRANCH  36  37
ATOM     37  O   LIG    1      -34.571  80.919  26.933  0.00  0.00    -0.388 OA
ATOM     38  H   LIG    1      -35.548  80.954  26.880  0.00  0.00    +0.210 HD
ENDBRANCH  36  37
BRANCH  36  39
ATOM     39  C   LIG    1      -33.192  79.202  27.952  0.00  0.00    +0.192 C 
BRANCH  39  41
ATOM     40  C   LIG    1      -32.173  77.895  26.271  0.00  0.00    +0.194 C 
ATOM     41  O   LIG    1      -32.905  79.089  26.551  0.00  0.00    -0.380 OA
ENDBRANCH  39  41
ENDBRANCH  36  39
ENDBRANCH  35  36
ENDBRANCH  31  35
ENDBRANCH   1  32
TORSDOF 11
ENDMDL
MODEL 7
REMARK VINA RESULT:      -6.3     17.125     20.636
REMARK  Name = pdb/CHEMBL3947413.pdb
REMARK                            x       y       z     vdW  Elec       q    Type
REMARK                         _______ _______ _______ _____ _____    ______ ____
ROOT
ATOM      1  C   LIG    1      -24.537  83.044  37.334  0.00  0.00    +0.149 A 
ATOM      2  N   LIG    1      -23.482  83.472  38.044  0.00  0.00    -0.160 NA
ATOM      3  N   LIG    1      -22.425  82.751  37.602  0.00  0.00    -0.218 N 
ATOM      4  C   LIG    1      -22.764  81.933  36.515  0.00  0.00    +0.129 A 
ATOM      5  C   LIG    1      -24.138  82.037  36.409  0.00  0.00    +0.078 A 
ENDROOT
BRANCH   3   6
ATOM      6  C   LIG    1      -21.164  82.886  38.248  0.00  0.00    +0.067 A 
ATOM      7  C   LIG    1      -20.372  84.022  38.048  0.00  0.00    +0.028 A 
ATOM      8  C   LIG    1      -19.123  84.132  38.662  0.00  0.00    +0.002 A 
ATOM      9  C   LIG    1      -18.656  83.108  39.482  0.00  0.00    +0.000 A 
ATOM     10  C   LIG    1      -19.437  81.973  39.689  0.00  0.00    +0.002 A 
ATOM     11  C   LIG    1      -20.680  81.851  39.061  0.00  0.00    +0.028 A 
ENDBRANCH   3   6
BRANCH   4  12
ATOM     12  N   LIG    1      -21.874  81.240  35.658  0.00  0.00    -0.266 N 
ATOM     13  H   LIG    1      -21.546  81.745  34.840  0.00  0.00    +0.157 HD
ATOM     14  C   LIG    1      -21.427  79.894  35.879  0.00  0.00    +0.251 C 
ATOM     15  O   LIG    1      -21.829  79.271  36.864  0.00  0.00    -0.270 OA
BRANCH  14  16
ATOM     16  C   LIG    1      -20.525  79.213  34.907  0.00  0.00    +0.056 A 
ATOM     17  C   LIG    1      -19.144  79.079  35.043  0.00  0.00    +0.054 A 
ATOM     18 CL   LIG    1      -18.294  79.542  36.462  0.00  0.00    -0.083 Cl
ATOM     19  C   LIG    1      -18.400  78.440  34.042  0.00  0.00    +0.041 A 
ATOM     20  C   LIG    1      -19.029  77.848  32.935  0.00  0.00    +0.052 A 
ATOM     21 CL   LIG    1      -17.959  77.179  31.745  0.00  0.00    -0.083 Cl
ATOM     22  C   LIG    1      -20.435  77.839  32.822  0.00  0.00    +0.022 A 
ATOM     23  C   LIG    1      -21.143  78.567  33.817  0.00  0.00    +0.026 A 
BRANCH  22  24
ATOM     24  C   LIG    1      -21.182  77.063  31.790  0.00  0.00    +0.107 A 
ATOM     25  C   LIG    1      -21.235  77.413  30.437  0.00  0.00    +0.149 A 
ATOM     26  F   LIG    1      -20.553  78.462  29.953  0.00  0.00    -0.203 F 
ATOM     27  C   LIG    1      -22.015  76.676  29.550  0.00  0.00    +0.042 A 
ATOM     28  C   LIG    1      -22.732  75.584  30.021  0.00  0.00    +0.023 A 
ATOM     29  C   LIG    1      -22.643  75.289  31.368  0.00  0.00    +0.111 A 
ATOM     30  N   LIG    1      -21.909  76.010  32.249  0.00  0.00    -0.252 NA
ENDBRANCH  22  24
ENDBRANCH  14  16
ENDBRANCH   4  12
BRANCH   1  32
ATOM     31  N   LIG    1      -26.828  83.310  36.689  0.00  0.00    -0.246 NA
ATOM     32  C   LIG    1      -25.877  83.623  37.498  0.00  0.00    +0.236 C 
BRANCH  32  33
ATOM     33  O   LIG    1      -26.001  84.518  38.505  0.00  0.00    -0.491 OA
ATOM     34  H   LIG    1      -25.859  84.068  39.360  0.00  0.00    +0.294 HD
ENDBRANCH  32  33
BRANCH  31  35
ATOM     35  C   LIG    1      -28.195  83.766  36.995  0.00  0.00    +0.179 C 
BRANCH  35  36
ATOM     36  C   LIG    1      -28.688  84.824  36.000  0.00  0.00    +0.161 C 
BRANCH  36  37
ATOM     37  O   LIG    1      -28.226  84.459  34.685  0.00  0.00    -0.388 OA
ATOM     38  H   LIG    1      -27.785  83.595  34.813  0.00  0.00    +0.210 HD
ENDBRANCH  36  37
BRANCH  36  39
ATOM     39  C   LIG    1      -28.131  86.213  36.360  0.00  0.00    +0.192 C 
BRANCH  39  41
ATOM     40  C   LIG    1      -27.014  87.803  35.020  0.00  0.00    +0.194 C 
ATOM     41  O   LIG    1      -26.962  86.488  35.576  0.00  0.00    -0.380 OA
ENDBRANCH  39  41
ENDBRANCH  36  39
ENDBRANCH  35  36
ENDBRANCH  31  35
ENDBRANCH   1  32
TORSDOF 11
ENDMDL
MODEL 8
REMARK VINA RESULT:      -6.1      4.558     10.228
REMARK  Name = pdb/CHEMBL3947413.pdb
REMARK                            x       y       z     vdW  Elec       q    Type
REMARK                         _______ _______ _______ _____ _____    ______ ____
ROOT
ATOM      1  C   LIG    1      -35.778  69.086  25.008  0.00  0.00    +0.149 A 
ATOM      2  N   LIG    1      -36.762  69.993  24.907  0.00  0.00    -0.160 NA
ATOM      3  N   LIG    1      -36.360  71.054  25.645  0.00  0.00    -0.218 N 
ATOM      4  C   LIG    1      -35.056  70.892  26.133  0.00  0.00    +0.129 A 
ATOM      5  C   LIG    1      -34.720  69.589  25.818  0.00  0.00    +0.078 A 
ENDROOT
BRANCH   3   6
ATOM      6  C   LIG    1      -37.248  72.150  25.840  0.00  0.00    +0.067 A 
ATOM      7  C   LIG    1      -37.631  72.545  27.126  0.00  0.00    +0.028 A 
ATOM      8  C   LIG    1      -38.525  73.601  27.306  0.00  0.00    +0.002 A 
ATOM      9  C   LIG    1      -39.043  74.273  26.202  0.00  0.00    +0.000 A 
ATOM     10  C   LIG    1      -38.667  73.889  24.917  0.00  0.00    +0.002 A 
ATOM     11  C   LIG    1      -37.786  72.819  24.731  0.00  0.00    +0.028 A 
ENDBRANCH   3   6
BRANCH   4  12
ATOM     12  N   LIG    1      -34.236  71.884  26.724  0.00  0.00    -0.266 N 
ATOM     13  H   LIG    1      -33.687  72.456  26.089  0.00  0.00    +0.157 HD
ATOM     14  C   LIG    1      -34.141  72.114  28.138  0.00  0.00    +0.251 C 
ATOM     15  O   LIG    1      -34.797  71.416  28.915  0.00  0.00    -0.270 OA
BRANCH  14  16
ATOM     16  C   LIG    1      -33.220  73.148  28.690  0.00  0.00    +0.056 A 
ATOM     17  C   LIG    1      -32.018  72.891  29.349  0.00  0.00    +0.054 A 
ATOM     18 CL   LIG    1      -31.336  71.320  29.472  0.00  0.00    -0.083 Cl
ATOM     19  C   LIG    1      -31.252  73.952  29.848  0.00  0.00    +0.041 A 
ATOM     20  C   LIG    1      -31.625  75.287  29.621  0.00  0.00    +0.052 A 
ATOM     21 CL   LIG    1      -30.618  76.477  30.382  0.00  0.00    -0.083 Cl
ATOM     22  C   LIG    1      -32.759  75.598  28.842  0.00  0.00    +0.022 A 
ATOM     23  C   LIG    1      -33.549  74.493  28.425  0.00  0.00    +0.026 A 
BRANCH  22  24
ATOM     24  C   LIG    1      -33.105  76.977  28.390  0.00  0.00    +0.107 A 
ATOM     25  C   LIG    1      -32.499  77.620  27.306  0.00  0.00    +0.149 A 
ATOM     26  F   LIG    1      -31.583  77.003  26.545  0.00  0.00    -0.203 F 
ATOM     27  C   LIG    1      -32.828  78.935  26.994  0.00  0.00    +0.042 A 
ATOM     28  C   LIG    1      -33.774  79.600  27.764  0.00  0.00    +0.023 A 
ATOM     29  C   LIG    1      -34.337  78.915  28.824  0.00  0.00    +0.111 A 
ATOM     30  N   LIG    1      -34.009  77.643  29.157  0.00  0.00    -0.252 NA
ENDBRANCH  22  24
ENDBRANCH  14  16
ENDBRANCH   4  12
BRANCH   1  32
ATOM     31  N   LIG    1      -34.954  67.514  23.401  0.00  0.00    -0.246 NA
ATOM     32  C   LIG    1      -35.827  67.798  24.303  0.00  0.00    +0.236 C 
BRANCH  32  33
ATOM     33  O   LIG    1      -36.861  66.993  24.639  0.00  0.00    -0.491 OA
ATOM     34  H   LIG    1      -36.904  66.243  24.016  0.00  0.00    +0.294 HD
ENDBRANCH  32  33
BRANCH  31  35
ATOM     35  C   LIG    1      -34.925  66.147  22.850  0.00  0.00    +0.179 C 
BRANCH  35  36
ATOM     36  C   LIG    1      -34.481  66.124  21.383  0.00  0.00    +0.161 C 
BRANCH  36  37
ATOM     37  O   LIG    1      -33.373  67.032  21.231  0.00  0.00    -0.388 OA
ATOM     38  H   LIG    1      -32.901  66.986  22.087  0.00  0.00    +0.210 HD
ENDBRANCH  36  37
BRANCH  36  39
ATOM     39  C   LIG    1      -35.627  66.574  20.459  0.00  0.00    +0.192 C 
BRANCH  39  41
ATOM     40  C   LIG    1      -37.801  65.701  20.161  0.00  0.00    +0.194 C 
ATOM     41  O   LIG    1      -36.891  66.305  21.082  0.00  0.00    -0.380 OA
ENDBRANCH  39  41
ENDBRANCH  36  39
ENDBRANCH  35  36
ENDBRANCH  31  35
ENDBRANCH   1  32
TORSDOF 11
ENDMDL
MODEL 9
REMARK VINA RESULT:      -6.1      3.457      5.757
REMARK  Name = pdb/CHEMBL3947413.pdb
REMARK                            x       y       z     vdW  Elec       q    Type
REMARK                         _______ _______ _______ _____ _____    ______ ____
ROOT
ATOM      1  C   LIG    1      -36.152  79.866  27.898  0.00  0.00    +0.149 A 
ATOM      2  N   LIG    1      -35.265  78.918  28.239  0.00  0.00    -0.160 NA
ATOM      3  N   LIG    1      -35.889  77.736  28.023  0.00  0.00    -0.218 N 
ATOM      4  C   LIG    1      -37.146  77.907  27.426  0.00  0.00    +0.129 A 
ATOM      5  C   LIG    1      -37.363  79.271  27.442  0.00  0.00    +0.078 A 
ENDROOT
BRANCH   3   6
ATOM      6  C   LIG    1      -35.248  76.524  28.405  0.00  0.00    +0.067 A 
ATOM      7  C   LIG    1      -34.388  75.857  27.526  0.00  0.00    +0.028 A 
ATOM      8  C   LIG    1      -33.788  74.653  27.898  0.00  0.00    +0.002 A 
ATOM      9  C   LIG    1      -34.041  74.106  29.153  0.00  0.00    +0.000 A 
ATOM     10  C   LIG    1      -34.896  74.762  30.037  0.00  0.00    +0.002 A 
ATOM     11  C   LIG    1      -35.514  75.958  29.661  0.00  0.00    +0.028 A 
ENDBRANCH   3   6
BRANCH   4  12
ATOM     12  N   LIG    1      -37.958  76.902  26.845  0.00  0.00    -0.266 N 
ATOM     13  H   LIG    1      -38.744  76.576  27.399  0.00  0.00    +0.157 HD
ATOM     14  C   LIG    1      -37.729  76.331  25.547  0.00  0.00    +0.251 C 
ATOM     15  O   LIG    1      -36.771  76.714  24.872  0.00  0.00    -0.270 OA
BRANCH  14  16
ATOM     16  C   LIG    1      -38.601  75.243  25.020  0.00  0.00    +0.056 A 
ATOM     17  C   LIG    1      -39.730  75.426  24.223  0.00  0.00    +0.054 A 
ATOM     18 CL   LIG    1      -40.186  76.953  23.583  0.00  0.00    -0.083 Cl
ATOM     19  C   LIG    1      -40.485  74.319  23.814  0.00  0.00    +0.041 A 
ATOM     20  C   LIG    1      -40.079  73.009  24.117  0.00  0.00    +0.052 A 
ATOM     21 CL   LIG    1      -41.172  71.760  23.615  0.00  0.00    -0.083 Cl
ATOM     22  C   LIG    1      -38.871  72.769  24.804  0.00  0.00    +0.022 A 
ATOM     23  C   LIG    1      -38.180  73.921  25.269  0.00  0.00    +0.026 A 
BRANCH  22  24
ATOM     24  C   LIG    1      -38.274  71.414  24.987  0.00  0.00    +0.107 A 
ATOM     25  C   LIG    1      -38.050  70.821  26.234  0.00  0.00    +0.149 A 
ATOM     26  F   LIG    1      -38.419  71.421  27.376  0.00  0.00    -0.203 F 
ATOM     27  C   LIG    1      -37.420  69.583  26.321  0.00  0.00    +0.042 A 
ATOM     28  C   LIG    1      -37.027  68.938  25.156  0.00  0.00    +0.023 A 
ATOM     29  C   LIG    1      -37.272  69.573  23.954  0.00  0.00    +0.111 A 
ATOM     30  N   LIG    1      -37.860  70.789  23.853  0.00  0.00    -0.252 NA
ENDBRANCH  22  24
ENDBRANCH  14  16
ENDBRANCH   4  12
BRANCH   1  32
ATOM     31  N   LIG    1      -36.132  81.995  28.991  0.00  0.00    -0.246 NA
ATOM     32  C   LIG    1      -35.827  81.296  27.954  0.00  0.00    +0.236 C 
BRANCH  32  33
ATOM     33  O   LIG    1      -35.247  81.803  26.842  0.00  0.00    -0.491 OA
ATOM     34  H   LIG    1      -34.409  82.242  27.083  0.00  0.00    +0.294 HD
ENDBRANCH  32  33
BRANCH  31  35
ATOM     35  C   LIG    1      -35.628  83.377  29.087  0.00  0.00    +0.179 C 
BRANCH  35  36
ATOM     36  C   LIG    1      -34.262  83.448  29.779  0.00  0.00    +0.161 C 
BRANCH  36  37
ATOM     37  O   LIG    1      -34.327  82.670  30.990  0.00  0.00    -0.388 OA
ATOM     38  H   LIG    1      -34.385  81.743  30.681  0.00  0.00    +0.210 HD
ENDBRANCH  36  37
BRANCH  36  39
ATOM     39  C   LIG    1      -33.907  84.903  30.137  0.00  0.00    +0.192 C 
BRANCH  39  41
ATOM     40  C   LIG    1      -33.727  86.848  28.812  0.00  0.00    +0.194 C 
ATOM     41  O   LIG    1      -33.234  85.526  29.034  0.00  0.00    -0.380 OA
ENDBRANCH  39  41
ENDBRANCH  36  39
ENDBRANCH  35  36
ENDBRANCH  31  35
ENDBRANCH   1  32
TORSDOF 11
ENDMDL
