MODEL 1
REMARK VINA RESULT:      -6.7      0.000      0.000
REMARK  Name = pdb/CHEMBL3962859.pdb
REMARK                            x       y       z     vdW  Elec       q    Type
REMARK                         _______ _______ _______ _____ _____    ______ ____
ROOT
ATOM      1  N   LIG    1      -37.261  73.087  25.146  0.00  0.00    -0.266 N 
ATOM      2  H   LIG    1      -36.582  72.932  24.417  0.00  0.00    +0.157 HD
ATOM      3  C   LIG    1      -37.266  72.182  26.278  0.00  0.00    +0.251 C 
ATOM      4  O   LIG    1      -37.916  72.417  27.275  0.00  0.00    -0.270 OA
ENDROOT
BRANCH   3   5
ATOM      5  C   LIG    1      -36.343  71.012  26.210  0.00  0.00    +0.056 A 
ATOM      6  C   LIG    1      -35.362  70.766  27.159  0.00  0.00    +0.054 A 
ATOM      7 CL   LIG    1      -34.965  71.860  28.433  0.00  0.00    -0.083 Cl
ATOM      8  C   LIG    1      -34.631  69.584  27.104  0.00  0.00    +0.041 A 
ATOM      9  C   LIG    1      -34.822  68.655  26.068  0.00  0.00    +0.052 A 
ATOM     10 CL   LIG    1      -33.985  67.158  26.303  0.00  0.00    -0.083 Cl
ATOM     11  C   LIG    1      -35.705  68.921  25.002  0.00  0.00    +0.022 A 
ATOM     12  C   LIG    1      -36.483  70.110  25.124  0.00  0.00    +0.026 A 
BRANCH  11  13
ATOM     13  C   LIG    1      -35.897  68.048  23.804  0.00  0.00    +0.107 A 
ATOM     14  C   LIG    1      -37.081  67.382  23.469  0.00  0.00    +0.149 A 
ATOM     15  F   LIG    1      -38.163  67.402  24.257  0.00  0.00    -0.203 F 
ATOM     16  C   LIG    1      -37.153  66.606  22.314  0.00  0.00    +0.042 A 
ATOM     17  C   LIG    1      -36.019  66.444  21.535  0.00  0.00    +0.023 A 
ATOM     18  C   LIG    1      -34.860  67.079  21.946  0.00  0.00    +0.111 A 
ATOM     19  N   LIG    1      -34.777  67.877  23.042  0.00  0.00    -0.252 NA
ENDBRANCH  11  13
ENDBRANCH   3   5
BRANCH   1  23
ATOM     20  C   LIG    1      -38.770  76.344  25.048  0.00  0.00    +0.149 A 
ATOM     21  N   LIG    1      -39.722  75.654  24.403  0.00  0.00    -0.160 NA
ATOM     22  N   LIG    1      -39.354  74.349  24.479  0.00  0.00    -0.218 N 
ATOM     23  C   LIG    1      -38.080  74.220  25.058  0.00  0.00    +0.129 A 
ATOM     24  C   LIG    1      -37.745  75.481  25.491  0.00  0.00    +0.078 A 
BRANCH  22  25
ATOM     25  C   LIG    1      -40.206  73.361  23.895  0.00  0.00    +0.067 A 
ATOM     26  C   LIG    1      -39.875  72.003  23.873  0.00  0.00    +0.028 A 
ATOM     27  C   LIG    1      -40.714  71.083  23.230  0.00  0.00    +0.002 A 
ATOM     28  C   LIG    1      -41.893  71.507  22.620  0.00  0.00    +0.000 A 
ATOM     29  C   LIG    1      -42.257  72.849  22.680  0.00  0.00    +0.002 A 
ATOM     30  C   LIG    1      -41.427  73.769  23.326  0.00  0.00    +0.028 A 
ENDBRANCH  22  25
BRANCH  20  31
ATOM     31  C   LIG    1      -38.827  77.793  25.232  0.00  0.00    +0.236 C 
ATOM     32  N   LIG    1      -39.614  78.497  24.487  0.00  0.00    -0.246 NA
BRANCH  32  33
ATOM     33  C   LIG    1      -39.647  79.922  24.537  0.00  0.00    +0.109 C 
ATOM     34  C   LIG    1      -40.809  80.619  23.881  0.00  0.00    +0.029 C 
ATOM     35  C   LIG    1      -39.489  80.563  23.182  0.00  0.00    +0.029 C 
ENDBRANCH  32  33
BRANCH  31  36
ATOM     36  O   LIG    1      -37.997  78.284  26.176  0.00  0.00    -0.491 OA
ATOM     37  H   LIG    1      -38.345  78.157  27.064  0.00  0.00    +0.294 HD
ENDBRANCH  31  36
ENDBRANCH  20  31
ENDBRANCH   1  23
TORSDOF 7
ENDMDL
MODEL 2
REMARK VINA RESULT:      -6.6     14.197     16.607
REMARK  Name = pdb/CHEMBL3962859.pdb
REMARK                            x       y       z     vdW  Elec       q    Type
REMARK                         _______ _______ _______ _____ _____    ______ ____
ROOT
ATOM      1  N   LIG    1      -24.693  75.380  32.876  0.00  0.00    -0.266 N 
ATOM      2  H   LIG    1      -24.388  74.628  33.472  0.00  0.00    +0.157 HD
ATOM      3  C   LIG    1      -25.579  75.061  31.773  0.00  0.00    +0.251 C 
ATOM      4  O   LIG    1      -26.138  75.929  31.137  0.00  0.00    -0.270 OA
ENDROOT
BRANCH   3   5
ATOM      5  C   LIG    1      -25.865  73.615  31.535  0.00  0.00    +0.056 A 
ATOM      6  C   LIG    1      -27.086  73.029  31.826  0.00  0.00    +0.054 A 
ATOM      7 CL   LIG    1      -28.365  73.837  32.656  0.00  0.00    -0.083 Cl
ATOM      8  C   LIG    1      -27.324  71.710  31.451  0.00  0.00    +0.041 A 
ATOM      9  C   LIG    1      -26.328  70.936  30.834  0.00  0.00    +0.052 A 
ATOM     10 CL   LIG    1      -26.890  69.408  30.245  0.00  0.00    -0.083 Cl
ATOM     11  C   LIG    1      -25.025  71.439  30.643  0.00  0.00    +0.022 A 
ATOM     12  C   LIG    1      -24.836  72.812  30.980  0.00  0.00    +0.026 A 
BRANCH  11  13
ATOM     13  C   LIG    1      -23.873  70.660  30.096  0.00  0.00    +0.107 A 
ATOM     14  C   LIG    1      -23.777  70.163  28.791  0.00  0.00    +0.149 A 
ATOM     15  F   LIG    1      -24.776  70.275  27.907  0.00  0.00    -0.203 F 
ATOM     16  C   LIG    1      -22.644  69.464  28.382  0.00  0.00    +0.042 A 
ATOM     17  C   LIG    1      -21.640  69.204  29.301  0.00  0.00    +0.023 A 
ATOM     18  C   LIG    1      -21.814  69.669  30.593  0.00  0.00    +0.111 A 
ATOM     19  N   LIG    1      -22.888  70.393  31.003  0.00  0.00    -0.252 NA
ENDBRANCH  11  13
ENDBRANCH   3   5
BRANCH   1  23
ATOM     20  C   LIG    1      -24.087  78.603  34.338  0.00  0.00    +0.149 A 
ATOM     21  N   LIG    1      -23.117  78.608  33.412  0.00  0.00    -0.160 NA
ATOM     22  N   LIG    1      -23.304  77.488  32.668  0.00  0.00    -0.218 N 
ATOM     23  C   LIG    1      -24.321  76.687  33.215  0.00  0.00    +0.129 A 
ATOM     24  C   LIG    1      -24.872  77.435  34.229  0.00  0.00    +0.078 A 
BRANCH  22  25
ATOM     25  C   LIG    1      -22.423  77.238  31.571  0.00  0.00    +0.067 A 
ATOM     26  C   LIG    1      -22.884  76.834  30.315  0.00  0.00    +0.028 A 
ATOM     27  C   LIG    1      -21.974  76.538  29.291  0.00  0.00    +0.002 A 
ATOM     28  C   LIG    1      -20.603  76.660  29.507  0.00  0.00    +0.000 A 
ATOM     29  C   LIG    1      -20.136  77.111  30.737  0.00  0.00    +0.002 A 
ATOM     30  C   LIG    1      -21.039  77.413  31.759  0.00  0.00    +0.028 A 
ENDBRANCH  22  25
BRANCH  20  31
ATOM     31  C   LIG    1      -24.261  79.679  35.312  0.00  0.00    +0.236 C 
ATOM     32  N   LIG    1      -23.222  80.310  35.754  0.00  0.00    -0.246 NA
BRANCH  32  33
ATOM     33  C   LIG    1      -23.303  81.297  36.779  0.00  0.00    +0.109 C 
ATOM     34  C   LIG    1      -23.498  82.729  36.358  0.00  0.00    +0.029 C 
ATOM     35  C   LIG    1      -22.140  82.256  36.768  0.00  0.00    +0.029 C 
ENDBRANCH  32  33
BRANCH  31  36
ATOM     36  O   LIG    1      -25.534  79.903  35.698  0.00  0.00    -0.491 OA
ATOM     37  H   LIG    1      -26.034  80.386  35.033  0.00  0.00    +0.294 HD
ENDBRANCH  31  36
ENDBRANCH  20  31
ENDBRANCH   1  23
TORSDOF 7
ENDMDL
MODEL 3
REMARK VINA RESULT:      -6.6      3.689      6.521
REMARK  Name = pdb/CHEMBL3962859.pdb
REMARK                            x       y       z     vdW  Elec       q    Type
REMARK                         _______ _______ _______ _____ _____    ______ ____
ROOT
ATOM      1  N   LIG    1      -36.690  70.239  23.823  0.00  0.00    -0.266 N 
ATOM      2  H   LIG    1      -36.172  70.609  23.042  0.00  0.00    +0.157 HD
ATOM      3  C   LIG    1      -37.429  69.006  23.628  0.00  0.00    +0.251 C 
ATOM      4  O   LIG    1      -37.912  68.402  24.562  0.00  0.00    -0.270 OA
ENDROOT
BRANCH   3   5
ATOM      5  C   LIG    1      -37.463  68.452  22.242  0.00  0.00    +0.056 A 
ATOM      6  C   LIG    1      -38.513  68.676  21.365  0.00  0.00    +0.054 A 
ATOM      7 CL   LIG    1      -39.982  69.466  21.809  0.00  0.00    -0.083 Cl
ATOM      8  C   LIG    1      -38.413  68.243  20.047  0.00  0.00    +0.041 A 
ATOM      9  C   LIG    1      -37.293  67.527  19.597  0.00  0.00    +0.052 A 
ATOM     10 CL   LIG    1      -37.258  67.279  17.884  0.00  0.00    -0.083 Cl
ATOM     11  C   LIG    1      -36.262  67.150  20.482  0.00  0.00    +0.022 A 
ATOM     12  C   LIG    1      -36.366  67.665  21.808  0.00  0.00    +0.026 A 
BRANCH  11  13
ATOM     13  C   LIG    1      -35.087  66.299  20.124  0.00  0.00    +0.107 A 
ATOM     14  C   LIG    1      -35.154  64.995  19.622  0.00  0.00    +0.149 A 
ATOM     15  F   LIG    1      -36.313  64.339  19.485  0.00  0.00    -0.203 F 
ATOM     16  C   LIG    1      -33.991  64.299  19.304  0.00  0.00    +0.042 A 
ATOM     17  C   LIG    1      -32.761  64.885  19.555  0.00  0.00    +0.023 A 
ATOM     18  C   LIG    1      -32.753  66.154  20.107  0.00  0.00    +0.111 A 
ATOM     19  N   LIG    1      -33.874  66.870  20.382  0.00  0.00    -0.252 NA
ENDBRANCH  11  13
ENDBRANCH   3   5
BRANCH   1  23
ATOM     20  C   LIG    1      -35.786  71.573  27.031  0.00  0.00    +0.149 A 
ATOM     21  N   LIG    1      -36.737  72.458  26.698  0.00  0.00    -0.160 NA
ATOM     22  N   LIG    1      -37.285  72.000  25.543  0.00  0.00    -0.218 N 
ATOM     23  C   LIG    1      -36.579  70.886  25.060  0.00  0.00    +0.129 A 
ATOM     24  C   LIG    1      -35.676  70.567  26.047  0.00  0.00    +0.078 A 
BRANCH  22  25
ATOM     25  C   LIG    1      -38.362  72.735  24.956  0.00  0.00    +0.067 A 
ATOM     26  C   LIG    1      -38.399  74.132  24.945  0.00  0.00    +0.028 A 
ATOM     27  C   LIG    1      -39.509  74.804  24.415  0.00  0.00    +0.002 A 
ATOM     28  C   LIG    1      -40.578  74.089  23.879  0.00  0.00    +0.000 A 
ATOM     29  C   LIG    1      -40.528  72.700  23.839  0.00  0.00    +0.002 A 
ATOM     30  C   LIG    1      -39.422  72.025  24.360  0.00  0.00    +0.028 A 
ENDBRANCH  22  25
BRANCH  20  31
ATOM     31  C   LIG    1      -34.990  71.685  28.252  0.00  0.00    +0.236 C 
ATOM     32  N   LIG    1      -33.934  70.952  28.391  0.00  0.00    -0.246 NA
BRANCH  32  33
ATOM     33  C   LIG    1      -33.168  70.930  29.593  0.00  0.00    +0.109 C 
ATOM     34  C   LIG    1      -31.972  71.840  29.678  0.00  0.00    +0.029 C 
ATOM     35  C   LIG    1      -31.777  70.385  29.396  0.00  0.00    +0.029 C 
ENDBRANCH  32  33
BRANCH  31  36
ATOM     36  O   LIG    1      -35.465  72.553  29.169  0.00  0.00    -0.491 OA
ATOM     37  H   LIG    1      -34.981  73.384  29.166  0.00  0.00    +0.294 HD
ENDBRANCH  31  36
ENDBRANCH  20  31
ENDBRANCH   1  23
TORSDOF 7
ENDMDL
MODEL 4
REMARK VINA RESULT:      -6.6      5.085      9.863
REMARK  Name = pdb/CHEMBL3962859.pdb
REMARK                            x       y       z     vdW  Elec       q    Type
REMARK                         _______ _______ _______ _____ _____    ______ ____
ROOT
ATOM      1  N   LIG    1      -34.638  74.277  27.451  0.00  0.00    -0.266 N 
ATOM      2  H   LIG    1      -34.445  74.003  26.501  0.00  0.00    +0.157 HD
ATOM      3  C   LIG    1      -36.024  74.393  27.860  0.00  0.00    +0.251 C 
ATOM      4  O   LIG    1      -36.333  74.527  29.025  0.00  0.00    -0.270 OA
ENDROOT
BRANCH   3   5
ATOM      5  C   LIG    1      -37.057  74.219  26.797  0.00  0.00    +0.056 A 
ATOM      6  C   LIG    1      -37.386  72.985  26.258  0.00  0.00    +0.054 A 
ATOM      7 CL   LIG    1      -36.534  71.526  26.609  0.00  0.00    -0.083 Cl
ATOM      8  C   LIG    1      -38.453  72.883  25.370  0.00  0.00    +0.041 A 
ATOM      9  C   LIG    1      -39.171  74.018  24.959  0.00  0.00    +0.052 A 
ATOM     10 CL   LIG    1      -40.591  73.655  24.039  0.00  0.00    -0.083 Cl
ATOM     11  C   LIG    1      -38.789  75.312  25.367  0.00  0.00    +0.022 A 
ATOM     12  C   LIG    1      -37.734  75.373  26.325  0.00  0.00    +0.026 A 
BRANCH  11  13
ATOM     13  C   LIG    1      -39.420  76.584  24.901  0.00  0.00    +0.107 A 
ATOM     14  C   LIG    1      -38.872  77.462  23.959  0.00  0.00    +0.149 A 
ATOM     15  F   LIG    1      -37.656  77.278  23.430  0.00  0.00    -0.203 F 
ATOM     16  C   LIG    1      -39.558  78.614  23.583  0.00  0.00    +0.042 A 
ATOM     17  C   LIG    1      -40.759  78.920  24.203  0.00  0.00    +0.023 A 
ATOM     18  C   LIG    1      -41.226  78.045  25.169  0.00  0.00    +0.111 A 
ATOM     19  N   LIG    1      -40.598  76.893  25.519  0.00  0.00    -0.252 NA
ENDBRANCH  11  13
ENDBRANCH   3   5
BRANCH   1  23
ATOM     20  C   LIG    1      -31.815  73.970  29.649  0.00  0.00    +0.149 A 
ATOM     21  N   LIG    1      -31.716  75.277  29.363  0.00  0.00    -0.160 NA
ATOM     22  N   LIG    1      -32.818  75.584  28.633  0.00  0.00    -0.218 N 
ATOM     23  C   LIG    1      -33.558  74.429  28.330  0.00  0.00    +0.129 A 
ATOM     24  C   LIG    1      -32.963  73.414  29.043  0.00  0.00    +0.078 A 
BRANCH  22  25
ATOM     25  C   LIG    1      -33.001  76.935  28.203  0.00  0.00    +0.067 A 
ATOM     26  C   LIG    1      -32.314  77.476  27.113  0.00  0.00    +0.028 A 
ATOM     27  C   LIG    1      -32.481  78.825  26.773  0.00  0.00    +0.002 A 
ATOM     28  C   LIG    1      -33.344  79.638  27.505  0.00  0.00    +0.000 A 
ATOM     29  C   LIG    1      -34.071  79.096  28.560  0.00  0.00    +0.002 A 
ATOM     30  C   LIG    1      -33.914  77.750  28.899  0.00  0.00    +0.028 A 
ENDBRANCH  22  25
BRANCH  20  31
ATOM     31  C   LIG    1      -30.837  73.260  30.472  0.00  0.00    +0.236 C 
ATOM     32  N   LIG    1      -30.745  71.974  30.381  0.00  0.00    -0.246 NA
BRANCH  32  33
ATOM     33  C   LIG    1      -29.890  71.205  31.223  0.00  0.00    +0.109 C 
ATOM     34  C   LIG    1      -28.565  70.766  30.662  0.00  0.00    +0.029 C 
ATOM     35  C   LIG    1      -29.697  69.792  30.735  0.00  0.00    +0.029 C 
ENDBRANCH  32  33
BRANCH  31  36
ATOM     36  O   LIG    1      -30.115  74.039  31.304  0.00  0.00    -0.491 OA
ATOM     37  H   LIG    1      -29.663  73.525  31.979  0.00  0.00    +0.294 HD
ENDBRANCH  31  36
ENDBRANCH  20  31
ENDBRANCH   1  23
TORSDOF 7
ENDMDL
MODEL 5
REMARK VINA RESULT:      -6.6     19.094     21.925
REMARK  Name = pdb/CHEMBL3962859.pdb
REMARK                            x       y       z     vdW  Elec       q    Type
REMARK                         _______ _______ _______ _____ _____    ______ ____
ROOT
ATOM      1  N   LIG    1      -25.253  81.119  13.488  0.00  0.00    -0.266 N 
ATOM      2  H   LIG    1      -25.731  81.864  13.969  0.00  0.00    +0.157 HD
ATOM      3  C   LIG    1      -24.320  81.474  12.436  0.00  0.00    +0.251 C 
ATOM      4  O   LIG    1      -23.570  80.654  11.950  0.00  0.00    -0.270 OA
ENDROOT
BRANCH   3   5
ATOM      5  C   LIG    1      -24.239  82.918  12.066  0.00  0.00    +0.056 A 
ATOM      6  C   LIG    1      -25.057  83.499  11.110  0.00  0.00    +0.054 A 
ATOM      7 CL   LIG    1      -26.144  82.609  10.107  0.00  0.00    -0.083 Cl
ATOM      8  C   LIG    1      -25.018  84.876  10.915  0.00  0.00    +0.041 A 
ATOM      9  C   LIG    1      -24.120  85.688  11.626  0.00  0.00    +0.052 A 
ATOM     10 CL   LIG    1      -24.383  87.385  11.408  0.00  0.00    -0.083 Cl
ATOM     11  C   LIG    1      -23.170  85.132  12.506  0.00  0.00    +0.022 A 
ATOM     12  C   LIG    1      -23.281  83.727  12.729  0.00  0.00    +0.026 A 
BRANCH  11  13
ATOM     13  C   LIG    1      -22.107  85.898  13.224  0.00  0.00    +0.107 A 
ATOM     14  C   LIG    1      -20.757  85.946  12.859  0.00  0.00    +0.149 A 
ATOM     15  F   LIG    1      -20.262  85.223  11.847  0.00  0.00    -0.203 F 
ATOM     16  C   LIG    1      -19.853  86.711  13.593  0.00  0.00    +0.042 A 
ATOM     17  C   LIG    1      -20.290  87.370  14.730  0.00  0.00    +0.023 A 
ATOM     18  C   LIG    1      -21.623  87.241  15.077  0.00  0.00    +0.111 A 
ATOM     19  N   LIG    1      -22.533  86.539  14.352  0.00  0.00    -0.252 NA
ENDBRANCH  11  13
ENDBRANCH   3   5
BRANCH   1  23
ATOM     20  C   LIG    1      -26.265  77.738  14.148  0.00  0.00    +0.149 A 
ATOM     21  N   LIG    1      -25.051  77.707  14.718  0.00  0.00    -0.160 NA
ATOM     22  N   LIG    1      -24.584  78.981  14.670  0.00  0.00    -0.218 N 
ATOM     23  C   LIG    1      -25.451  79.806  13.935  0.00  0.00    +0.129 A 
ATOM     24  C   LIG    1      -26.558  79.034  13.671  0.00  0.00    +0.078 A 
BRANCH  22  25
ATOM     25  C   LIG    1      -23.304  79.263  15.239  0.00  0.00    +0.067 A 
ATOM     26  C   LIG    1      -23.099  80.305  16.148  0.00  0.00    +0.028 A 
ATOM     27  C   LIG    1      -21.811  80.581  16.626  0.00  0.00    +0.002 A 
ATOM     28  C   LIG    1      -20.724  79.812  16.215  0.00  0.00    +0.000 A 
ATOM     29  C   LIG    1      -20.925  78.741  15.351  0.00  0.00    +0.002 A 
ATOM     30  C   LIG    1      -22.208  78.457  14.876  0.00  0.00    +0.028 A 
ENDBRANCH  22  25
BRANCH  20  31
ATOM     31  C   LIG    1      -27.126  76.560  14.048  0.00  0.00    +0.236 C 
ATOM     32  N   LIG    1      -26.603  75.382  14.144  0.00  0.00    -0.246 NA
BRANCH  32  33
ATOM     33  C   LIG    1      -27.360  74.189  13.954  0.00  0.00    +0.109 C 
ATOM     34  C   LIG    1      -27.070  73.023  14.862  0.00  0.00    +0.029 C 
ATOM     35  C   LIG    1      -26.525  73.031  13.470  0.00  0.00    +0.029 C 
ENDBRANCH  32  33
BRANCH  31  36
ATOM     36  O   LIG    1      -28.430  76.821  13.825  0.00  0.00    -0.491 OA
ATOM     37  H   LIG    1      -29.004  76.331  14.421  0.00  0.00    +0.294 HD
ENDBRANCH  31  36
ENDBRANCH  20  31
ENDBRANCH   1  23
TORSDOF 7
ENDMDL
MODEL 6
REMARK VINA RESULT:      -6.6      2.732      3.479
REMARK  Name = pdb/CHEMBL3962859.pdb
REMARK                            x       y       z     vdW  Elec       q    Type
REMARK                         _______ _______ _______ _____ _____    ______ ____
ROOT
ATOM      1  N   LIG    1      -37.378  73.892  25.245  0.00  0.00    -0.266 N 
ATOM      2  H   LIG    1      -36.878  73.797  24.376  0.00  0.00    +0.157 HD
ATOM      3  C   LIG    1      -37.581  72.702  26.048  0.00  0.00    +0.251 C 
ATOM      4  O   LIG    1      -37.998  72.768  27.186  0.00  0.00    -0.270 OA
ENDROOT
BRANCH   3   5
ATOM      5  C   LIG    1      -37.141  71.405  25.455  0.00  0.00    +0.056 A 
ATOM      6  C   LIG    1      -35.984  70.750  25.845  0.00  0.00    +0.054 A 
ATOM      7 CL   LIG    1      -34.819  71.422  26.926  0.00  0.00    -0.083 Cl
ATOM      8  C   LIG    1      -35.709  69.480  25.346  0.00  0.00    +0.041 A 
ATOM      9  C   LIG    1      -36.553  68.868  24.406  0.00  0.00    +0.052 A 
ATOM     10 CL   LIG    1      -36.163  67.212  24.085  0.00  0.00    -0.083 Cl
ATOM     11  C   LIG    1      -37.666  69.547  23.870  0.00  0.00    +0.022 A 
ATOM     12  C   LIG    1      -37.953  70.819  24.450  0.00  0.00    +0.026 A 
BRANCH  11  13
ATOM     13  C   LIG    1      -38.558  69.024  22.791  0.00  0.00    +0.107 A 
ATOM     14  C   LIG    1      -38.162  68.748  21.477  0.00  0.00    +0.149 A 
ATOM     15  F   LIG    1      -36.927  69.009  21.031  0.00  0.00    -0.203 F 
ATOM     16  C   LIG    1      -39.076  68.244  20.555  0.00  0.00    +0.042 A 
ATOM     17  C   LIG    1      -40.400  68.085  20.931  0.00  0.00    +0.023 A 
ATOM     18  C   LIG    1      -40.747  68.428  22.226  0.00  0.00    +0.111 A 
ATOM     19  N   LIG    1      -39.865  68.878  23.156  0.00  0.00    -0.252 NA
ENDBRANCH  11  13
ENDBRANCH   3   5
BRANCH   1  23
ATOM     20  C   LIG    1      -37.663  77.244  26.499  0.00  0.00    +0.149 A 
ATOM     21  N   LIG    1      -38.768  77.211  25.739  0.00  0.00    -0.160 NA
ATOM     22  N   LIG    1      -38.877  75.933  25.294  0.00  0.00    -0.218 N 
ATOM     23  C   LIG    1      -37.751  75.177  25.659  0.00  0.00    +0.129 A 
ATOM     24  C   LIG    1      -37.018  75.989  26.493  0.00  0.00    +0.078 A 
BRANCH  22  25
ATOM     25  C   LIG    1      -39.993  75.587  24.470  0.00  0.00    +0.067 A 
ATOM     26  C   LIG    1      -40.799  76.548  23.855  0.00  0.00    +0.028 A 
ATOM     27  C   LIG    1      -41.920  76.157  23.111  0.00  0.00    +0.002 A 
ATOM     28  C   LIG    1      -42.235  74.807  22.962  0.00  0.00    +0.000 A 
ATOM     29  C   LIG    1      -41.410  73.841  23.528  0.00  0.00    +0.002 A 
ATOM     30  C   LIG    1      -40.287  74.225  24.265  0.00  0.00    +0.028 A 
ENDBRANCH  22  25
BRANCH  20  31
ATOM     31  C   LIG    1      -37.223  78.445  27.208  0.00  0.00    +0.236 C 
ATOM     32  N   LIG    1      -35.992  78.540  27.591  0.00  0.00    -0.246 NA
BRANCH  32  33
ATOM     33  C   LIG    1      -35.515  79.630  28.376  0.00  0.00    +0.109 C 
ATOM     34  C   LIG    1      -34.652  80.658  27.694  0.00  0.00    +0.029 C 
ATOM     35  C   LIG    1      -34.019  79.615  28.558  0.00  0.00    +0.029 C 
ENDBRANCH  32  33
BRANCH  31  36
ATOM     36  O   LIG    1      -38.185  79.363  27.433  0.00  0.00    -0.491 OA
ATOM     37  H   LIG    1      -38.732  79.135  28.191  0.00  0.00    +0.294 HD
ENDBRANCH  31  36
ENDBRANCH  20  31
ENDBRANCH   1  23
TORSDOF 7
ENDMDL
MODEL 7
REMARK VINA RESULT:      -6.5     15.934     18.938
REMARK  Name = pdb/CHEMBL3962859.pdb
REMARK                            x       y       z     vdW  Elec       q    Type
REMARK                         _______ _______ _______ _____ _____    ______ ____
ROOT
ATOM      1  N   LIG    1      -24.842  78.384  33.569  0.00  0.00    -0.266 N 
ATOM      2  H   LIG    1      -25.106  79.356  33.568  0.00  0.00    +0.157 HD
ATOM      3  C   LIG    1      -23.707  77.985  34.379  0.00  0.00    +0.251 C 
ATOM      4  O   LIG    1      -23.452  76.817  34.581  0.00  0.00    -0.270 OA
ENDROOT
BRANCH   3   5
ATOM      5  C   LIG    1      -22.941  79.076  35.049  0.00  0.00    +0.056 A 
ATOM      6  C   LIG    1      -21.641  79.410  34.704  0.00  0.00    +0.054 A 
ATOM      7 CL   LIG    1      -20.683  78.506  33.588  0.00  0.00    -0.083 Cl
ATOM      8  C   LIG    1      -21.040  80.525  35.278  0.00  0.00    +0.041 A 
ATOM      9  C   LIG    1      -21.702  81.291  36.251  0.00  0.00    +0.052 A 
ATOM     10 CL   LIG    1      -20.880  82.756  36.670  0.00  0.00    -0.083 Cl
ATOM     11  C   LIG    1      -22.969  80.914  36.741  0.00  0.00    +0.022 A 
ATOM     12  C   LIG    1      -23.581  79.805  36.085  0.00  0.00    +0.026 A 
BRANCH  11  13
ATOM     13  C   LIG    1      -23.704  81.600  37.847  0.00  0.00    +0.107 A 
ATOM     14  C   LIG    1      -24.528  82.721  37.697  0.00  0.00    +0.149 A 
ATOM     15  F   LIG    1      -24.677  83.350  36.526  0.00  0.00    -0.203 F 
ATOM     16  C   LIG    1      -25.182  83.268  38.799  0.00  0.00    +0.042 A 
ATOM     17  C   LIG    1      -24.953  82.735  40.057  0.00  0.00    +0.023 A 
ATOM     18  C   LIG    1      -24.083  81.663  40.153  0.00  0.00    +0.111 A 
ATOM     19  N   LIG    1      -23.470  81.083  39.089  0.00  0.00    -0.252 NA
ENDBRANCH  11  13
ENDBRANCH   3   5
BRANCH   1  23
ATOM     20  C   LIG    1      -27.436  76.387  32.094  0.00  0.00    +0.149 A 
ATOM     21  N   LIG    1      -26.449  76.121  31.226  0.00  0.00    -0.160 NA
ATOM     22  N   LIG    1      -25.336  76.708  31.734  0.00  0.00    -0.218 N 
ATOM     23  C   LIG    1      -25.647  77.477  32.868  0.00  0.00    +0.129 A 
ATOM     24  C   LIG    1      -26.968  77.208  33.142  0.00  0.00    +0.078 A 
BRANCH  22  25
ATOM     25  C   LIG    1      -24.102  76.567  31.026  0.00  0.00    +0.067 A 
ATOM     26  C   LIG    1      -23.264  75.461  31.192  0.00  0.00    +0.028 A 
ATOM     27  C   LIG    1      -22.034  75.402  30.523  0.00  0.00    +0.002 A 
ATOM     28  C   LIG    1      -21.640  76.435  29.674  0.00  0.00    +0.000 A 
ATOM     29  C   LIG    1      -22.489  77.516  29.463  0.00  0.00    +0.002 A 
ATOM     30  C   LIG    1      -23.720  77.577  30.122  0.00  0.00    +0.028 A 
ENDBRANCH  22  25
BRANCH  20  31
ATOM     31  C   LIG    1      -28.798  75.881  31.928  0.00  0.00    +0.236 C 
ATOM     32  N   LIG    1      -29.512  76.295  30.933  0.00  0.00    -0.246 NA
BRANCH  32  33
ATOM     33  C   LIG    1      -30.879  75.928  30.765  0.00  0.00    +0.109 C 
ATOM     34  C   LIG    1      -31.184  74.751  29.878  0.00  0.00    +0.029 C 
ATOM     35  C   LIG    1      -31.379  76.140  29.359  0.00  0.00    +0.029 C 
ENDBRANCH  32  33
BRANCH  31  36
ATOM     36  O   LIG    1      -29.210  75.020  32.882  0.00  0.00    -0.491 OA
ATOM     37  H   LIG    1      -30.163  74.896  32.870  0.00  0.00    +0.294 HD
ENDBRANCH  31  36
ENDBRANCH  20  31
ENDBRANCH   1  23
TORSDOF 7
ENDMDL
MODEL 8
REMARK VINA RESULT:      -6.5      3.560      9.627
REMARK  Name = pdb/CHEMBL3962859.pdb
REMARK                            x       y       z     vdW  Elec       q    Type
REMARK                         _______ _______ _______ _____ _____    ______ ____
ROOT
ATOM      1  N   LIG    1      -37.530  70.392  23.452  0.00  0.00    -0.266 N 
ATOM      2  H   LIG    1      -37.367  71.088  22.743  0.00  0.00    +0.157 HD
ATOM      3  C   LIG    1      -38.760  70.471  24.217  0.00  0.00    +0.251 C 
ATOM      4  O   LIG    1      -39.113  69.567  24.944  0.00  0.00    -0.270 OA
ENDROOT
BRANCH   3   5
ATOM      5  C   LIG    1      -39.629  71.659  23.975  0.00  0.00    +0.056 A 
ATOM      6  C   LIG    1      -40.830  71.590  23.286  0.00  0.00    +0.054 A 
ATOM      7 CL   LIG    1      -41.388  70.175  22.472  0.00  0.00    -0.083 Cl
ATOM      8  C   LIG    1      -41.651  72.712  23.218  0.00  0.00    +0.041 A 
ATOM      9  C   LIG    1      -41.261  73.936  23.783  0.00  0.00    +0.052 A 
ATOM     10 CL   LIG    1      -42.510  75.136  23.790  0.00  0.00    -0.083 Cl
ATOM     11  C   LIG    1      -39.991  74.099  24.372  0.00  0.00    +0.022 A 
ATOM     12  C   LIG    1      -39.203  72.915  24.480  0.00  0.00    +0.026 A 
BRANCH  11  13
ATOM     13  C   LIG    1      -39.445  75.385  24.902  0.00  0.00    +0.107 A 
ATOM     14  C   LIG    1      -39.479  76.615  24.236  0.00  0.00    +0.149 A 
ATOM     15  F   LIG    1      -39.948  76.742  22.989  0.00  0.00    -0.203 F 
ATOM     16  C   LIG    1      -38.954  77.758  24.835  0.00  0.00    +0.042 A 
ATOM     17  C   LIG    1      -38.335  77.652  26.070  0.00  0.00    +0.023 A 
ATOM     18  C   LIG    1      -38.279  76.400  26.657  0.00  0.00    +0.111 A 
ATOM     19  N   LIG    1      -38.823  75.280  26.114  0.00  0.00    -0.252 NA
ENDBRANCH  11  13
ENDBRANCH   3   5
BRANCH   1  23
ATOM     20  C   LIG    1      -35.224  67.665  23.080  0.00  0.00    +0.149 A 
ATOM     21  N   LIG    1      -34.852  68.088  24.297  0.00  0.00    -0.160 NA
ATOM     22  N   LIG    1      -35.742  69.052  24.646  0.00  0.00    -0.218 N 
ATOM     23  C   LIG    1      -36.607  69.346  23.579  0.00  0.00    +0.129 A 
ATOM     24  C   LIG    1      -36.329  68.408  22.612  0.00  0.00    +0.078 A 
BRANCH  22  25
ATOM     25  C   LIG    1      -35.611  69.676  25.925  0.00  0.00    +0.067 A 
ATOM     26  C   LIG    1      -36.298  69.224  27.055  0.00  0.00    +0.028 A 
ATOM     27  C   LIG    1      -36.185  69.911  28.271  0.00  0.00    +0.002 A 
ATOM     28  C   LIG    1      -35.376  71.041  28.373  0.00  0.00    +0.000 A 
ATOM     29  C   LIG    1      -34.649  71.469  27.268  0.00  0.00    +0.002 A 
ATOM     30  C   LIG    1      -34.752  70.785  26.054  0.00  0.00    +0.028 A 
ENDBRANCH  22  25
BRANCH  20  31
ATOM     31  C   LIG    1      -34.539  66.585  22.371  0.00  0.00    +0.236 C 
ATOM     32  N   LIG    1      -33.884  66.852  21.290  0.00  0.00    -0.246 NA
BRANCH  32  33
ATOM     33  C   LIG    1      -33.280  65.838  20.490  0.00  0.00    +0.109 C 
ATOM     34  C   LIG    1      -32.025  66.194  19.737  0.00  0.00    +0.029 C 
ATOM     35  C   LIG    1      -33.333  66.141  19.014  0.00  0.00    +0.029 C 
ENDBRANCH  32  33
BRANCH  31  36
ATOM     36  O   LIG    1      -34.687  65.359  22.914  0.00  0.00    -0.491 OA
ATOM     37  H   LIG    1      -35.127  64.748  22.315  0.00  0.00    +0.294 HD
ENDBRANCH  31  36
ENDBRANCH  20  31
ENDBRANCH   1  23
TORSDOF 7
ENDMDL
MODEL 9
REMARK VINA RESULT:      -6.5      4.411      7.657
REMARK  Name = pdb/CHEMBL3962859.pdb
REMARK                            x       y       z     vdW  Elec       q    Type
REMARK                         _______ _______ _______ _____ _____    ______ ____
ROOT
ATOM      1  N   LIG    1      -37.965  74.188  25.431  0.00  0.00    -0.266 N 
ATOM      2  H   LIG    1      -37.087  74.373  24.975  0.00  0.00    +0.157 HD
ATOM      3  C   LIG    1      -37.995  74.190  26.881  0.00  0.00    +0.251 C 
ATOM      4  O   LIG    1      -39.041  74.169  27.494  0.00  0.00    -0.270 OA
ENDROOT
BRANCH   3   5
ATOM      5  C   LIG    1      -36.686  74.342  27.582  0.00  0.00    +0.056 A 
ATOM      6  C   LIG    1      -36.179  73.389  28.451  0.00  0.00    +0.054 A 
ATOM      7 CL   LIG    1      -37.060  71.998  28.969  0.00  0.00    -0.083 Cl
ATOM      8  C   LIG    1      -34.893  73.536  28.961  0.00  0.00    +0.041 A 
ATOM      9  C   LIG    1      -34.115  74.665  28.662  0.00  0.00    +0.052 A 
ATOM     10 CL   LIG    1      -32.474  74.552  29.204  0.00  0.00    -0.083 Cl
ATOM     11  C   LIG    1      -34.634  75.731  27.899  0.00  0.00    +0.022 A 
ATOM     12  C   LIG    1      -35.930  75.518  27.341  0.00  0.00    +0.026 A 
BRANCH  11  13
ATOM     13  C   LIG    1      -33.926  77.016  27.618  0.00  0.00    +0.107 A 
ATOM     14  C   LIG    1      -34.277  78.265  28.142  0.00  0.00    +0.149 A 
ATOM     15  F   LIG    1      -35.362  78.443  28.906  0.00  0.00    -0.203 F 
ATOM     16  C   LIG    1      -33.531  79.399  27.827  0.00  0.00    +0.042 A 
ATOM     17  C   LIG    1      -32.479  79.290  26.932  0.00  0.00    +0.023 A 
ATOM     18  C   LIG    1      -32.213  78.041  26.400  0.00  0.00    +0.111 A 
ATOM     19  N   LIG    1      -32.896  76.913  26.727  0.00  0.00    -0.252 NA
ENDBRANCH  11  13
ENDBRANCH   3   5
BRANCH   1  23
ATOM     20  C   LIG    1      -40.834  73.129  23.550  0.00  0.00    +0.149 A 
ATOM     21  N   LIG    1      -41.121  74.435  23.649  0.00  0.00    -0.160 NA
ATOM     22  N   LIG    1      -40.038  75.012  24.230  0.00  0.00    -0.218 N 
ATOM     23  C   LIG    1      -39.108  74.040  24.635  0.00  0.00    +0.129 A 
ATOM     24  C   LIG    1      -39.578  72.850  24.131  0.00  0.00    +0.078 A 
BRANCH  22  25
ATOM     25  C   LIG    1      -40.044  76.426  24.440  0.00  0.00    +0.067 A 
ATOM     26  C   LIG    1      -39.782  77.339  23.414  0.00  0.00    +0.028 A 
ATOM     27  C   LIG    1      -39.736  78.712  23.688  0.00  0.00    +0.002 A 
ATOM     28  C   LIG    1      -39.966  79.185  24.978  0.00  0.00    +0.000 A 
ATOM     29  C   LIG    1      -40.277  78.289  25.995  0.00  0.00    +0.002 A 
ATOM     30  C   LIG    1      -40.331  76.919  25.727  0.00  0.00    +0.028 A 
ENDBRANCH  22  25
BRANCH  20  31
ATOM     31  C   LIG    1      -41.738  72.163  22.927  0.00  0.00    +0.236 C 
ATOM     32  N   LIG    1      -42.547  72.558  21.999  0.00  0.00    -0.246 NA
BRANCH  32  33
ATOM     33  C   LIG    1      -43.526  71.699  21.420  0.00  0.00    +0.109 C 
ATOM     34  C   LIG    1      -43.185  71.028  20.115  0.00  0.00    +0.029 C 
ATOM     35  C   LIG    1      -44.079  72.227  20.121  0.00  0.00    +0.029 C 
ENDBRANCH  32  33
BRANCH  31  36
ATOM     36  O   LIG    1      -41.662  70.908  23.417  0.00  0.00    -0.491 OA
ATOM     37  H   LIG    1      -41.717  70.245  22.723  0.00  0.00    +0.294 HD
ENDBRANCH  31  36
ENDBRANCH  20  31
ENDBRANCH   1  23
TORSDOF 7
ENDMDL
