MODEL 1
REMARK VINA RESULT:      -7.4      0.000      0.000
REMARK  Name = pdb/CHEMBL3979991.pdb
REMARK                            x       y       z     vdW  Elec       q    Type
REMARK                         _______ _______ _______ _____ _____    ______ ____
ROOT
ATOM      1  C   LIG    1      -31.166  87.008  30.663  0.00  0.00    +0.149 A 
ATOM      2  N   LIG    1      -31.984  87.880  30.060  0.00  0.00    -0.160 NA
ATOM      3  N   LIG    1      -32.938  87.119  29.467  0.00  0.00    -0.218 N 
ATOM      4  C   LIG    1      -32.740  85.757  29.708  0.00  0.00    +0.129 A 
ATOM      5  C   LIG    1      -31.561  85.678  30.430  0.00  0.00    +0.078 A 
ENDROOT
BRANCH   3   6
ATOM      6  C   LIG    1      -33.968  87.780  28.742  0.00  0.00    +0.067 A 
ATOM      7  C   LIG    1      -35.151  87.129  28.381  0.00  0.00    +0.028 A 
ATOM      8  C   LIG    1      -36.146  87.831  27.693  0.00  0.00    +0.002 A 
ATOM      9  C   LIG    1      -35.966  89.175  27.362  0.00  0.00    +0.000 A 
ATOM     10  C   LIG    1      -34.796  89.831  27.731  0.00  0.00    +0.002 A 
ATOM     11  C   LIG    1      -33.804  89.144  28.432  0.00  0.00    +0.028 A 
ENDBRANCH   3   6
BRANCH   4  12
ATOM     12  N   LIG    1      -33.499  84.672  29.249  0.00  0.00    -0.266 N 
ATOM     13  H   LIG    1      -33.378  84.408  28.274  0.00  0.00    +0.157 HD
ATOM     14  C   LIG    1      -34.393  83.889  30.059  0.00  0.00    +0.251 C 
ATOM     15  O   LIG    1      -34.594  84.166  31.240  0.00  0.00    -0.270 OA
BRANCH  14  16
ATOM     16  C   LIG    1      -35.084  82.757  29.430  0.00  0.00    +0.056 A 
ATOM     17  C   LIG    1      -36.470  82.710  29.220  0.00  0.00    +0.054 A 
ATOM     18 CL   LIG    1      -37.550  83.975  29.680  0.00  0.00    -0.083 Cl
ATOM     19  C   LIG    1      -37.034  81.601  28.599  0.00  0.00    +0.041 A 
ATOM     20  C   LIG    1      -36.246  80.515  28.183  0.00  0.00    +0.052 A 
ATOM     21 CL   LIG    1      -37.146  79.185  27.537  0.00  0.00    -0.083 Cl
ATOM     22  C   LIG    1      -34.845  80.521  28.349  0.00  0.00    +0.019 A 
ATOM     23  C   LIG    1      -34.303  81.667  28.978  0.00  0.00    +0.026 A 
BRANCH  22  24
ATOM     24  C   LIG    1      -33.923  79.421  27.946  0.00  0.00    +0.072 A 
ATOM     25  N   LIG    1      -33.273  79.627  26.769  0.00  0.00    -0.255 NA
ATOM     26  C   LIG    1      -32.421  78.668  26.329  0.00  0.00    +0.111 A 
ATOM     27  C   LIG    1      -32.161  77.494  27.009  0.00  0.00    +0.020 A 
ATOM     28  C   LIG    1      -32.829  77.281  28.203  0.00  0.00    +0.004 A 
ATOM     29  C   LIG    1      -33.733  78.239  28.663  0.00  0.00    +0.028 A 
ENDBRANCH  22  24
ENDBRANCH  14  16
ENDBRANCH   4  12
BRANCH   1  30
ATOM     30  C   LIG    1      -30.073  87.505  31.481  0.00  0.00    +0.236 C 
ATOM     31  N   LIG    1      -30.108  87.442  32.762  0.00  0.00    -0.243 NA
BRANCH  30  32
ATOM     32  O   LIG    1      -29.062  88.056  30.769  0.00  0.00    -0.491 OA
ATOM     33  H   LIG    1      -28.233  87.966  31.278  0.00  0.00    +0.294 HD
ENDBRANCH  30  32
BRANCH  31  34
ATOM     34  C   LIG    1      -28.922  87.963  33.440  0.00  0.00    +0.201 C 
BRANCH  34  35
ATOM     35  C   LIG    1      -28.295  86.914  34.268  0.00  0.00    +0.077 A 
ATOM     36  N   LIG    1      -28.713  85.613  34.251  0.00  0.00    -0.260 N 
ATOM     37  H   LIG    1      -29.458  85.179  33.719  0.00  0.00    +0.190 HD
ATOM     38  N   LIG    1      -27.986  84.852  35.081  0.00  0.00    -0.068 NA
ATOM     39  N   LIG    1      -27.078  85.635  35.648  0.00  0.00    -0.138 NA
ATOM     40  C   LIG    1      -27.250  86.898  35.162  0.00  0.00    +0.161 A 
ENDBRANCH  34  35
ENDBRANCH  31  34
ENDBRANCH   1  30
TORSDOF 8
ENDMDL
MODEL 2
REMARK VINA RESULT:      -7.1      8.389     14.057
REMARK  Name = pdb/CHEMBL3979991.pdb
REMARK                            x       y       z     vdW  Elec       q    Type
REMARK                         _______ _______ _______ _____ _____    ______ ____
ROOT
ATOM      1  C   LIG    1      -29.689  76.054  31.177  0.00  0.00    +0.149 A 
ATOM      2  N   LIG    1      -29.340  74.818  31.557  0.00  0.00    -0.160 NA
ATOM      3  N   LIG    1      -28.117  74.955  32.129  0.00  0.00    -0.218 N 
ATOM      4  C   LIG    1      -27.691  76.286  32.133  0.00  0.00    +0.129 A 
ATOM      5  C   LIG    1      -28.678  76.990  31.464  0.00  0.00    +0.078 A 
ENDROOT
BRANCH   3   6
ATOM      6  C   LIG    1      -27.483  73.790  32.642  0.00  0.00    +0.067 A 
ATOM      7  C   LIG    1      -26.554  73.063  31.893  0.00  0.00    +0.028 A 
ATOM      8  C   LIG    1      -25.938  71.940  32.453  0.00  0.00    +0.002 A 
ATOM      9  C   LIG    1      -26.245  71.536  33.753  0.00  0.00    +0.000 A 
ATOM     10  C   LIG    1      -27.160  72.264  34.509  0.00  0.00    +0.002 A 
ATOM     11  C   LIG    1      -27.767  73.396  33.964  0.00  0.00    +0.028 A 
ENDBRANCH   3   6
BRANCH   4  12
ATOM     12  N   LIG    1      -26.485  76.812  32.613  0.00  0.00    -0.266 N 
ATOM     13  H   LIG    1      -26.400  76.920  33.621  0.00  0.00    +0.157 HD
ATOM     14  C   LIG    1      -25.356  77.167  31.795  0.00  0.00    +0.251 C 
ATOM     15  O   LIG    1      -25.400  77.074  30.570  0.00  0.00    -0.270 OA
BRANCH  14  16
ATOM     16  C   LIG    1      -24.148  77.669  32.463  0.00  0.00    +0.056 A 
ATOM     17  C   LIG    1      -22.859  77.177  32.214  0.00  0.00    +0.054 A 
ATOM     18 CL   LIG    1      -22.520  75.908  31.093  0.00  0.00    -0.083 Cl
ATOM     19  C   LIG    1      -21.772  77.727  32.883  0.00  0.00    +0.041 A 
ATOM     20  C   LIG    1      -21.935  78.766  33.815  0.00  0.00    +0.052 A 
ATOM     21 CL   LIG    1      -20.479  79.235  34.624  0.00  0.00    -0.083 Cl
ATOM     22  C   LIG    1      -23.207  79.314  34.086  0.00  0.00    +0.019 A 
ATOM     23  C   LIG    1      -24.290  78.735  33.383  0.00  0.00    +0.026 A 
BRANCH  22  24
ATOM     24  C   LIG    1      -23.486  80.410  35.056  0.00  0.00    +0.072 A 
ATOM     25  N   LIG    1      -24.675  80.304  35.708  0.00  0.00    -0.255 NA
ATOM     26  C   LIG    1      -25.007  81.268  36.602  0.00  0.00    +0.111 A 
ATOM     27  C   LIG    1      -24.204  82.351  36.904  0.00  0.00    +0.020 A 
ATOM     28  C   LIG    1      -22.997  82.463  36.235  0.00  0.00    +0.004 A 
ATOM     29  C   LIG    1      -22.646  81.500  35.288  0.00  0.00    +0.028 A 
ENDBRANCH  22  24
ENDBRANCH  14  16
ENDBRANCH   4  12
BRANCH   1  30
ATOM     30  C   LIG    1      -31.005  76.279  30.607  0.00  0.00    +0.236 C 
ATOM     31  N   LIG    1      -31.217  76.185  29.345  0.00  0.00    -0.243 NA
BRANCH  30  32
ATOM     32  O   LIG    1      -31.946  76.622  31.517  0.00  0.00    -0.491 OA
ATOM     33  H   LIG    1      -31.514  77.095  32.254  0.00  0.00    +0.294 HD
ENDBRANCH  30  32
BRANCH  31  34
ATOM     34  C   LIG    1      -32.600  76.418  28.930  0.00  0.00    +0.201 C 
BRANCH  34  35
ATOM     35  C   LIG    1      -32.656  77.440  27.866  0.00  0.00    +0.077 A 
ATOM     36  N   LIG    1      -33.026  78.734  28.104  0.00  0.00    -0.260 N 
ATOM     37  H   LIG    1      -33.303  79.179  28.972  0.00  0.00    +0.190 HD
ATOM     38  N   LIG    1      -32.993  79.470  26.984  0.00  0.00    -0.068 NA
ATOM     39  N   LIG    1      -32.597  78.677  25.998  0.00  0.00    -0.138 NA
ATOM     40  C   LIG    1      -32.384  77.433  26.517  0.00  0.00    +0.161 A 
ENDBRANCH  34  35
ENDBRANCH  31  34
ENDBRANCH   1  30
TORSDOF 8
ENDMDL
MODEL 3
REMARK VINA RESULT:      -6.9      9.542     14.633
REMARK  Name = pdb/CHEMBL3979991.pdb
REMARK                            x       y       z     vdW  Elec       q    Type
REMARK                         _______ _______ _______ _____ _____    ______ ____
ROOT
ATOM      1  C   LIG    1      -26.687  76.173  31.928  0.00  0.00    +0.149 A 
ATOM      2  N   LIG    1      -25.593  75.780  31.262  0.00  0.00    -0.160 NA
ATOM      3  N   LIG    1      -24.606  76.612  31.680  0.00  0.00    -0.218 N 
ATOM      4  C   LIG    1      -25.066  77.527  32.631  0.00  0.00    +0.129 A 
ATOM      5  C   LIG    1      -26.423  77.285  32.748  0.00  0.00    +0.078 A 
ENDROOT
BRANCH   3   6
ATOM      6  C   LIG    1      -23.302  76.429  31.141  0.00  0.00    +0.067 A 
ATOM      7  C   LIG    1      -22.950  76.918  29.879  0.00  0.00    +0.028 A 
ATOM      8  C   LIG    1      -21.648  76.737  29.405  0.00  0.00    +0.002 A 
ATOM      9  C   LIG    1      -20.697  76.070  30.179  0.00  0.00    +0.000 A 
ATOM     10  C   LIG    1      -21.038  75.594  31.441  0.00  0.00    +0.002 A 
ATOM     11  C   LIG    1      -22.331  75.784  31.930  0.00  0.00    +0.028 A 
ENDBRANCH   3   6
BRANCH   4  12
ATOM     12  N   LIG    1      -24.352  78.547  33.274  0.00  0.00    -0.266 N 
ATOM     13  H   LIG    1      -24.449  79.485  32.893  0.00  0.00    +0.157 HD
ATOM     14  C   LIG    1      -23.535  78.371  34.445  0.00  0.00    +0.251 C 
ATOM     15  O   LIG    1      -23.366  77.261  34.945  0.00  0.00    -0.270 OA
BRANCH  14  16
ATOM     16  C   LIG    1      -22.885  79.555  35.020  0.00  0.00    +0.056 A 
ATOM     17  C   LIG    1      -21.530  79.868  34.833  0.00  0.00    +0.054 A 
ATOM     18 CL   LIG    1      -20.445  78.895  33.908  0.00  0.00    -0.083 Cl
ATOM     19  C   LIG    1      -21.006  81.022  35.402  0.00  0.00    +0.041 A 
ATOM     20  C   LIG    1      -21.802  81.885  36.173  0.00  0.00    +0.052 A 
ATOM     21 CL   LIG    1      -20.941  83.205  36.888  0.00  0.00    -0.083 Cl
ATOM     22  C   LIG    1      -23.176  81.631  36.373  0.00  0.00    +0.019 A 
ATOM     23  C   LIG    1      -23.679  80.451  35.774  0.00  0.00    +0.026 A 
BRANCH  22  24
ATOM     24  C   LIG    1      -24.103  82.480  37.174  0.00  0.00    +0.072 A 
ATOM     25  N   LIG    1      -25.258  82.817  36.538  0.00  0.00    -0.255 NA
ATOM     26  C   LIG    1      -26.152  83.595  37.197  0.00  0.00    +0.111 A 
ATOM     27  C   LIG    1      -25.970  84.060  38.485  0.00  0.00    +0.020 A 
ATOM     28  C   LIG    1      -24.791  83.724  39.129  0.00  0.00    +0.004 A 
ATOM     29  C   LIG    1      -23.842  82.948  38.462  0.00  0.00    +0.028 A 
ENDBRANCH  22  24
ENDBRANCH  14  16
ENDBRANCH   4  12
BRANCH   1  30
ATOM     30  C   LIG    1      -27.919  75.419  31.780  0.00  0.00    +0.236 C 
ATOM     31  N   LIG    1      -29.010  75.979  31.404  0.00  0.00    -0.243 NA
BRANCH  30  32
ATOM     32  O   LIG    1      -27.804  74.111  32.106  0.00  0.00    -0.491 OA
ATOM     33  H   LIG    1      -26.879  73.929  32.361  0.00  0.00    +0.294 HD
ENDBRANCH  30  32
BRANCH  31  34
ATOM     34  C   LIG    1      -30.158  75.081  31.281  0.00  0.00    +0.201 C 
BRANCH  34  35
ATOM     35  C   LIG    1      -31.061  75.538  30.207  0.00  0.00    +0.077 A 
ATOM     36  N   LIG    1      -30.928  76.754  29.598  0.00  0.00    -0.260 N 
ATOM     37  H   LIG    1      -30.249  77.489  29.761  0.00  0.00    +0.190 HD
ATOM     38  N   LIG    1      -31.861  76.936  28.653  0.00  0.00    -0.068 NA
ATOM     39  N   LIG    1      -32.614  75.845  28.620  0.00  0.00    -0.138 NA
ATOM     40  C   LIG    1      -32.140  74.978  29.562  0.00  0.00    +0.161 A 
ENDBRANCH  34  35
ENDBRANCH  31  34
ENDBRANCH   1  30
TORSDOF 8
ENDMDL
MODEL 4
REMARK VINA RESULT:      -6.7      9.541     14.147
REMARK  Name = pdb/CHEMBL3979991.pdb
REMARK                            x       y       z     vdW  Elec       q    Type
REMARK                         _______ _______ _______ _____ _____    ______ ____
ROOT
ATOM      1  C   LIG    1      -37.684  76.023  26.149  0.00  0.00    +0.149 A 
ATOM      2  N   LIG    1      -37.557  74.701  25.971  0.00  0.00    -0.160 NA
ATOM      3  N   LIG    1      -38.534  74.367  25.090  0.00  0.00    -0.218 N 
ATOM      4  C   LIG    1      -39.275  75.482  24.690  0.00  0.00    +0.129 A 
ATOM      5  C   LIG    1      -38.767  76.543  25.419  0.00  0.00    +0.078 A 
ENDROOT
BRANCH   3   6
ATOM      6  C   LIG    1      -38.645  73.005  24.698  0.00  0.00    +0.067 A 
ATOM      7  C   LIG    1      -39.828  72.484  24.166  0.00  0.00    +0.028 A 
ATOM      8  C   LIG    1      -39.878  71.144  23.769  0.00  0.00    +0.002 A 
ATOM      9  C   LIG    1      -38.758  70.322  23.902  0.00  0.00    +0.000 A 
ATOM     10  C   LIG    1      -37.573  70.839  24.418  0.00  0.00    +0.002 A 
ATOM     11  C   LIG    1      -37.509  72.179  24.802  0.00  0.00    +0.028 A 
ENDBRANCH   3   6
BRANCH   4  12
ATOM     12  N   LIG    1      -40.369  75.531  23.815  0.00  0.00    -0.266 N 
ATOM     13  H   LIG    1      -40.161  75.624  22.824  0.00  0.00    +0.157 HD
ATOM     14  C   LIG    1      -41.748  75.418  24.212  0.00  0.00    +0.251 C 
ATOM     15  O   LIG    1      -42.066  75.320  25.395  0.00  0.00    -0.270 OA
BRANCH  14  16
ATOM     16  C   LIG    1      -42.774  75.449  23.162  0.00  0.00    +0.056 A 
ATOM     17  C   LIG    1      -43.456  76.612  22.774  0.00  0.00    +0.054 A 
ATOM     18 CL   LIG    1      -43.184  78.161  23.484  0.00  0.00    -0.083 Cl
ATOM     19  C   LIG    1      -44.401  76.547  21.756  0.00  0.00    +0.041 A 
ATOM     20  C   LIG    1      -44.698  75.336  21.109  0.00  0.00    +0.052 A 
ATOM     21 CL   LIG    1      -45.981  75.440  19.952  0.00  0.00    -0.083 Cl
ATOM     22  C   LIG    1      -44.026  74.142  21.445  0.00  0.00    +0.019 A 
ATOM     23  C   LIG    1      -43.065  74.245  22.480  0.00  0.00    +0.026 A 
BRANCH  22  24
ATOM     24  C   LIG    1      -44.269  72.809  20.823  0.00  0.00    +0.072 A 
ATOM     25  N   LIG    1      -45.557  72.376  20.893  0.00  0.00    -0.255 NA
ATOM     26  C   LIG    1      -45.859  71.168  20.356  0.00  0.00    +0.111 A 
ATOM     27  C   LIG    1      -44.940  70.349  19.729  0.00  0.00    +0.020 A 
ATOM     28  C   LIG    1      -43.627  70.786  19.666  0.00  0.00    +0.004 A 
ATOM     29  C   LIG    1      -43.285  72.013  20.236  0.00  0.00    +0.028 A 
ENDBRANCH  22  24
ENDBRANCH  14  16
ENDBRANCH   4  12
BRANCH   1  30
ATOM     30  C   LIG    1      -36.717  76.726  26.974  0.00  0.00    +0.236 C 
ATOM     31  N   LIG    1      -35.783  76.105  27.595  0.00  0.00    -0.243 NA
BRANCH  30  32
ATOM     32  O   LIG    1      -36.923  78.062  27.041  0.00  0.00    -0.491 OA
ATOM     33  H   LIG    1      -37.273  78.371  26.183  0.00  0.00    +0.294 HD
ENDBRANCH  30  32
BRANCH  31  34
ATOM     34  C   LIG    1      -34.877  76.956  28.365  0.00  0.00    +0.201 C 
BRANCH  34  35
ATOM     35  C   LIG    1      -33.911  77.625  27.472  0.00  0.00    +0.077 A 
ATOM     36  N   LIG    1      -33.902  78.977  27.275  0.00  0.00    -0.260 N 
ATOM     37  H   LIG    1      -34.501  79.694  27.669  0.00  0.00    +0.190 HD
ATOM     38  N   LIG    1      -32.930  79.345  26.428  0.00  0.00    -0.068 NA
ATOM     39  N   LIG    1      -32.283  78.247  26.062  0.00  0.00    -0.138 NA
ATOM     40  C   LIG    1      -32.867  77.186  26.691  0.00  0.00    +0.161 A 
ENDBRANCH  34  35
ENDBRANCH  31  34
ENDBRANCH   1  30
TORSDOF 8
ENDMDL
MODEL 5
REMARK VINA RESULT:      -6.7      8.653     11.181
REMARK  Name = pdb/CHEMBL3979991.pdb
REMARK                            x       y       z     vdW  Elec       q    Type
REMARK                         _______ _______ _______ _____ _____    ______ ____
ROOT
ATOM      1  C   LIG    1      -31.892  74.103  29.893  0.00  0.00    +0.149 A 
ATOM      2  N   LIG    1      -31.770  75.403  29.594  0.00  0.00    -0.160 NA
ATOM      3  N   LIG    1      -32.769  75.659  28.712  0.00  0.00    -0.218 N 
ATOM      4  C   LIG    1      -33.544  74.523  28.461  0.00  0.00    +0.129 A 
ATOM      5  C   LIG    1      -32.942  73.502  29.176  0.00  0.00    +0.078 A 
ENDROOT
BRANCH   3   6
ATOM      6  C   LIG    1      -32.899  76.984  28.213  0.00  0.00    +0.067 A 
ATOM      7  C   LIG    1      -32.201  77.419  27.082  0.00  0.00    +0.028 A 
ATOM      8  C   LIG    1      -32.383  78.724  26.614  0.00  0.00    +0.002 A 
ATOM      9  C   LIG    1      -33.255  79.597  27.268  0.00  0.00    +0.000 A 
ATOM     10  C   LIG    1      -33.963  79.165  28.385  0.00  0.00    +0.002 A 
ATOM     11  C   LIG    1      -33.800  77.859  28.850  0.00  0.00    +0.028 A 
ENDBRANCH   3   6
BRANCH   4  12
ATOM     12  N   LIG    1      -34.641  74.391  27.599  0.00  0.00    -0.266 N 
ATOM     13  H   LIG    1      -34.436  74.280  26.609  0.00  0.00    +0.157 HD
ATOM     14  C   LIG    1      -36.017  74.358  28.016  0.00  0.00    +0.251 C 
ATOM     15  O   LIG    1      -36.332  74.501  29.195  0.00  0.00    -0.270 OA
BRANCH  14  16
ATOM     16  C   LIG    1      -37.047  74.172  26.985  0.00  0.00    +0.056 A 
ATOM     17  C   LIG    1      -37.436  72.919  26.490  0.00  0.00    +0.054 A 
ATOM     18 CL   LIG    1      -36.749  71.427  27.020  0.00  0.00    -0.083 Cl
ATOM     19  C   LIG    1      -38.434  72.840  25.525  0.00  0.00    +0.041 A 
ATOM     20  C   LIG    1      -39.061  73.993  25.025  0.00  0.00    +0.052 A 
ATOM     21 CL   LIG    1      -40.193  73.696  23.750  0.00  0.00    -0.083 Cl
ATOM     22  C   LIG    1      -38.725  75.277  25.505  0.00  0.00    +0.019 A 
ATOM     23  C   LIG    1      -37.710  75.320  26.491  0.00  0.00    +0.026 A 
BRANCH  22  24
ATOM     24  C   LIG    1      -39.326  76.558  25.039  0.00  0.00    +0.072 A 
ATOM     25  N   LIG    1      -40.444  76.941  25.714  0.00  0.00    -0.255 NA
ATOM     26  C   LIG    1      -41.056  78.093  25.345  0.00  0.00    +0.111 A 
ATOM     27  C   LIG    1      -40.608  78.915  24.329  0.00  0.00    +0.020 A 
ATOM     28  C   LIG    1      -39.475  78.522  23.636  0.00  0.00    +0.004 A 
ATOM     29  C   LIG    1      -38.843  77.325  23.978  0.00  0.00    +0.028 A 
ENDBRANCH  22  24
ENDBRANCH  14  16
ENDBRANCH   4  12
BRANCH   1  30
ATOM     30  C   LIG    1      -31.021  73.519  30.897  0.00  0.00    +0.236 C 
ATOM     31  N   LIG    1      -30.008  74.153  31.362  0.00  0.00    -0.243 NA
BRANCH  30  32
ATOM     32  O   LIG    1      -31.365  72.259  31.255  0.00  0.00    -0.491 OA
ATOM     33  H   LIG    1      -32.174  72.004  30.771  0.00  0.00    +0.294 HD
ENDBRANCH  30  32
BRANCH  31  34
ATOM     34  C   LIG    1      -29.244  73.438  32.384  0.00  0.00    +0.201 C 
BRANCH  34  35
ATOM     35  C   LIG    1      -28.088  72.748  31.779  0.00  0.00    +0.077 A 
ATOM     36  N   LIG    1      -28.207  71.575  31.089  0.00  0.00    -0.260 N 
ATOM     37  H   LIG    1      -29.033  71.022  30.889  0.00  0.00    +0.190 HD
ATOM     38  N   LIG    1      -27.021  71.150  30.632  0.00  0.00    -0.068 NA
ATOM     39  N   LIG    1      -26.108  72.036  31.007  0.00  0.00    -0.138 NA
ATOM     40  C   LIG    1      -26.741  73.021  31.708  0.00  0.00    +0.161 A 
ENDBRANCH  34  35
ENDBRANCH  31  34
ENDBRANCH   1  30
TORSDOF 8
ENDMDL
MODEL 6
REMARK VINA RESULT:      -6.7      9.131     13.426
REMARK  Name = pdb/CHEMBL3979991.pdb
REMARK                            x       y       z     vdW  Elec       q    Type
REMARK                         _______ _______ _______ _____ _____    ______ ____
ROOT
ATOM      1  C   LIG    1      -37.752  76.410  26.065  0.00  0.00    +0.149 A 
ATOM      2  N   LIG    1      -38.954  76.976  25.898  0.00  0.00    -0.160 NA
ATOM      3  N   LIG    1      -39.663  76.090  25.153  0.00  0.00    -0.218 N 
ATOM      4  C   LIG    1      -38.918  74.945  24.861  0.00  0.00    +0.129 A 
ATOM      5  C   LIG    1      -37.663  75.175  25.397  0.00  0.00    +0.078 A 
ENDROOT
BRANCH   3   6
ATOM      6  C   LIG    1      -41.004  76.421  24.816  0.00  0.00    +0.067 A 
ATOM      7  C   LIG    1      -41.407  76.610  23.490  0.00  0.00    +0.028 A 
ATOM      8  C   LIG    1      -42.744  76.907  23.208  0.00  0.00    +0.002 A 
ATOM      9  C   LIG    1      -43.678  77.019  24.238  0.00  0.00    +0.000 A 
ATOM     10  C   LIG    1      -43.286  76.818  25.558  0.00  0.00    +0.002 A 
ATOM     11  C   LIG    1      -41.958  76.505  25.848  0.00  0.00    +0.028 A 
ENDBRANCH   3   6
BRANCH   4  12
ATOM     12  N   LIG    1      -39.299  73.828  24.105  0.00  0.00    -0.266 N 
ATOM     13  H   LIG    1      -38.980  73.796  23.140  0.00  0.00    +0.157 HD
ATOM     14  C   LIG    1      -40.066  72.717  24.604  0.00  0.00    +0.251 C 
ATOM     15  O   LIG    1      -40.494  72.702  25.755  0.00  0.00    -0.270 OA
BRANCH  14  16
ATOM     16  C   LIG    1      -40.346  71.604  23.688  0.00  0.00    +0.056 A 
ATOM     17  C   LIG    1      -41.522  71.497  22.930  0.00  0.00    +0.054 A 
ATOM     18 CL   LIG    1      -42.799  72.657  22.978  0.00  0.00    -0.083 Cl
ATOM     19  C   LIG    1      -41.692  70.414  22.075  0.00  0.00    +0.041 A 
ATOM     20  C   LIG    1      -40.714  69.413  21.957  0.00  0.00    +0.052 A 
ATOM     21 CL   LIG    1      -41.161  68.093  20.931  0.00  0.00    -0.083 Cl
ATOM     22  C   LIG    1      -39.503  69.484  22.679  0.00  0.00    +0.019 A 
ATOM     23  C   LIG    1      -39.359  70.602  23.535  0.00  0.00    +0.026 A 
BRANCH  22  24
ATOM     24  C   LIG    1      -38.407  68.475  22.628  0.00  0.00    +0.072 A 
ATOM     25  N   LIG    1      -38.657  67.328  23.315  0.00  0.00    -0.255 NA
ATOM     26  C   LIG    1      -37.704  66.363  23.323  0.00  0.00    +0.111 A 
ATOM     27  C   LIG    1      -36.494  66.466  22.665  0.00  0.00    +0.020 A 
ATOM     28  C   LIG    1      -36.236  67.637  21.973  0.00  0.00    +0.004 A 
ATOM     29  C   LIG    1      -37.188  68.657  21.973  0.00  0.00    +0.028 A 
ENDBRANCH  22  24
ENDBRANCH  14  16
ENDBRANCH   4  12
BRANCH   1  30
ATOM     30  C   LIG    1      -36.767  77.064  26.908  0.00  0.00    +0.236 C 
ATOM     31  N   LIG    1      -35.838  76.404  27.496  0.00  0.00    -0.243 NA
BRANCH  30  32
ATOM     32  O   LIG    1      -36.951  78.399  27.030  0.00  0.00    -0.491 OA
ATOM     33  H   LIG    1      -37.471  78.573  27.839  0.00  0.00    +0.294 HD
ENDBRANCH  30  32
BRANCH  31  34
ATOM     34  C   LIG    1      -34.912  77.210  28.291  0.00  0.00    +0.201 C 
BRANCH  34  35
ATOM     35  C   LIG    1      -33.814  77.721  27.447  0.00  0.00    +0.077 A 
ATOM     36  N   LIG    1      -33.726  79.030  27.065  0.00  0.00    -0.260 N 
ATOM     37  H   LIG    1      -34.341  79.809  27.273  0.00  0.00    +0.190 HD
ATOM     38  N   LIG    1      -32.641  79.251  26.309  0.00  0.00    -0.068 NA
ATOM     39  N   LIG    1      -31.999  78.097  26.188  0.00  0.00    -0.138 NA
ATOM     40  C   LIG    1      -32.699  77.151  26.878  0.00  0.00    +0.161 A 
ENDBRANCH  34  35
ENDBRANCH  31  34
ENDBRANCH   1  30
TORSDOF 8
ENDMDL
MODEL 7
REMARK VINA RESULT:      -6.6     18.231     19.932
REMARK  Name = pdb/CHEMBL3979991.pdb
REMARK                            x       y       z     vdW  Elec       q    Type
REMARK                         _______ _______ _______ _____ _____    ______ ____
ROOT
ATOM      1  C   LIG    1      -22.067  82.434  15.747  0.00  0.00    +0.149 A 
ATOM      2  N   LIG    1      -20.789  82.035  15.772  0.00  0.00    -0.160 NA
ATOM      3  N   LIG    1      -20.840  80.680  15.717  0.00  0.00    -0.218 N 
ATOM      4  C   LIG    1      -22.155  80.213  15.638  0.00  0.00    +0.129 A 
ATOM      5  C   LIG    1      -22.952  81.341  15.718  0.00  0.00    +0.078 A 
ENDROOT
BRANCH   3   6
ATOM      6  C   LIG    1      -19.612  79.963  15.721  0.00  0.00    +0.067 A 
ATOM      7  C   LIG    1      -18.525  80.356  14.936  0.00  0.00    +0.028 A 
ATOM      8  C   LIG    1      -17.329  79.634  14.996  0.00  0.00    +0.002 A 
ATOM      9  C   LIG    1      -17.213  78.522  15.831  0.00  0.00    +0.000 A 
ATOM     10  C   LIG    1      -18.288  78.134  16.626  0.00  0.00    +0.002 A 
ATOM     11  C   LIG    1      -19.480  78.858  16.585  0.00  0.00    +0.028 A 
ENDBRANCH   3   6
BRANCH   4  12
ATOM     12  N   LIG    1      -22.605  78.887  15.587  0.00  0.00    -0.266 N 
ATOM     13  H   LIG    1      -23.111  78.542  16.399  0.00  0.00    +0.157 HD
ATOM     14  C   LIG    1      -22.442  78.003  14.463  0.00  0.00    +0.251 C 
ATOM     15  O   LIG    1      -21.828  78.354  13.458  0.00  0.00    -0.270 OA
BRANCH  14  16
ATOM     16  C   LIG    1      -23.011  76.652  14.557  0.00  0.00    +0.056 A 
ATOM     17  C   LIG    1      -24.034  76.179  13.723  0.00  0.00    +0.054 A 
ATOM     18 CL   LIG    1      -24.767  77.124  12.479  0.00  0.00    -0.083 Cl
ATOM     19  C   LIG    1      -24.498  74.877  13.876  0.00  0.00    +0.041 A 
ATOM     20  C   LIG    1      -23.969  74.022  14.857  0.00  0.00    +0.052 A 
ATOM     21 CL   LIG    1      -24.756  72.484  14.963  0.00  0.00    -0.083 Cl
ATOM     22  C   LIG    1      -22.923  74.440  15.706  0.00  0.00    +0.019 A 
ATOM     23  C   LIG    1      -22.470  75.768  15.520  0.00  0.00    +0.026 A 
BRANCH  22  24
ATOM     24  C   LIG    1      -22.298  73.613  16.777  0.00  0.00    +0.072 A 
ATOM     25  N   LIG    1      -21.136  73.002  16.419  0.00  0.00    -0.255 NA
ATOM     26  C   LIG    1      -20.508  72.224  17.336  0.00  0.00    +0.111 A 
ATOM     27  C   LIG    1      -20.969  72.022  18.622  0.00  0.00    +0.020 A 
ATOM     28  C   LIG    1      -22.156  72.637  18.985  0.00  0.00    +0.004 A 
ATOM     29  C   LIG    1      -22.836  73.419  18.050  0.00  0.00    +0.028 A 
ENDBRANCH  22  24
ENDBRANCH  14  16
ENDBRANCH   4  12
BRANCH   1  30
ATOM     30  C   LIG    1      -22.369  83.854  15.697  0.00  0.00    +0.236 C 
ATOM     31  N   LIG    1      -22.174  84.547  14.635  0.00  0.00    -0.243 NA
BRANCH  30  32
ATOM     32  O   LIG    1      -22.832  84.358  16.865  0.00  0.00    -0.491 OA
ATOM     33  H   LIG    1      -22.245  84.065  17.589  0.00  0.00    +0.294 HD
ENDBRANCH  30  32
BRANCH  31  34
ATOM     34  C   LIG    1      -22.549  85.957  14.738  0.00  0.00    +0.201 C 
BRANCH  34  35
ATOM     35  C   LIG    1      -21.456  86.821  14.249  0.00  0.00    +0.077 A 
ATOM     36  N   LIG    1      -21.608  88.165  14.056  0.00  0.00    -0.260 N 
ATOM     37  H   LIG    1      -22.421  88.752  14.200  0.00  0.00    +0.190 HD
ATOM     38  N   LIG    1      -20.475  88.730  13.615  0.00  0.00    -0.068 NA
ATOM     39  N   LIG    1      -19.563  87.772  13.518  0.00  0.00    -0.138 NA
ATOM     40  C   LIG    1      -20.143  86.598  13.903  0.00  0.00    +0.161 A 
ENDBRANCH  34  35
ENDBRANCH  31  34
ENDBRANCH   1  30
TORSDOF 8
ENDMDL
MODEL 8
REMARK VINA RESULT:      -6.6     11.434     13.178
REMARK  Name = pdb/CHEMBL3979991.pdb
REMARK                            x       y       z     vdW  Elec       q    Type
REMARK                         _______ _______ _______ _____ _____    ______ ____
ROOT
ATOM      1  C   LIG    1      -24.164  78.636  34.359  0.00  0.00    +0.149 A 
ATOM      2  N   LIG    1      -23.216  78.673  33.413  0.00  0.00    -0.160 NA
ATOM      3  N   LIG    1      -23.308  77.480  32.772  0.00  0.00    -0.218 N 
ATOM      4  C   LIG    1      -24.330  76.686  33.297  0.00  0.00    +0.129 A 
ATOM      5  C   LIG    1      -24.845  77.405  34.362  0.00  0.00    +0.078 A 
ENDROOT
BRANCH   3   6
ATOM      6  C   LIG    1      -22.415  77.229  31.694  0.00  0.00    +0.067 A 
ATOM      7  C   LIG    1      -22.875  76.952  30.404  0.00  0.00    +0.028 A 
ATOM      8  C   LIG    1      -21.957  76.738  29.371  0.00  0.00    +0.002 A 
ATOM      9  C   LIG    1      -20.585  76.798  29.619  0.00  0.00    +0.000 A 
ATOM     10  C   LIG    1      -20.121  77.087  30.899  0.00  0.00    +0.002 A 
ATOM     11  C   LIG    1      -21.030  77.317  31.932  0.00  0.00    +0.028 A 
ENDBRANCH   3   6
BRANCH   4  12
ATOM     12  N   LIG    1      -24.712  75.393  32.915  0.00  0.00    -0.266 N 
ATOM     13  H   LIG    1      -24.340  74.623  33.465  0.00  0.00    +0.157 HD
ATOM     14  C   LIG    1      -25.615  75.085  31.838  0.00  0.00    +0.251 C 
ATOM     15  O   LIG    1      -26.087  75.969  31.127  0.00  0.00    -0.270 OA
BRANCH  14  16
ATOM     16  C   LIG    1      -25.943  73.675  31.593  0.00  0.00    +0.056 A 
ATOM     17  C   LIG    1      -27.191  73.104  31.883  0.00  0.00    +0.054 A 
ATOM     18 CL   LIG    1      -28.506  73.982  32.576  0.00  0.00    -0.083 Cl
ATOM     19  C   LIG    1      -27.415  71.761  31.600  0.00  0.00    +0.041 A 
ATOM     20  C   LIG    1      -26.413  70.955  31.034  0.00  0.00    +0.052 A 
ATOM     21 CL   LIG    1      -26.848  69.289  30.864  0.00  0.00    -0.083 Cl
ATOM     22  C   LIG    1      -25.149  71.484  30.701  0.00  0.00    +0.019 A 
ATOM     23  C   LIG    1      -24.956  72.855  30.996  0.00  0.00    +0.026 A 
BRANCH  22  24
ATOM     24  C   LIG    1      -24.021  70.715  30.102  0.00  0.00    +0.072 A 
ATOM     25  N   LIG    1      -24.145  70.469  28.770  0.00  0.00    -0.255 NA
ATOM     26  C   LIG    1      -23.163  69.766  28.152  0.00  0.00    +0.111 A 
ATOM     27  C   LIG    1      -22.032  69.293  28.790  0.00  0.00    +0.020 A 
ATOM     28  C   LIG    1      -21.910  69.537  30.148  0.00  0.00    +0.004 A 
ATOM     29  C   LIG    1      -22.921  70.232  30.813  0.00  0.00    +0.028 A 
ENDBRANCH  22  24
ENDBRANCH  14  16
ENDBRANCH   4  12
BRANCH   1  30
ATOM     30  C   LIG    1      -24.401  79.812  35.176  0.00  0.00    +0.236 C 
ATOM     31  N   LIG    1      -23.492  80.698  35.361  0.00  0.00    -0.243 NA
BRANCH  30  32
ATOM     32  O   LIG    1      -25.634  79.854  35.733  0.00  0.00    -0.491 OA
ATOM     33  H   LIG    1      -26.223  79.251  35.239  0.00  0.00    +0.294 HD
ENDBRANCH  30  32
BRANCH  31  34
ATOM     34  C   LIG    1      -23.893  81.835  36.191  0.00  0.00    +0.201 C 
BRANCH  34  35
ATOM     35  C   LIG    1      -22.718  82.427  36.860  0.00  0.00    +0.077 A 
ATOM     36  N   LIG    1      -21.552  82.698  36.202  0.00  0.00    -0.260 N 
ATOM     37  H   LIG    1      -21.309  82.553  35.228  0.00  0.00    +0.190 HD
ATOM     38  N   LIG    1      -20.638  83.238  37.021  0.00  0.00    -0.068 NA
ATOM     39  N   LIG    1      -21.189  83.336  38.223  0.00  0.00    -0.138 NA
ATOM     40  C   LIG    1      -22.461  82.847  38.145  0.00  0.00    +0.161 A 
ENDBRANCH  34  35
ENDBRANCH  31  34
ENDBRANCH   1  30
TORSDOF 8
ENDMDL
MODEL 9
REMARK VINA RESULT:      -6.6      9.539     14.016
REMARK  Name = pdb/CHEMBL3979991.pdb
REMARK                            x       y       z     vdW  Elec       q    Type
REMARK                         _______ _______ _______ _____ _____    ______ ____
ROOT
ATOM      1  C   LIG    1      -24.941  83.025  37.246  0.00  0.00    +0.149 A 
ATOM      2  N   LIG    1      -23.970  83.458  38.062  0.00  0.00    -0.160 NA
ATOM      3  N   LIG    1      -22.915  82.639  37.821  0.00  0.00    -0.218 N 
ATOM      4  C   LIG    1      -23.205  81.693  36.835  0.00  0.00    +0.129 A 
ATOM      5  C   LIG    1      -24.534  81.901  36.505  0.00  0.00    +0.078 A 
ENDROOT
BRANCH   3   6
ATOM      6  C   LIG    1      -21.714  82.864  38.549  0.00  0.00    +0.067 A 
ATOM      7  C   LIG    1      -21.488  82.282  39.800  0.00  0.00    +0.028 A 
ATOM      8  C   LIG    1      -20.279  82.512  40.463  0.00  0.00    +0.002 A 
ATOM      9  C   LIG    1      -19.296  83.319  39.888  0.00  0.00    +0.000 A 
ATOM     10  C   LIG    1      -19.510  83.889  38.636  0.00  0.00    +0.002 A 
ATOM     11  C   LIG    1      -20.707  83.653  37.960  0.00  0.00    +0.028 A 
ENDBRANCH   3   6
BRANCH   4  12
ATOM     12  N   LIG    1      -22.382  80.675  36.336  0.00  0.00    -0.266 N 
ATOM     13  H   LIG    1      -22.609  79.724  36.614  0.00  0.00    +0.157 HD
ATOM     14  C   LIG    1      -21.278  80.875  35.434  0.00  0.00    +0.251 C 
ATOM     15  O   LIG    1      -20.945  82.001  35.072  0.00  0.00    -0.270 OA
BRANCH  14  16
ATOM     16  C   LIG    1      -20.540  79.693  34.973  0.00  0.00    +0.056 A 
ATOM     17  C   LIG    1      -19.466  79.123  35.673  0.00  0.00    +0.054 A 
ATOM     18 CL   LIG    1      -18.866  79.741  37.168  0.00  0.00    -0.083 Cl
ATOM     19  C   LIG    1      -18.838  77.991  35.166  0.00  0.00    +0.041 A 
ATOM     20  C   LIG    1      -19.248  77.406  33.957  0.00  0.00    +0.052 A 
ATOM     21 CL   LIG    1      -18.269  76.076  33.439  0.00  0.00    -0.083 Cl
ATOM     22  C   LIG    1      -20.337  77.924  33.225  0.00  0.00    +0.019 A 
ATOM     23  C   LIG    1      -20.958  79.072  33.772  0.00  0.00    +0.026 A 
BRANCH  22  24
ATOM     24  C   LIG    1      -20.847  77.380  31.934  0.00  0.00    +0.072 A 
ATOM     25  N   LIG    1      -22.022  76.701  32.028  0.00  0.00    -0.255 NA
ATOM     26  C   LIG    1      -22.549  76.168  30.898  0.00  0.00    +0.111 A 
ATOM     27  C   LIG    1      -21.971  76.281  29.648  0.00  0.00    +0.020 A 
ATOM     28  C   LIG    1      -20.771  76.964  29.554  0.00  0.00    +0.004 A 
ATOM     29  C   LIG    1      -20.193  77.498  30.707  0.00  0.00    +0.028 A 
ENDBRANCH  22  24
ENDBRANCH  14  16
ENDBRANCH   4  12
BRANCH   1  30
ATOM     30  C   LIG    1      -26.196  83.753  37.184  0.00  0.00    +0.236 C 
ATOM     31  N   LIG    1      -26.559  84.381  36.126  0.00  0.00    -0.243 NA
BRANCH  30  32
ATOM     32  O   LIG    1      -26.902  83.727  38.339  0.00  0.00    -0.491 OA
ATOM     33  H   LIG    1      -26.285  83.595  39.083  0.00  0.00    +0.294 HD
ENDBRANCH  30  32
BRANCH  31  34
ATOM     34  C   LIG    1      -27.859  85.046  36.215  0.00  0.00    +0.201 C 
BRANCH  34  35
ATOM     35  C   LIG    1      -28.891  84.261  35.510  0.00  0.00    +0.077 A 
ATOM     36  N   LIG    1      -29.196  84.458  34.192  0.00  0.00    -0.260 N 
ATOM     37  H   LIG    1      -28.805  85.116  33.528  0.00  0.00    +0.190 HD
ATOM     38  N   LIG    1      -30.160  83.622  33.780  0.00  0.00    -0.068 NA
ATOM     39  N   LIG    1      -30.497  82.861  34.812  0.00  0.00    -0.138 NA
ATOM     40  C   LIG    1      -29.732  83.236  35.878  0.00  0.00    +0.161 A 
ENDBRANCH  34  35
ENDBRANCH  31  34
ENDBRANCH   1  30
TORSDOF 8
ENDMDL
