MODEL 1
REMARK VINA RESULT:      -6.9      0.000      0.000
REMARK  Name = pdb/CHEMBL1276446.pdb
REMARK                            x       y       z     vdW  Elec       q    Type
REMARK                         _______ _______ _______ _____ _____    ______ ____
ROOT
ATOM      1  C   LIG    1      -22.467  84.945  14.294  0.00  0.00    +0.078 C 
ATOM      2  N   LIG    1      -22.325  84.016  15.299  0.00  0.00    -0.363 N 
ATOM      3  H   LIG    1      -21.667  84.266  16.041  0.00  0.00    +0.165 HD
ENDROOT
BRANCH   1   6
ATOM      4  O   LIG    1      -22.045  86.906  16.546  0.00  0.00    -0.274 OA
ATOM      5  C   LIG    1      -21.948  87.166  15.367  0.00  0.00    +0.235 C 
ATOM      6  C   LIG    1      -22.127  86.233  14.196  0.00  0.00    +0.130 C 
ATOM      7  C   LIG    1      -21.848  87.063  12.980  0.00  0.00    +0.011 A 
ATOM      8  C   LIG    1      -21.809  86.899  11.632  0.00  0.00    +0.045 A 
ATOM      9  S   LIG    1      -22.209  85.445  10.918  0.00  0.00    -0.075 S 
ATOM     10  C   LIG    1      -21.907  86.179   9.386  0.00  0.00    +0.157 A 
ATOM     11  N   LIG    1      -21.517  87.442   9.408  0.00  0.00    -0.247 NA
ATOM     12  C   LIG    1      -21.470  87.879  10.719  0.00  0.00    +0.079 A 
ATOM     13  C   LIG    1      -21.136  89.159  11.218  0.00  0.00    +0.031 A 
ATOM     14  C   LIG    1      -21.182  89.432  12.602  0.00  0.00    +0.026 A 
ATOM     15  C   LIG    1      -21.538  88.375  13.429  0.00  0.00    +0.039 A 
ATOM     16  N   LIG    1      -21.637  88.420  14.802  0.00  0.00    -0.284 N 
ATOM     17  H   LIG    1      -21.478  89.238  15.370  0.00  0.00    +0.155 HD
ENDBRANCH   1   6
BRANCH   2  18
ATOM     18  C   LIG    1      -22.803  82.689  15.295  0.00  0.00    +0.039 A 
ATOM     19  C   LIG    1      -23.664  82.284  14.266  0.00  0.00    +0.027 A 
ATOM     20  C   LIG    1      -24.252  81.015  14.269  0.00  0.00    +0.031 A 
ATOM     21  C   LIG    1      -23.946  80.111  15.282  0.00  0.00    +0.109 A 
ATOM     22  C   LIG    1      -23.053  80.468  16.300  0.00  0.00    +0.031 A 
ATOM     23  C   LIG    1      -22.500  81.757  16.305  0.00  0.00    +0.027 A 
BRANCH  21  24
ATOM     24  S   LIG    1      -24.718  78.498  15.280  0.00  0.00    +0.073 S 
ATOM     25  O   LIG    1      -25.963  78.664  16.019  0.00  0.00    -0.150 OA
ATOM     26  O   LIG    1      -23.747  77.515  15.682  0.00  0.00    -0.150 OA
BRANCH  24  27
ATOM     27  N   LIG    1      -25.162  78.232  13.663  0.00  0.00    -0.199 N 
ATOM     28  H   LIG    1      -24.389  77.769  13.185  0.00  0.00    +0.175 HD
BRANCH  27  29
ATOM     29  C   LIG    1      -26.316  77.438  13.543  0.00  0.00    +0.138 A 
ATOM     30  N   LIG    1      -27.363  78.135  13.075  0.00  0.00    -0.239 NA
ATOM     31  C   LIG    1      -28.436  77.416  12.691  0.00  0.00    +0.113 A 
ATOM     32  C   LIG    1      -28.515  76.038  12.807  0.00  0.00    +0.020 A 
ATOM     33  C   LIG    1      -27.434  75.357  13.362  0.00  0.00    +0.005 A 
ATOM     34  C   LIG    1      -26.296  76.068  13.729  0.00  0.00    +0.045 A 
ENDBRANCH  27  29
ENDBRANCH  24  27
ENDBRANCH  21  24
ENDBRANCH   2  18
TORSDOF 5
ENDMDL
MODEL 2
REMARK VINA RESULT:      -6.3      3.511      4.531
REMARK  Name = pdb/CHEMBL1276446.pdb
REMARK                            x       y       z     vdW  Elec       q    Type
REMARK                         _______ _______ _______ _____ _____    ______ ____
ROOT
ATOM      1  C   LIG    1      -22.874  81.998  15.183  0.00  0.00    +0.078 C 
ATOM      2  N   LIG    1      -22.489  80.870  15.871  0.00  0.00    -0.363 N 
ATOM      3  H   LIG    1      -21.781  81.016  16.594  0.00  0.00    +0.165 HD
ENDROOT
BRANCH   1   6
ATOM      4  O   LIG    1      -22.645  83.358  17.866  0.00  0.00    -0.274 OA
ATOM      5  C   LIG    1      -22.625  83.921  16.794  0.00  0.00    +0.235 C 
ATOM      6  C   LIG    1      -22.716  83.303  15.422  0.00  0.00    +0.130 C 
ATOM      7  C   LIG    1      -22.595  84.447  14.461  0.00  0.00    +0.011 A 
ATOM      8  C   LIG    1      -22.580  84.640  13.116  0.00  0.00    +0.045 A 
ATOM      9  S   LIG    1      -22.803  83.375  12.051  0.00  0.00    -0.075 S 
ATOM     10  C   LIG    1      -22.657  84.512  10.761  0.00  0.00    +0.157 A 
ATOM     11  N   LIG    1      -22.442  85.769  11.108  0.00  0.00    -0.247 NA
ATOM     12  C   LIG    1      -22.409  85.858  12.488  0.00  0.00    +0.079 A 
ATOM     13  C   LIG    1      -22.235  87.002  13.301  0.00  0.00    +0.031 A 
ATOM     14  C   LIG    1      -22.271  86.903  14.708  0.00  0.00    +0.026 A 
ATOM     15  C   LIG    1      -22.450  85.630  15.234  0.00  0.00    +0.039 A 
ATOM     16  N   LIG    1      -22.507  85.309  16.572  0.00  0.00    -0.284 N 
ATOM     17  H   LIG    1      -22.442  85.968  17.332  0.00  0.00    +0.155 HD
ENDBRANCH   1   6
BRANCH   2  18
ATOM     18  C   LIG    1      -22.791  79.534  15.537  0.00  0.00    +0.039 A 
ATOM     19  C   LIG    1      -21.736  78.644  15.290  0.00  0.00    +0.027 A 
ATOM     20  C   LIG    1      -21.977  77.338  14.852  0.00  0.00    +0.031 A 
ATOM     21  C   LIG    1      -23.284  76.886  14.702  0.00  0.00    +0.109 A 
ATOM     22  C   LIG    1      -24.361  77.735  14.984  0.00  0.00    +0.031 A 
ATOM     23  C   LIG    1      -24.106  79.055  15.386  0.00  0.00    +0.027 A 
BRANCH  21  24
ATOM     24  S   LIG    1      -23.574  75.217  14.127  0.00  0.00    +0.073 S 
ATOM     25  O   LIG    1      -23.354  75.261  12.686  0.00  0.00    -0.150 OA
ATOM     26  O   LIG    1      -24.821  74.746  14.668  0.00  0.00    -0.150 OA
BRANCH  24  27
ATOM     27  N   LIG    1      -22.293  74.308  14.771  0.00  0.00    -0.199 N 
ATOM     28  H   LIG    1      -21.528  74.941  15.001  0.00  0.00    +0.175 HD
BRANCH  27  29
ATOM     29  C   LIG    1      -22.663  73.597  15.926  0.00  0.00    +0.138 A 
ATOM     30  N   LIG    1      -22.856  72.293  15.678  0.00  0.00    -0.239 NA
ATOM     31  C   LIG    1      -22.966  71.489  16.754  0.00  0.00    +0.113 A 
ATOM     32  C   LIG    1      -22.943  71.951  18.059  0.00  0.00    +0.020 A 
ATOM     33  C   LIG    1      -22.810  73.321  18.275  0.00  0.00    +0.005 A 
ATOM     34  C   LIG    1      -22.652  74.170  17.184  0.00  0.00    +0.045 A 
ENDBRANCH  27  29
ENDBRANCH  24  27
ENDBRANCH  21  24
ENDBRANCH   2  18
TORSDOF 5
ENDMDL
MODEL 3
REMARK VINA RESULT:      -6.2     18.590     21.501
REMARK  Name = pdb/CHEMBL1276446.pdb
REMARK                            x       y       z     vdW  Elec       q    Type
REMARK                         _______ _______ _______ _____ _____    ______ ____
ROOT
ATOM      1  C   LIG    1      -39.218  77.752  24.134  0.00  0.00    +0.078 C 
ATOM      2  N   LIG    1      -39.103  78.901  24.881  0.00  0.00    -0.363 N 
ATOM      3  H   LIG    1      -38.994  78.764  25.888  0.00  0.00    +0.165 HD
ENDROOT
BRANCH   1   6
ATOM      4  O   LIG    1      -36.730  76.605  25.396  0.00  0.00    -0.274 OA
ATOM      5  C   LIG    1      -37.683  75.959  25.021  0.00  0.00    +0.235 C 
ATOM      6  C   LIG    1      -38.960  76.468  24.401  0.00  0.00    +0.130 C 
ATOM      7  C   LIG    1      -39.806  75.251  24.175  0.00  0.00    +0.011 A 
ATOM      8  C   LIG    1      -41.036  74.954  23.682  0.00  0.00    +0.045 A 
ATOM      9  S   LIG    1      -42.028  76.133  23.042  0.00  0.00    -0.075 S 
ATOM     10  C   LIG    1      -43.188  74.898  22.713  0.00  0.00    +0.157 A 
ATOM     11  N   LIG    1      -42.855  73.671  23.073  0.00  0.00    -0.247 NA
ATOM     12  C   LIG    1      -41.589  73.689  23.629  0.00  0.00    +0.079 A 
ATOM     13  C   LIG    1      -40.820  72.611  24.125  0.00  0.00    +0.031 A 
ATOM     14  C   LIG    1      -39.516  72.820  24.625  0.00  0.00    +0.026 A 
ATOM     15  C   LIG    1      -39.059  74.132  24.629  0.00  0.00    +0.039 A 
ATOM     16  N   LIG    1      -37.829  74.557  25.077  0.00  0.00    -0.284 N 
ATOM     17  H   LIG    1      -37.103  73.959  25.442  0.00  0.00    +0.155 HD
ENDBRANCH   1   6
BRANCH   2  18
ATOM     18  C   LIG    1      -39.345  80.220  24.443  0.00  0.00    +0.039 A 
ATOM     19  C   LIG    1      -39.588  80.446  23.081  0.00  0.00    +0.027 A 
ATOM     20  C   LIG    1      -39.730  81.741  22.574  0.00  0.00    +0.031 A 
ATOM     21  C   LIG    1      -39.678  82.833  23.435  0.00  0.00    +0.109 A 
ATOM     22  C   LIG    1      -39.482  82.639  24.809  0.00  0.00    +0.031 A 
ATOM     23  C   LIG    1      -39.305  81.337  25.298  0.00  0.00    +0.027 A 
BRANCH  21  24
ATOM     24  S   LIG    1      -39.846  84.484  22.769  0.00  0.00    +0.073 S 
ATOM     25  O   LIG    1      -38.754  85.250  23.357  0.00  0.00    -0.150 OA
ATOM     26  O   LIG    1      -41.211  84.912  22.918  0.00  0.00    -0.150 OA
BRANCH  24  27
ATOM     27  N   LIG    1      -39.475  84.326  21.120  0.00  0.00    -0.199 N 
ATOM     28  H   LIG    1      -39.109  83.388  20.957  0.00  0.00    +0.175 HD
BRANCH  27  29
ATOM     29  C   LIG    1      -40.593  84.531  20.293  0.00  0.00    +0.138 A 
ATOM     30  N   LIG    1      -40.530  85.701  19.639  0.00  0.00    -0.239 NA
ATOM     31  C   LIG    1      -41.419  85.877  18.642  0.00  0.00    +0.113 A 
ATOM     32  C   LIG    1      -42.395  84.951  18.315  0.00  0.00    +0.020 A 
ATOM     33  C   LIG    1      -42.472  83.778  19.062  0.00  0.00    +0.005 A 
ATOM     34  C   LIG    1      -41.541  83.550  20.070  0.00  0.00    +0.045 A 
ENDBRANCH  27  29
ENDBRANCH  24  27
ENDBRANCH  21  24
ENDBRANCH   2  18
TORSDOF 5
ENDMDL
MODEL 4
REMARK VINA RESULT:      -6.2      2.741     10.528
REMARK  Name = pdb/CHEMBL1276446.pdb
REMARK                            x       y       z     vdW  Elec       q    Type
REMARK                         _______ _______ _______ _____ _____    ______ ____
ROOT
ATOM      1  C   LIG    1      -26.664  77.599  13.440  0.00  0.00    +0.078 C 
ATOM      2  N   LIG    1      -26.289  78.075  14.675  0.00  0.00    -0.363 N 
ATOM      3  H   LIG    1      -26.857  77.755  15.462  0.00  0.00    +0.165 HD
ENDROOT
BRANCH   1   6
ATOM      4  O   LIG    1      -26.743  74.797  14.555  0.00  0.00    -0.274 OA
ATOM      5  C   LIG    1      -27.435  75.208  13.651  0.00  0.00    +0.235 C 
ATOM      6  C   LIG    1      -27.460  76.595  13.060  0.00  0.00    +0.130 C 
ATOM      7  C   LIG    1      -28.528  76.561  12.008  0.00  0.00    +0.011 A 
ATOM      8  C   LIG    1      -29.091  77.413  11.113  0.00  0.00    +0.045 A 
ATOM      9  S   LIG    1      -28.541  78.978  10.933  0.00  0.00    -0.075 S 
ATOM     10  C   LIG    1      -29.732  79.194   9.702  0.00  0.00    +0.157 A 
ATOM     11  N   LIG    1      -30.505  78.153   9.447  0.00  0.00    -0.247 NA
ATOM     12  C   LIG    1      -30.129  77.099  10.258  0.00  0.00    +0.079 A 
ATOM     13  C   LIG    1      -30.655  75.787  10.312  0.00  0.00    +0.031 A 
ATOM     14  C   LIG    1      -30.110  74.823  11.188  0.00  0.00    +0.026 A 
ATOM     15  C   LIG    1      -29.067  75.247  12.001  0.00  0.00    +0.039 A 
ATOM     16  N   LIG    1      -28.400  74.476  12.926  0.00  0.00    -0.284 N 
ATOM     17  H   LIG    1      -28.581  73.502  13.112  0.00  0.00    +0.155 HD
ENDBRANCH   1   6
BRANCH   2  18
ATOM     18  C   LIG    1      -25.370  79.113  14.935  0.00  0.00    +0.039 A 
ATOM     19  C   LIG    1      -25.391  80.254  14.121  0.00  0.00    +0.027 A 
ATOM     20  C   LIG    1      -24.437  81.266  14.265  0.00  0.00    +0.031 A 
ATOM     21  C   LIG    1      -23.472  81.173  15.264  0.00  0.00    +0.109 A 
ATOM     22  C   LIG    1      -23.451  80.068  16.124  0.00  0.00    +0.031 A 
ATOM     23  C   LIG    1      -24.392  79.042  15.944  0.00  0.00    +0.027 A 
BRANCH  21  24
ATOM     24  S   LIG    1      -22.249  82.468  15.425  0.00  0.00    +0.073 S 
ATOM     25  O   LIG    1      -21.085  81.995  14.687  0.00  0.00    -0.150 OA
ATOM     26  O   LIG    1      -22.142  82.840  16.811  0.00  0.00    -0.150 OA
BRANCH  24  27
ATOM     27  N   LIG    1      -22.876  83.769  14.533  0.00  0.00    -0.199 N 
ATOM     28  H   LIG    1      -23.838  83.935  14.830  0.00  0.00    +0.175 HD
BRANCH  27  29
ATOM     29  C   LIG    1      -22.134  84.951  14.707  0.00  0.00    +0.138 A 
ATOM     30  N   LIG    1      -21.105  85.033  13.850  0.00  0.00    -0.239 NA
ATOM     31  C   LIG    1      -20.490  86.228  13.767  0.00  0.00    +0.113 A 
ATOM     32  C   LIG    1      -20.833  87.321  14.545  0.00  0.00    +0.020 A 
ATOM     33  C   LIG    1      -21.862  87.176  15.472  0.00  0.00    +0.005 A 
ATOM     34  C   LIG    1      -22.543  85.966  15.551  0.00  0.00    +0.045 A 
ENDBRANCH  27  29
ENDBRANCH  24  27
ENDBRANCH  21  24
ENDBRANCH   2  18
TORSDOF 5
ENDMDL
MODEL 5
REMARK VINA RESULT:      -6.1      4.118     10.181
REMARK  Name = pdb/CHEMBL1276446.pdb
REMARK                            x       y       z     vdW  Elec       q    Type
REMARK                         _______ _______ _______ _____ _____    ______ ____
ROOT
ATOM      1  C   LIG    1      -22.499  84.627  14.351  0.00  0.00    +0.078 C 
ATOM      2  N   LIG    1      -22.981  85.915  14.400  0.00  0.00    -0.363 N 
ATOM      3  H   LIG    1      -23.592  86.127  15.191  0.00  0.00    +0.165 HD
ENDROOT
BRANCH   1   6
ATOM      4  O   LIG    1      -23.023  84.835  17.315  0.00  0.00    -0.274 OA
ATOM      5  C   LIG    1      -22.701  83.823  16.732  0.00  0.00    +0.235 C 
ATOM      6  C   LIG    1      -22.443  83.646  15.256  0.00  0.00    +0.130 C 
ATOM      7  C   LIG    1      -22.126  82.192  15.079  0.00  0.00    +0.011 A 
ATOM      8  C   LIG    1      -21.813  81.343  14.066  0.00  0.00    +0.045 A 
ATOM      9  S   LIG    1      -21.623  81.886  12.500  0.00  0.00    -0.075 S 
ATOM     10  C   LIG    1      -21.261  80.262  12.042  0.00  0.00    +0.157 A 
ATOM     11  N   LIG    1      -21.291  79.360  13.007  0.00  0.00    -0.247 NA
ATOM     12  C   LIG    1      -21.600  79.985  14.201  0.00  0.00    +0.079 A 
ATOM     13  C   LIG    1      -21.714  79.425  15.495  0.00  0.00    +0.031 A 
ATOM     14  C   LIG    1      -22.002  80.236  16.613  0.00  0.00    +0.026 A 
ATOM     15  C   LIG    1      -22.195  81.588  16.363  0.00  0.00    +0.039 A 
ATOM     16  N   LIG    1      -22.491  82.550  17.302  0.00  0.00    -0.284 N 
ATOM     17  H   LIG    1      -22.586  82.386  18.293  0.00  0.00    +0.155 HD
ENDBRANCH   1   6
BRANCH   2  18
ATOM     18  C   LIG    1      -22.909  86.882  13.376  0.00  0.00    +0.039 A 
ATOM     19  C   LIG    1      -22.110  88.017  13.572  0.00  0.00    +0.027 A 
ATOM     20  C   LIG    1      -22.084  89.057  12.637  0.00  0.00    +0.031 A 
ATOM     21  C   LIG    1      -22.823  88.953  11.463  0.00  0.00    +0.109 A 
ATOM     22  C   LIG    1      -23.596  87.811  11.214  0.00  0.00    +0.031 A 
ATOM     23  C   LIG    1      -23.643  86.793  12.178  0.00  0.00    +0.027 A 
BRANCH  21  24
ATOM     24  S   LIG    1      -22.790  90.297  10.284  0.00  0.00    +0.073 S 
ATOM     25  O   LIG    1      -22.321  89.707   9.037  0.00  0.00    -0.150 OA
ATOM     26  O   LIG    1      -22.107  91.419  10.872  0.00  0.00    -0.150 OA
BRANCH  24  27
ATOM     27  N   LIG    1      -24.422  90.692  10.032  0.00  0.00    -0.199 N 
ATOM     28  H   LIG    1      -24.963  89.829   9.988  0.00  0.00    +0.175 HD
BRANCH  27  29
ATOM     29  C   LIG    1      -24.944  91.508  11.052  0.00  0.00    +0.138 A 
ATOM     30  N   LIG    1      -24.879  92.812  10.741  0.00  0.00    -0.239 NA
ATOM     31  C   LIG    1      -25.573  93.651  11.533  0.00  0.00    +0.113 A 
ATOM     32  C   LIG    1      -26.283  93.239  12.648  0.00  0.00    +0.020 A 
ATOM     33  C   LIG    1      -26.271  91.885  12.978  0.00  0.00    +0.005 A 
ATOM     34  C   LIG    1      -25.596  90.990  12.155  0.00  0.00    +0.045 A 
ENDBRANCH  27  29
ENDBRANCH  24  27
ENDBRANCH  21  24
ENDBRANCH   2  18
TORSDOF 5
ENDMDL
MODEL 6
REMARK VINA RESULT:      -6.1     18.175     20.269
REMARK  Name = pdb/CHEMBL1276446.pdb
REMARK                            x       y       z     vdW  Elec       q    Type
REMARK                         _______ _______ _______ _____ _____    ______ ____
ROOT
ATOM      1  C   LIG    1      -36.252  85.995  25.616  0.00  0.00    +0.078 C 
ATOM      2  N   LIG    1      -35.924  86.786  26.693  0.00  0.00    -0.363 N 
ATOM      3  H   LIG    1      -36.147  87.779  26.594  0.00  0.00    +0.165 HD
ENDROOT
BRANCH   1   6
ATOM      4  O   LIG    1      -36.398  88.448  23.867  0.00  0.00    -0.274 OA
ATOM      5  C   LIG    1      -37.076  87.454  23.732  0.00  0.00    +0.235 C 
ATOM      6  C   LIG    1      -37.041  86.191  24.555  0.00  0.00    +0.130 C 
ATOM      7  C   LIG    1      -38.049  85.277  23.926  0.00  0.00    +0.011 A 
ATOM      8  C   LIG    1      -38.531  84.021  24.116  0.00  0.00    +0.045 A 
ATOM      9  S   LIG    1      -38.028  83.078  25.397  0.00  0.00    -0.075 S 
ATOM     10  C   LIG    1      -39.100  81.848  24.838  0.00  0.00    +0.157 A 
ATOM     11  N   LIG    1      -39.790  82.124  23.745  0.00  0.00    -0.247 NA
ATOM     12  C   LIG    1      -39.475  83.402  23.321  0.00  0.00    +0.079 A 
ATOM     13  C   LIG    1      -39.986  84.124  22.218  0.00  0.00    +0.031 A 
ATOM     14  C   LIG    1      -39.569  85.448  21.963  0.00  0.00    +0.026 A 
ATOM     15  C   LIG    1      -38.618  85.974  22.827  0.00  0.00    +0.039 A 
ATOM     16  N   LIG    1      -38.071  87.235  22.756  0.00  0.00    -0.284 N 
ATOM     17  H   LIG    1      -38.312  87.937  22.072  0.00  0.00    +0.155 HD
ENDBRANCH   1   6
BRANCH   2  18
ATOM     18  C   LIG    1      -35.124  86.421  27.795  0.00  0.00    +0.039 A 
ATOM     19  C   LIG    1      -34.199  87.348  28.296  0.00  0.00    +0.027 A 
ATOM     20  C   LIG    1      -33.308  87.004  29.318  0.00  0.00    +0.031 A 
ATOM     21  C   LIG    1      -33.362  85.736  29.888  0.00  0.00    +0.109 A 
ATOM     22  C   LIG    1      -34.305  84.801  29.442  0.00  0.00    +0.031 A 
ATOM     23  C   LIG    1      -35.168  85.147  28.391  0.00  0.00    +0.027 A 
BRANCH  21  24
ATOM     24  S   LIG    1      -32.205  85.307  31.183  0.00  0.00    +0.073 S 
ATOM     25  O   LIG    1      -30.893  85.323  30.549  0.00  0.00    -0.150 OA
ATOM     26  O   LIG    1      -32.681  84.133  31.865  0.00  0.00    -0.150 OA
BRANCH  24  27
ATOM     27  N   LIG    1      -32.231  86.633  32.244  0.00  0.00    -0.199 N 
ATOM     28  H   LIG    1      -32.836  86.407  33.033  0.00  0.00    +0.175 HD
BRANCH  27  29
ATOM     29  C   LIG    1      -30.953  86.963  32.727  0.00  0.00    +0.138 A 
ATOM     30  N   LIG    1      -30.482  88.094  32.179  0.00  0.00    -0.239 NA
ATOM     31  C   LIG    1      -29.386  88.625  32.755  0.00  0.00    +0.113 A 
ATOM     32  C   LIG    1      -28.720  88.040  33.818  0.00  0.00    +0.020 A 
ATOM     33  C   LIG    1      -29.200  86.830  34.315  0.00  0.00    +0.005 A 
ATOM     34  C   LIG    1      -30.354  86.278  33.767  0.00  0.00    +0.045 A 
ENDBRANCH  27  29
ENDBRANCH  24  27
ENDBRANCH  21  24
ENDBRANCH   2  18
TORSDOF 5
ENDMDL
MODEL 7
REMARK VINA RESULT:      -6.1     19.908     23.552
REMARK  Name = pdb/CHEMBL1276446.pdb
REMARK                            x       y       z     vdW  Elec       q    Type
REMARK                         _______ _______ _______ _____ _____    ______ ____
ROOT
ATOM      1  C   LIG    1      -20.855  78.900  33.758  0.00  0.00    +0.078 C 
ATOM      2  N   LIG    1      -20.179  79.848  34.492  0.00  0.00    -0.363 N 
ATOM      3  H   LIG    1      -19.199  79.987  34.236  0.00  0.00    +0.165 HD
ENDROOT
BRANCH   1   6
ATOM      4  O   LIG    1      -18.147  78.437  32.512  0.00  0.00    -0.274 OA
ATOM      5  C   LIG    1      -19.205  78.108  32.024  0.00  0.00    +0.235 C 
ATOM      6  C   LIG    1      -20.587  78.291  32.599  0.00  0.00    +0.130 C 
ATOM      7  C   LIG    1      -21.518  77.664  31.606  0.00  0.00    +0.011 A 
ATOM      8  C   LIG    1      -22.853  77.452  31.467  0.00  0.00    +0.045 A 
ATOM      9  S   LIG    1      -23.949  78.027  32.586  0.00  0.00    -0.075 S 
ATOM     10  C   LIG    1      -25.206  77.347  31.618  0.00  0.00    +0.157 A 
ATOM     11  N   LIG    1      -24.825  76.716  30.521  0.00  0.00    -0.247 NA
ATOM     12  C   LIG    1      -23.447  76.783  30.416  0.00  0.00    +0.079 A 
ATOM     13  C   LIG    1      -22.608  76.274  29.397  0.00  0.00    +0.031 A 
ATOM     14  C   LIG    1      -21.212  76.476  29.440  0.00  0.00    +0.026 A 
ATOM     15  C   LIG    1      -20.721  77.164  30.542  0.00  0.00    +0.039 A 
ATOM     16  N   LIG    1      -19.399  77.463  30.785  0.00  0.00    -0.284 N 
ATOM     17  H   LIG    1      -18.629  77.229  30.178  0.00  0.00    +0.155 HD
ENDBRANCH   1   6
BRANCH   2  18
ATOM     18  C   LIG    1      -20.619  80.465  35.681  0.00  0.00    +0.039 A 
ATOM     19  C   LIG    1      -21.749  81.294  35.634  0.00  0.00    +0.027 A 
ATOM     20  C   LIG    1      -22.168  82.015  36.757  0.00  0.00    +0.031 A 
ATOM     21  C   LIG    1      -21.487  81.878  37.962  0.00  0.00    +0.109 A 
ATOM     22  C   LIG    1      -20.381  81.023  38.055  0.00  0.00    +0.031 A 
ATOM     23  C   LIG    1      -19.949  80.335  36.912  0.00  0.00    +0.027 A 
BRANCH  21  24
ATOM     24  S   LIG    1      -22.026  82.818  39.385  0.00  0.00    +0.073 S 
ATOM     25  O   LIG    1      -22.724  81.864  40.237  0.00  0.00    -0.150 OA
ATOM     26  O   LIG    1      -22.678  84.018  38.933  0.00  0.00    -0.150 OA
BRANCH  24  27
ATOM     27  N   LIG    1      -20.595  83.222  40.205  0.00  0.00    -0.199 N 
ATOM     28  H   LIG    1      -19.927  82.460  40.089  0.00  0.00    +0.175 HD
BRANCH  27  29
ATOM     29  C   LIG    1      -20.018  84.413  39.730  0.00  0.00    +0.138 A 
ATOM     30  N   LIG    1      -20.293  85.460  40.522  0.00  0.00    -0.239 NA
ATOM     31  C   LIG    1      -19.586  86.584  40.294  0.00  0.00    +0.113 A 
ATOM     32  C   LIG    1      -18.659  86.711  39.274  0.00  0.00    +0.020 A 
ATOM     33  C   LIG    1      -18.451  85.623  38.429  0.00  0.00    +0.005 A 
ATOM     34  C   LIG    1      -19.136  84.436  38.665  0.00  0.00    +0.045 A 
ENDBRANCH  27  29
ENDBRANCH  24  27
ENDBRANCH  21  24
ENDBRANCH   2  18
TORSDOF 5
ENDMDL
MODEL 8
REMARK VINA RESULT:      -6.1     22.011     24.582
REMARK  Name = pdb/CHEMBL1276446.pdb
REMARK                            x       y       z     vdW  Elec       q    Type
REMARK                         _______ _______ _______ _____ _____    ______ ____
ROOT
ATOM      1  C   LIG    1      -26.946  88.720  35.246  0.00  0.00    +0.078 C 
ATOM      2  N   LIG    1      -26.142  88.890  36.350  0.00  0.00    -0.363 N 
ATOM      3  H   LIG    1      -26.367  88.300  37.154  0.00  0.00    +0.165 HD
ENDROOT
BRANCH   1   6
ATOM      4  O   LIG    1      -26.730  85.762  35.798  0.00  0.00    -0.274 OA
ATOM      5  C   LIG    1      -27.630  86.294  35.186  0.00  0.00    +0.235 C 
ATOM      6  C   LIG    1      -27.808  87.763  34.893  0.00  0.00    +0.130 C 
ATOM      7  C   LIG    1      -29.107  87.866  34.151  0.00  0.00    +0.011 A 
ATOM      8  C   LIG    1      -29.881  88.836  33.600  0.00  0.00    +0.045 A 
ATOM      9  S   LIG    1      -29.400  90.434  33.589  0.00  0.00    -0.075 S 
ATOM     10  C   LIG    1      -30.864  90.808  32.754  0.00  0.00    +0.157 A 
ATOM     11  N   LIG    1      -31.673  89.794  32.506  0.00  0.00    -0.247 NA
ATOM     12  C   LIG    1      -31.100  88.630  32.986  0.00  0.00    +0.079 A 
ATOM     13  C   LIG    1      -31.590  87.305  32.920  0.00  0.00    +0.031 A 
ATOM     14  C   LIG    1      -30.839  86.228  33.435  0.00  0.00    +0.026 A 
ATOM     15  C   LIG    1      -29.625  86.549  34.029  0.00  0.00    +0.039 A 
ATOM     16  N   LIG    1      -28.743  85.658  34.599  0.00  0.00    -0.284 N 
ATOM     17  H   LIG    1      -28.869  84.658  34.636  0.00  0.00    +0.155 HD
ENDBRANCH   1   6
BRANCH   2  18
ATOM     18  C   LIG    1      -25.212  89.928  36.564  0.00  0.00    +0.039 A 
ATOM     19  C   LIG    1      -25.244  91.050  35.723  0.00  0.00    +0.027 A 
ATOM     20  C   LIG    1      -24.281  92.058  35.821  0.00  0.00    +0.031 A 
ATOM     21  C   LIG    1      -23.294  91.983  36.799  0.00  0.00    +0.109 A 
ATOM     22  C   LIG    1      -23.260  90.899  37.685  0.00  0.00    +0.031 A 
ATOM     23  C   LIG    1      -24.210  89.875  37.552  0.00  0.00    +0.027 A 
BRANCH  21  24
ATOM     24  S   LIG    1      -22.061  93.274  36.902  0.00  0.00    +0.073 S 
ATOM     25  O   LIG    1      -21.134  92.841  37.940  0.00  0.00    -0.150 OA
ATOM     26  O   LIG    1      -22.723  94.548  36.989  0.00  0.00    -0.150 OA
BRANCH  24  27
ATOM     27  N   LIG    1      -21.207  93.174  35.438  0.00  0.00    -0.199 N 
ATOM     28  H   LIG    1      -20.767  94.075  35.255  0.00  0.00    +0.175 HD
BRANCH  27  29
ATOM     29  C   LIG    1      -20.217  92.176  35.457  0.00  0.00    +0.138 A 
ATOM     30  N   LIG    1      -19.034  92.645  35.882  0.00  0.00    -0.239 NA
ATOM     31  C   LIG    1      -18.095  91.724  36.173  0.00  0.00    +0.113 A 
ATOM     32  C   LIG    1      -18.281  90.362  36.004  0.00  0.00    +0.020 A 
ATOM     33  C   LIG    1      -19.499  89.919  35.495  0.00  0.00    +0.005 A 
ATOM     34  C   LIG    1      -20.502  90.844  35.224  0.00  0.00    +0.045 A 
ENDBRANCH  27  29
ENDBRANCH  24  27
ENDBRANCH  21  24
ENDBRANCH   2  18
TORSDOF 5
ENDMDL
MODEL 9
REMARK VINA RESULT:      -6.1     18.672     20.337
REMARK  Name = pdb/CHEMBL1276446.pdb
REMARK                            x       y       z     vdW  Elec       q    Type
REMARK                         _______ _______ _______ _____ _____    ______ ____
ROOT
ATOM      1  C   LIG    1      -30.676  88.871  32.338  0.00  0.00    +0.078 C 
ATOM      2  N   LIG    1      -31.054  89.000  31.021  0.00  0.00    -0.363 N 
ATOM      3  H   LIG    1      -30.812  89.889  30.579  0.00  0.00    +0.165 HD
ENDROOT
BRANCH   1   6
ATOM      4  O   LIG    1      -30.373  91.867  32.521  0.00  0.00    -0.274 OA
ATOM      5  C   LIG    1      -29.713  91.060  33.138  0.00  0.00    +0.235 C 
ATOM      6  C   LIG    1      -29.825  89.556  33.107  0.00  0.00    +0.130 C 
ATOM      7  C   LIG    1      -28.805  89.061  34.089  0.00  0.00    +0.011 A 
ATOM      8  C   LIG    1      -28.365  87.872  34.574  0.00  0.00    +0.045 A 
ATOM      9  S   LIG    1      -28.961  86.422  34.003  0.00  0.00    -0.075 S 
ATOM     10  C   LIG    1      -27.889  85.619  35.091  0.00  0.00    +0.157 A 
ATOM     11  N   LIG    1      -27.133  86.394  35.848  0.00  0.00    -0.247 NA
ATOM     12  C   LIG    1      -27.394  87.718  35.544  0.00  0.00    +0.079 A 
ATOM     13  C   LIG    1      -26.804  88.886  36.080  0.00  0.00    +0.031 A 
ATOM     14  C   LIG    1      -27.174  90.165  35.611  0.00  0.00    +0.026 A 
ATOM     15  C   LIG    1      -28.159  90.203  34.633  0.00  0.00    +0.039 A 
ATOM     16  N   LIG    1      -28.671  91.339  34.046  0.00  0.00    -0.284 N 
ATOM     17  H   LIG    1      -28.376  92.282  34.247  0.00  0.00    +0.155 HD
ENDBRANCH   1   6
BRANCH   2  18
ATOM     18  C   LIG    1      -31.921  88.149  30.306  0.00  0.00    +0.039 A 
ATOM     19  C   LIG    1      -32.820  88.714  29.390  0.00  0.00    +0.027 A 
ATOM     20  C   LIG    1      -33.773  87.931  28.731  0.00  0.00    +0.031 A 
ATOM     21  C   LIG    1      -33.809  86.556  28.944  0.00  0.00    +0.109 A 
ATOM     22  C   LIG    1      -32.895  85.953  29.818  0.00  0.00    +0.031 A 
ATOM     23  C   LIG    1      -31.969  86.756  30.500  0.00  0.00    +0.027 A 
BRANCH  21  24
ATOM     24  S   LIG    1      -35.044  85.571  28.105  0.00  0.00    +0.073 S 
ATOM     25  O   LIG    1      -36.260  86.375  28.128  0.00  0.00    -0.150 OA
ATOM     26  O   LIG    1      -35.029  84.240  28.650  0.00  0.00    -0.150 OA
BRANCH  24  27
ATOM     27  N   LIG    1      -34.538  85.529  26.485  0.00  0.00    -0.199 N 
ATOM     28  H   LIG    1      -33.787  84.845  26.396  0.00  0.00    +0.175 HD
BRANCH  27  29
ATOM     29  C   LIG    1      -35.578  85.187  25.603  0.00  0.00    +0.138 A 
ATOM     30  N   LIG    1      -35.807  83.865  25.581  0.00  0.00    -0.239 NA
ATOM     31  C   LIG    1      -36.937  83.464  24.965  0.00  0.00    +0.113 A 
ATOM     32  C   LIG    1      -37.811  84.331  24.331  0.00  0.00    +0.020 A 
ATOM     33  C   LIG    1      -37.502  85.689  24.317  0.00  0.00    +0.005 A 
ATOM     34  C   LIG    1      -36.364  86.137  24.980  0.00  0.00    +0.045 A 
ENDBRANCH  27  29
ENDBRANCH  24  27
ENDBRANCH  21  24
ENDBRANCH   2  18
TORSDOF 5
ENDMDL
