MODEL 1
REMARK VINA RESULT:      -5.8      0.000      0.000
REMARK  Name = pdb/CHEMBL1774056.pdb
REMARK                            x       y       z     vdW  Elec       q    Type
REMARK                         _______ _______ _______ _____ _____    ______ ____
ROOT
ATOM      1  C   LIG    1      -20.537  77.985  31.851  0.00  0.00    +0.139 A 
ATOM      2  C   LIG    1      -19.617  77.227  31.111  0.00  0.00    +0.094 A 
ATOM      3  C   LIG    1      -20.039  76.577  29.947  0.00  0.00    +0.064 A 
ATOM      4  C   LIG    1      -21.352  76.716  29.538  0.00  0.00    +0.165 A 
ATOM      5  F   LIG    1      -21.757  76.090  28.422  0.00  0.00    -0.202 F 
ATOM      6  C   LIG    1      -22.236  77.484  30.292  0.00  0.00    +0.162 A 
ATOM      7  N   LIG    1      -21.819  78.099  31.431  0.00  0.00    -0.213 NA
ENDROOT
BRANCH   1   8
ATOM      8  N   LIG    1      -20.139  78.716  32.965  0.00  0.00    -0.320 N 
ATOM      9  H   LIG    1      -19.148  78.938  32.998  0.00  0.00    +0.148 HD
BRANCH   8  11
ATOM     10  C   LIG    1      -19.531  77.992  35.247  0.00  0.00    +0.034 C 
ATOM     11  C   LIG    1      -20.671  78.393  34.300  0.00  0.00    +0.117 C 
BRANCH  11  12
ATOM     12  C   LIG    1      -21.411  79.612  34.866  0.00  0.00    +0.061 A 
ATOM     13  N   LIG    1      -22.770  79.645  34.767  0.00  0.00    -0.255 NA
ATOM     14  C   LIG    1      -23.401  80.754  35.230  0.00  0.00    +0.149 A 
ATOM     15  C   LIG    1      -22.745  81.839  35.783  0.00  0.00    +0.141 A 
ATOM     16  F   LIG    1      -23.425  82.919  36.189  0.00  0.00    -0.204 F 
ATOM     17  C   LIG    1      -21.366  81.797  35.898  0.00  0.00    +0.042 A 
ATOM     18  C   LIG    1      -20.686  80.667  35.439  0.00  0.00    +0.028 A 
ENDBRANCH  11  12
ENDBRANCH   8  11
ENDBRANCH   1   8
BRANCH   2  19
ATOM     19  C   LIG    1      -18.248  77.086  31.487  0.00  0.00    +0.103 C 
ATOM     20  N   LIG    1      -17.140  77.038  31.848  0.00  0.00    -0.191 NA
ENDBRANCH   2  19
BRANCH   6  21
ATOM     21  N   LIG    1      -23.588  77.539  29.902  0.00  0.00    -0.281 N 
ATOM     22  H   LIG    1      -23.744  78.128  29.093  0.00  0.00    +0.155 HD
BRANCH  21  23
ATOM     23  C   LIG    1      -24.692  77.136  30.563  0.00  0.00    +0.146 A 
ATOM     24  N   LIG    1      -25.785  77.892  30.701  0.00  0.00    -0.158 NA
ATOM     25  N   LIG    1      -26.656  77.105  31.358  0.00  0.00    -0.280 N 
ATOM     26  H   LIG    1      -27.578  77.478  31.565  0.00  0.00    +0.189 HD
ATOM     27  C   LIG    1      -26.155  75.872  31.667  0.00  0.00    +0.035 A 
ATOM     28  C   LIG    1      -26.908  74.833  32.396  0.00  0.00    +0.065 C 
ATOM     29  C   LIG    1      -24.881  75.867  31.152  0.00  0.00    +0.068 A 
ENDBRANCH  21  23
ENDBRANCH   6  21
TORSDOF 6
ENDMDL
MODEL 2
REMARK VINA RESULT:      -5.8      2.627      6.651
REMARK  Name = pdb/CHEMBL1774056.pdb
REMARK                            x       y       z     vdW  Elec       q    Type
REMARK                         _______ _______ _______ _____ _____    ______ ____
ROOT
ATOM      1  C   LIG    1      -22.447  77.579  32.196  0.00  0.00    +0.139 A 
ATOM      2  C   LIG    1      -21.394  77.546  31.270  0.00  0.00    +0.094 A 
ATOM      3  C   LIG    1      -20.171  78.138  31.597  0.00  0.00    +0.064 A 
ATOM      4  C   LIG    1      -20.019  78.725  32.840  0.00  0.00    +0.165 A 
ATOM      5  F   LIG    1      -18.845  79.295  33.153  0.00  0.00    -0.202 F 
ATOM      6  C   LIG    1      -21.084  78.730  33.738  0.00  0.00    +0.162 A 
ATOM      7  N   LIG    1      -22.273  78.166  33.403  0.00  0.00    -0.213 NA
ENDROOT
BRANCH   1   8
ATOM      8  N   LIG    1      -23.650  76.928  31.944  0.00  0.00    -0.320 N 
ATOM      9  H   LIG    1      -23.579  76.126  31.323  0.00  0.00    +0.148 HD
BRANCH   8  11
ATOM     10  C   LIG    1      -24.841  78.344  30.307  0.00  0.00    +0.034 C 
ATOM     11  C   LIG    1      -24.881  77.699  31.700  0.00  0.00    +0.117 C 
BRANCH  11  12
ATOM     12  C   LIG    1      -26.098  76.770  31.806  0.00  0.00    +0.061 A 
ATOM     13  N   LIG    1      -27.341  77.320  31.698  0.00  0.00    -0.255 NA
ATOM     14  C   LIG    1      -28.403  76.487  31.843  0.00  0.00    +0.149 A 
ATOM     15  C   LIG    1      -28.291  75.132  32.097  0.00  0.00    +0.141 A 
ATOM     16  F   LIG    1      -29.381  74.373  32.265  0.00  0.00    -0.204 F 
ATOM     17  C   LIG    1      -27.028  74.573  32.190  0.00  0.00    +0.042 A 
ATOM     18  C   LIG    1      -25.913  75.399  32.038  0.00  0.00    +0.028 A 
ENDBRANCH  11  12
ENDBRANCH   8  11
ENDBRANCH   1   8
BRANCH   2  19
ATOM     19  C   LIG    1      -21.505  76.925  29.990  0.00  0.00    +0.103 C 
ATOM     20  N   LIG    1      -21.681  76.434  28.947  0.00  0.00    -0.191 NA
ENDBRANCH   2  19
BRANCH   6  21
ATOM     21  N   LIG    1      -20.932  79.409  34.964  0.00  0.00    -0.281 N 
ATOM     22  H   LIG    1      -20.440  78.864  35.661  0.00  0.00    +0.155 HD
BRANCH  21  23
ATOM     23  C   LIG    1      -21.531  80.534  35.404  0.00  0.00    +0.146 A 
ATOM     24  N   LIG    1      -20.929  81.726  35.431  0.00  0.00    -0.158 NA
ATOM     25  N   LIG    1      -21.878  82.572  35.870  0.00  0.00    -0.280 N 
ATOM     26  H   LIG    1      -21.641  83.555  35.960  0.00  0.00    +0.189 HD
ATOM     27  C   LIG    1      -23.069  81.962  36.147  0.00  0.00    +0.035 A 
ATOM     28  C   LIG    1      -24.261  82.669  36.655  0.00  0.00    +0.065 C 
ATOM     29  C   LIG    1      -22.869  80.637  35.843  0.00  0.00    +0.068 A 
ENDBRANCH  21  23
ENDBRANCH   6  21
TORSDOF 6
ENDMDL
MODEL 3
REMARK VINA RESULT:      -5.7     17.035     19.298
REMARK  Name = pdb/CHEMBL1774056.pdb
REMARK                            x       y       z     vdW  Elec       q    Type
REMARK                         _______ _______ _______ _____ _____    ______ ____
ROOT
ATOM      1  C   LIG    1      -24.024  81.463  14.482  0.00  0.00    +0.139 A 
ATOM      2  C   LIG    1      -23.352  81.054  15.644  0.00  0.00    +0.094 A 
ATOM      3  C   LIG    1      -23.288  79.694  15.959  0.00  0.00    +0.064 A 
ATOM      4  C   LIG    1      -23.870  78.777  15.103  0.00  0.00    +0.165 A 
ATOM      5  F   LIG    1      -23.809  77.471  15.407  0.00  0.00    -0.202 F 
ATOM      6  C   LIG    1      -24.520  79.219  13.952  0.00  0.00    +0.162 A 
ATOM      7  N   LIG    1      -24.590  80.545  13.664  0.00  0.00    -0.213 NA
ENDROOT
BRANCH   1   8
ATOM      8  N   LIG    1      -24.037  82.797  14.087  0.00  0.00    -0.320 N 
ATOM      9  H   LIG    1      -24.943  83.143  13.782  0.00  0.00    +0.148 HD
BRANCH   8  11
ATOM     10  C   LIG    1      -23.251  83.183  11.778  0.00  0.00    +0.034 C 
ATOM     11  C   LIG    1      -22.940  83.346  13.272  0.00  0.00    +0.117 C 
BRANCH  11  12
ATOM     12  C   LIG    1      -22.750  84.833  13.604  0.00  0.00    +0.061 A 
ATOM     13  N   LIG    1      -22.382  85.168  14.873  0.00  0.00    -0.255 NA
ATOM     14  C   LIG    1      -22.266  86.491  15.158  0.00  0.00    +0.149 A 
ATOM     15  C   LIG    1      -22.505  87.499  14.242  0.00  0.00    +0.141 A 
ATOM     16  F   LIG    1      -22.408  88.787  14.598  0.00  0.00    -0.204 F 
ATOM     17  C   LIG    1      -22.863  87.156  12.950  0.00  0.00    +0.042 A 
ATOM     18  C   LIG    1      -22.983  85.804  12.621  0.00  0.00    +0.028 A 
ENDBRANCH  11  12
ENDBRANCH   8  11
ENDBRANCH   1   8
BRANCH   2  19
ATOM     19  C   LIG    1      -22.716  81.970  16.534  0.00  0.00    +0.103 C 
ATOM     20  N   LIG    1      -22.268  82.718  17.308  0.00  0.00    -0.191 NA
ENDBRANCH   2  19
BRANCH   6  21
ATOM     21  N   LIG    1      -25.179  78.273  13.142  0.00  0.00    -0.281 N 
ATOM     22  H   LIG    1      -24.570  77.849  12.452  0.00  0.00    +0.155 HD
BRANCH  21  23
ATOM     23  C   LIG    1      -26.498  78.036  12.995  0.00  0.00    +0.146 A 
ATOM     24  N   LIG    1      -27.188  77.204  13.780  0.00  0.00    -0.158 NA
ATOM     25  N   LIG    1      -28.456  77.304  13.342  0.00  0.00    -0.280 N 
ATOM     26  H   LIG    1      -29.170  76.756  13.811  0.00  0.00    +0.189 HD
ATOM     27  C   LIG    1      -28.604  78.158  12.287  0.00  0.00    +0.035 A 
ATOM     28  C   LIG    1      -29.892  78.429  11.618  0.00  0.00    +0.065 C 
ATOM     29  C   LIG    1      -27.345  78.653  12.048  0.00  0.00    +0.068 A 
ENDBRANCH  21  23
ENDBRANCH   6  21
TORSDOF 6
ENDMDL
MODEL 4
REMARK VINA RESULT:      -5.6     13.576     17.487
REMARK  Name = pdb/CHEMBL1774056.pdb
REMARK                            x       y       z     vdW  Elec       q    Type
REMARK                         _______ _______ _______ _____ _____    ______ ____
ROOT
ATOM      1  C   LIG    1      -38.027  76.232  25.100  0.00  0.00    +0.139 A 
ATOM      2  C   LIG    1      -38.699  75.059  24.724  0.00  0.00    +0.094 A 
ATOM      3  C   LIG    1      -39.927  75.152  24.064  0.00  0.00    +0.064 A 
ATOM      4  C   LIG    1      -40.443  76.402  23.774  0.00  0.00    +0.165 A 
ATOM      5  F   LIG    1      -41.623  76.490  23.142  0.00  0.00    -0.202 F 
ATOM      6  C   LIG    1      -39.743  77.545  24.153  0.00  0.00    +0.162 A 
ATOM      7  N   LIG    1      -38.557  77.443  24.809  0.00  0.00    -0.213 NA
ENDROOT
BRANCH   1   8
ATOM      8  N   LIG    1      -36.764  76.185  25.681  0.00  0.00    -0.320 N 
ATOM      9  H   LIG    1      -36.172  75.425  25.355  0.00  0.00    +0.148 HD
BRANCH   8  11
ATOM     10  C   LIG    1      -36.677  75.106  27.901  0.00  0.00    +0.034 C 
ATOM     11  C   LIG    1      -36.595  76.427  27.124  0.00  0.00    +0.117 C 
BRANCH  11  12
ATOM     12  C   LIG    1      -35.237  77.095  27.376  0.00  0.00    +0.061 A 
ATOM     13  N   LIG    1      -35.218  78.424  27.678  0.00  0.00    -0.255 NA
ATOM     14  C   LIG    1      -34.003  79.005  27.850  0.00  0.00    +0.149 A 
ATOM     15  C   LIG    1      -32.802  78.330  27.730  0.00  0.00    +0.141 A 
ATOM     16  F   LIG    1      -31.636  78.971  27.878  0.00  0.00    -0.204 F 
ATOM     17  C   LIG    1      -32.824  76.977  27.441  0.00  0.00    +0.042 A 
ATOM     18  C   LIG    1      -34.057  76.345  27.266  0.00  0.00    +0.028 A 
ENDBRANCH  11  12
ENDBRANCH   8  11
ENDBRANCH   1   8
BRANCH   2  19
ATOM     19  C   LIG    1      -38.183  73.754  24.981  0.00  0.00    +0.103 C 
ATOM     20  N   LIG    1      -37.769  72.671  25.107  0.00  0.00    -0.191 NA
ENDBRANCH   2  19
BRANCH   6  21
ATOM     21  N   LIG    1      -40.329  78.805  23.924  0.00  0.00    -0.281 N 
ATOM     22  H   LIG    1      -41.247  78.745  23.501  0.00  0.00    +0.155 HD
BRANCH  21  23
ATOM     23  C   LIG    1      -39.772  80.033  23.960  0.00  0.00    +0.146 A 
ATOM     24  N   LIG    1      -39.385  80.697  22.868  0.00  0.00    -0.158 NA
ATOM     25  N   LIG    1      -38.951  81.883  23.333  0.00  0.00    -0.280 N 
ATOM     26  H   LIG    1      -38.613  82.567  22.663  0.00  0.00    +0.189 HD
ATOM     27  C   LIG    1      -39.026  81.998  24.692  0.00  0.00    +0.035 A 
ATOM     28  C   LIG    1      -38.598  83.193  25.445  0.00  0.00    +0.065 C 
ATOM     29  C   LIG    1      -39.565  80.809  25.121  0.00  0.00    +0.068 A 
ENDBRANCH  21  23
ENDBRANCH   6  21
TORSDOF 6
ENDMDL
MODEL 5
REMARK VINA RESULT:      -5.6     13.638     17.591
REMARK  Name = pdb/CHEMBL1774056.pdb
REMARK                            x       y       z     vdW  Elec       q    Type
REMARK                         _______ _______ _______ _____ _____    ______ ____
ROOT
ATOM      1  C   LIG    1      -38.358  75.920  24.755  0.00  0.00    +0.139 A 
ATOM      2  C   LIG    1      -39.594  76.275  24.195  0.00  0.00    +0.094 A 
ATOM      3  C   LIG    1      -40.493  75.274  23.819  0.00  0.00    +0.064 A 
ATOM      4  C   LIG    1      -40.152  73.950  24.030  0.00  0.00    +0.165 A 
ATOM      5  F   LIG    1      -41.015  72.989  23.666  0.00  0.00    -0.202 F 
ATOM      6  C   LIG    1      -38.920  73.634  24.598  0.00  0.00    +0.162 A 
ATOM      7  N   LIG    1      -38.047  74.616  24.945  0.00  0.00    -0.213 NA
ENDROOT
BRANCH   1   8
ATOM      8  N   LIG    1      -37.472  76.886  25.222  0.00  0.00    -0.320 N 
ATOM      9  H   LIG    1      -36.575  76.909  24.743  0.00  0.00    +0.148 HD
BRANCH   8  11
ATOM     10  C   LIG    1      -38.597  76.700  27.413  0.00  0.00    +0.034 C 
ATOM     11  C   LIG    1      -37.326  77.130  26.667  0.00  0.00    +0.117 C 
BRANCH  11  12
ATOM     12  C   LIG    1      -36.120  76.344  27.200  0.00  0.00    +0.061 A 
ATOM     13  N   LIG    1      -34.872  76.836  26.958  0.00  0.00    -0.255 NA
ATOM     14  C   LIG    1      -33.818  76.100  27.396  0.00  0.00    +0.149 A 
ATOM     15  C   LIG    1      -33.945  74.893  28.059  0.00  0.00    +0.141 A 
ATOM     16  F   LIG    1      -32.863  74.199  28.434  0.00  0.00    -0.204 F 
ATOM     17  C   LIG    1      -35.213  74.404  28.318  0.00  0.00    +0.042 A 
ATOM     18  C   LIG    1      -36.319  75.139  27.888  0.00  0.00    +0.028 A 
ENDBRANCH  11  12
ENDBRANCH   8  11
ENDBRANCH   1   8
BRANCH   2  19
ATOM     19  C   LIG    1      -39.991  77.631  23.991  0.00  0.00    +0.103 C 
ATOM     20  N   LIG    1      -40.241  78.750  23.781  0.00  0.00    -0.191 NA
ENDBRANCH   2  19
BRANCH   6  21
ATOM     21  N   LIG    1      -38.560  72.278  24.722  0.00  0.00    -0.281 N 
ATOM     22  H   LIG    1      -39.353  71.650  24.668  0.00  0.00    +0.155 HD
BRANCH  21  23
ATOM     23  C   LIG    1      -37.396  71.730  25.128  0.00  0.00    +0.146 A 
ATOM     24  N   LIG    1      -36.480  71.243  24.286  0.00  0.00    -0.158 NA
ATOM     25  N   LIG    1      -35.466  70.857  25.082  0.00  0.00    -0.280 N 
ATOM     26  H   LIG    1      -34.639  70.459  24.647  0.00  0.00    +0.189 HD
ATOM     27  C   LIG    1      -35.705  71.062  26.411  0.00  0.00    +0.035 A 
ATOM     28  C   LIG    1      -34.755  70.710  27.485  0.00  0.00    +0.065 C 
ATOM     29  C   LIG    1      -36.952  71.636  26.464  0.00  0.00    +0.068 A 
ENDBRANCH  21  23
ENDBRANCH   6  21
TORSDOF 6
ENDMDL
MODEL 6
REMARK VINA RESULT:      -5.5     13.476     17.640
REMARK  Name = pdb/CHEMBL1774056.pdb
REMARK                            x       y       z     vdW  Elec       q    Type
REMARK                         _______ _______ _______ _____ _____    ______ ____
ROOT
ATOM      1  C   LIG    1      -37.884  75.423  24.980  0.00  0.00    +0.139 A 
ATOM      2  C   LIG    1      -39.024  75.987  24.389  0.00  0.00    +0.094 A 
ATOM      3  C   LIG    1      -40.079  75.158  23.997  0.00  0.00    +0.064 A 
ATOM      4  C   LIG    1      -39.984  73.797  24.224  0.00  0.00    +0.165 A 
ATOM      5  F   LIG    1      -40.996  73.001  23.845  0.00  0.00    -0.202 F 
ATOM      6  C   LIG    1      -38.841  73.272  24.823  0.00  0.00    +0.162 A 
ATOM      7  N   LIG    1      -37.815  74.086  25.185  0.00  0.00    -0.213 NA
ENDROOT
BRANCH   1   8
ATOM      8  N   LIG    1      -36.851  76.220  25.462  0.00  0.00    -0.320 N 
ATOM      9  H   LIG    1      -35.917  75.904  25.215  0.00  0.00    +0.148 HD
BRANCH   8  11
ATOM     10  C   LIG    1      -37.750  75.852  27.734  0.00  0.00    +0.034 C 
ATOM     11  C   LIG    1      -36.900  76.759  26.833  0.00  0.00    +0.117 C 
BRANCH  11  12
ATOM     12  C   LIG    1      -35.475  76.859  27.394  0.00  0.00    +0.061 A 
ATOM     13  N   LIG    1      -34.941  78.100  27.578  0.00  0.00    -0.255 NA
ATOM     14  C   LIG    1      -33.662  78.165  28.030  0.00  0.00    +0.149 A 
ATOM     15  C   LIG    1      -32.884  77.055  28.303  0.00  0.00    +0.141 A 
ATOM     16  F   LIG    1      -31.617  77.189  28.714  0.00  0.00    -0.204 F 
ATOM     17  C   LIG    1      -33.434  75.797  28.132  0.00  0.00    +0.042 A 
ATOM     18  C   LIG    1      -34.750  75.693  27.676  0.00  0.00    +0.028 A 
ENDBRANCH  11  12
ENDBRANCH   8  11
ENDBRANCH   1   8
BRANCH   2  19
ATOM     19  C   LIG    1      -39.168  77.389  24.166  0.00  0.00    +0.103 C 
ATOM     20  N   LIG    1      -39.370  78.523  23.984  0.00  0.00    -0.191 NA
ENDBRANCH   2  19
BRANCH   6  21
ATOM     21  N   LIG    1      -38.732  71.875  24.965  0.00  0.00    -0.281 N 
ATOM     22  H   LIG    1      -38.859  71.562  25.919  0.00  0.00    +0.155 HD
BRANCH  21  23
ATOM     23  C   LIG    1      -38.263  70.956  24.096  0.00  0.00    +0.146 A 
ATOM     24  N   LIG    1      -36.962  70.737  23.888  0.00  0.00    -0.158 NA
ATOM     25  N   LIG    1      -36.930  69.717  23.012  0.00  0.00    -0.280 N 
ATOM     26  H   LIG    1      -36.024  69.369  22.714  0.00  0.00    +0.189 HD
ATOM     27  C   LIG    1      -38.168  69.282  22.632  0.00  0.00    +0.035 A 
ATOM     28  C   LIG    1      -38.400  68.186  21.671  0.00  0.00    +0.065 C 
ATOM     29  C   LIG    1      -39.051  70.069  23.331  0.00  0.00    +0.068 A 
ENDBRANCH  21  23
ENDBRANCH   6  21
TORSDOF 6
ENDMDL
MODEL 7
REMARK VINA RESULT:      -5.4     16.721     19.936
REMARK  Name = pdb/CHEMBL1774056.pdb
REMARK                            x       y       z     vdW  Elec       q    Type
REMARK                         _______ _______ _______ _____ _____    ______ ____
ROOT
ATOM      1  C   LIG    1      -37.381  68.937  22.471  0.00  0.00    +0.139 A 
ATOM      2  C   LIG    1      -38.306  68.473  21.523  0.00  0.00    +0.094 A 
ATOM      3  C   LIG    1      -39.613  68.968  21.537  0.00  0.00    +0.064 A 
ATOM      4  C   LIG    1      -39.960  69.924  22.475  0.00  0.00    +0.165 A 
ATOM      5  F   LIG    1      -41.216  70.397  22.489  0.00  0.00    -0.202 F 
ATOM      6  C   LIG    1      -39.012  70.369  23.394  0.00  0.00    +0.162 A 
ATOM      7  N   LIG    1      -37.749  69.869  23.381  0.00  0.00    -0.213 NA
ENDROOT
BRANCH   1   8
ATOM      8  N   LIG    1      -36.050  68.535  22.436  0.00  0.00    -0.320 N 
ATOM      9  H   LIG    1      -35.614  68.581  21.519  0.00  0.00    +0.148 HD
BRANCH   8  11
ATOM     10  C   LIG    1      -34.579  66.551  22.380  0.00  0.00    +0.034 C 
ATOM     11  C   LIG    1      -35.606  67.352  23.193  0.00  0.00    +0.117 C 
BRANCH  11  12
ATOM     12  C   LIG    1      -34.982  67.798  24.522  0.00  0.00    +0.061 A 
ATOM     13  N   LIG    1      -34.575  69.094  24.640  0.00  0.00    -0.255 NA
ATOM     14  C   LIG    1      -33.982  69.455  25.807  0.00  0.00    +0.149 A 
ATOM     15  C   LIG    1      -33.768  68.589  26.862  0.00  0.00    +0.141 A 
ATOM     16  F   LIG    1      -33.145  69.001  27.974  0.00  0.00    -0.204 F 
ATOM     17  C   LIG    1      -34.198  67.278  26.747  0.00  0.00    +0.042 A 
ATOM     18  C   LIG    1      -34.819  66.874  25.564  0.00  0.00    +0.028 A 
ENDBRANCH  11  12
ENDBRANCH   8  11
ENDBRANCH   1   8
BRANCH   2  19
ATOM     19  C   LIG    1      -37.975  67.509  20.524  0.00  0.00    +0.103 C 
ATOM     20  N   LIG    1      -37.664  66.784  19.666  0.00  0.00    -0.191 NA
ENDBRANCH   2  19
BRANCH   6  21
ATOM     21  N   LIG    1      -39.413  71.278  24.392  0.00  0.00    -0.281 N 
ATOM     22  H   LIG    1      -40.220  70.963  24.916  0.00  0.00    +0.155 HD
BRANCH  21  23
ATOM     23  C   LIG    1      -39.045  72.561  24.586  0.00  0.00    +0.146 A 
ATOM     24  N   LIG    1      -37.876  72.917  25.127  0.00  0.00    -0.158 NA
ATOM     25  N   LIG    1      -37.882  74.262  25.080  0.00  0.00    -0.280 N 
ATOM     26  H   LIG    1      -37.069  74.757  25.436  0.00  0.00    +0.189 HD
ATOM     27  C   LIG    1      -39.024  74.786  24.545  0.00  0.00    +0.035 A 
ATOM     28  C   LIG    1      -39.278  76.233  24.398  0.00  0.00    +0.065 C 
ATOM     29  C   LIG    1      -39.792  73.698  24.209  0.00  0.00    +0.068 A 
ENDBRANCH  21  23
ENDBRANCH   6  21
TORSDOF 6
ENDMDL
MODEL 8
REMARK VINA RESULT:      -5.1      3.611      8.705
REMARK  Name = pdb/CHEMBL1774056.pdb
REMARK                            x       y       z     vdW  Elec       q    Type
REMARK                         _______ _______ _______ _____ _____    ______ ____
ROOT
ATOM      1  C   LIG    1      -26.164  74.995  31.988  0.00  0.00    +0.139 A 
ATOM      2  C   LIG    1      -26.425  75.776  33.125  0.00  0.00    +0.094 A 
ATOM      3  C   LIG    1      -25.853  77.047  33.233  0.00  0.00    +0.064 A 
ATOM      4  C   LIG    1      -25.059  77.517  32.204  0.00  0.00    +0.165 A 
ATOM      5  F   LIG    1      -24.508  78.736  32.310  0.00  0.00    -0.202 F 
ATOM      6  C   LIG    1      -24.829  76.718  31.085  0.00  0.00    +0.162 A 
ATOM      7  N   LIG    1      -25.378  75.478  30.998  0.00  0.00    -0.213 NA
ENDROOT
BRANCH   1   8
ATOM      8  N   LIG    1      -26.782  73.763  31.802  0.00  0.00    -0.320 N 
ATOM      9  H   LIG    1      -27.784  73.758  31.972  0.00  0.00    +0.148 HD
BRANCH   8  11
ATOM     10  C   LIG    1      -27.078  71.771  33.233  0.00  0.00    +0.034 C 
ATOM     11  C   LIG    1      -26.141  72.526  32.280  0.00  0.00    +0.117 C 
BRANCH  11  12
ATOM     12  C   LIG    1      -25.792  71.634  31.081  0.00  0.00    +0.061 A 
ATOM     13  N   LIG    1      -26.769  70.832  30.568  0.00  0.00    -0.255 NA
ATOM     14  C   LIG    1      -26.427  70.016  29.538  0.00  0.00    +0.149 A 
ATOM     15  C   LIG    1      -25.156  69.952  28.996  0.00  0.00    +0.141 A 
ATOM     16  F   LIG    1      -24.875  69.099  28.003  0.00  0.00    -0.204 F 
ATOM     17  C   LIG    1      -24.170  70.779  29.507  0.00  0.00    +0.042 A 
ATOM     18  C   LIG    1      -24.490  71.636  30.561  0.00  0.00    +0.028 A 
ENDBRANCH  11  12
ENDBRANCH   8  11
ENDBRANCH   1   8
BRANCH   2  19
ATOM     19  C   LIG    1      -27.263  75.335  34.192  0.00  0.00    +0.103 C 
ATOM     20  N   LIG    1      -28.009  74.960  35.006  0.00  0.00    -0.191 NA
ENDBRANCH   2  19
BRANCH   6  21
ATOM     21  N   LIG    1      -23.947  77.184  30.090  0.00  0.00    -0.281 N 
ATOM     22  H   LIG    1      -24.421  77.459  29.238  0.00  0.00    +0.155 HD
BRANCH  21  23
ATOM     23  C   LIG    1      -22.604  77.093  30.020  0.00  0.00    +0.146 A 
ATOM     24  N   LIG    1      -21.951  76.668  28.935  0.00  0.00    -0.158 NA
ATOM     25  N   LIG    1      -20.650  76.790  29.258  0.00  0.00    -0.280 N 
ATOM     26  H   LIG    1      -19.957  76.529  28.562  0.00  0.00    +0.189 HD
ATOM     27  C   LIG    1      -20.442  77.262  30.522  0.00  0.00    +0.035 A 
ATOM     28  C   LIG    1      -19.107  77.470  31.117  0.00  0.00    +0.065 C 
ATOM     29  C   LIG    1      -21.699  77.474  31.035  0.00  0.00    +0.068 A 
ENDBRANCH  21  23
ENDBRANCH   6  21
TORSDOF 6
ENDMDL
MODEL 9
REMARK VINA RESULT:      -4.9     16.176     20.894
REMARK  Name = pdb/CHEMBL1774056.pdb
REMARK                            x       y       z     vdW  Elec       q    Type
REMARK                         _______ _______ _______ _____ _____    ______ ____
ROOT
ATOM      1  C   LIG    1      -37.793  69.086  22.164  0.00  0.00    +0.139 A 
ATOM      2  C   LIG    1      -39.151  69.393  22.330  0.00  0.00    +0.094 A 
ATOM      3  C   LIG    1      -39.541  70.259  23.357  0.00  0.00    +0.064 A 
ATOM      4  C   LIG    1      -38.572  70.812  24.173  0.00  0.00    +0.165 A 
ATOM      5  F   LIG    1      -38.946  71.641  25.160  0.00  0.00    -0.202 F 
ATOM      6  C   LIG    1      -37.231  70.492  23.972  0.00  0.00    +0.162 A 
ATOM      7  N   LIG    1      -36.865  69.637  22.981  0.00  0.00    -0.213 NA
ENDROOT
BRANCH   1   8
ATOM      8  N   LIG    1      -37.356  68.299  21.103  0.00  0.00    -0.320 N 
ATOM      9  H   LIG    1      -37.971  68.294  20.294  0.00  0.00    +0.148 HD
BRANCH   8  11
ATOM     10  C   LIG    1      -37.756  65.866  20.951  0.00  0.00    +0.034 C 
ATOM     11  C   LIG    1      -36.768  66.971  21.350  0.00  0.00    +0.117 C 
BRANCH  11  12
ATOM     12  C   LIG    1      -35.472  66.826  20.541  0.00  0.00    +0.061 A 
ATOM     13  N   LIG    1      -35.553  66.877  19.180  0.00  0.00    -0.255 NA
ATOM     14  C   LIG    1      -34.402  66.698  18.483  0.00  0.00    +0.149 A 
ATOM     15  C   LIG    1      -33.172  66.465  19.072  0.00  0.00    +0.141 A 
ATOM     16  F   LIG    1      -32.080  66.262  18.324  0.00  0.00    -0.204 F 
ATOM     17  C   LIG    1      -33.090  66.431  20.453  0.00  0.00    +0.042 A 
ATOM     18  C   LIG    1      -34.254  66.619  21.202  0.00  0.00    +0.028 A 
ENDBRANCH  11  12
ENDBRANCH   8  11
ENDBRANCH   1   8
BRANCH   2  19
ATOM     19  C   LIG    1      -40.175  68.864  21.489  0.00  0.00    +0.103 C 
ATOM     20  N   LIG    1      -41.061  68.496  20.825  0.00  0.00    -0.191 NA
ENDBRANCH   2  19
BRANCH   6  21
ATOM     21  N   LIG    1      -36.272  71.000  24.870  0.00  0.00    -0.281 N 
ATOM     22  H   LIG    1      -36.143  72.001  24.788  0.00  0.00    +0.155 HD
BRANCH  21  23
ATOM     23  C   LIG    1      -35.364  70.345  25.622  0.00  0.00    +0.146 A 
ATOM     24  N   LIG    1      -34.216  69.864  25.137  0.00  0.00    -0.158 NA
ATOM     25  N   LIG    1      -33.589  69.350  26.211  0.00  0.00    -0.280 N 
ATOM     26  H   LIG    1      -32.673  68.932  26.076  0.00  0.00    +0.189 HD
ATOM     27  C   LIG    1      -34.303  69.464  27.369  0.00  0.00    +0.035 A 
ATOM     28  C   LIG    1      -33.838  68.966  28.679  0.00  0.00    +0.065 C 
ATOM     29  C   LIG    1      -35.458  70.116  27.012  0.00  0.00    +0.068 A 
ENDBRANCH  21  23
ENDBRANCH   6  21
TORSDOF 6
ENDMDL
