MODEL 1
REMARK VINA RESULT:      -5.5      0.000      0.000
REMARK  Name = pdb/CHEMBL3676021.pdb
REMARK                            x       y       z     vdW  Elec       q    Type
REMARK                         _______ _______ _______ _____ _____    ______ ____
ROOT
ATOM      1  C   LIG    1      -21.270  79.171  34.028  0.00  0.00    +0.126 A 
ATOM      2  N   LIG    1      -22.510  78.733  34.017  0.00  0.00    -0.212 NA
ATOM      3  C   LIG    1      -23.424  79.366  34.814  0.00  0.00    +0.170 A 
ATOM      4  C   LIG    1      -24.763  79.121  35.048  0.00  0.00    +0.100 A 
ATOM      5  C   LIG    1      -25.124  80.068  36.028  0.00  0.00    +0.150 A 
ATOM      6  N   LIG    1      -24.124  80.884  36.363  0.00  0.00    -0.173 NA
ATOM      7  N   LIG    1      -23.085  80.462  35.606  0.00  0.00    -0.221 N 
ATOM      8  C   LIG    1      -21.808  80.993  35.553  0.00  0.00    +0.118 A 
ATOM      9  C   LIG    1      -20.876  80.424  34.779  0.00  0.00    +0.063 A 
ENDROOT
BRANCH   1  11
ATOM     10  C   LIG    1      -20.208  76.974  33.406  0.00  0.00    +0.110 C 
ATOM     11  N   LIG    1      -20.307  78.460  33.319  0.00  0.00    -0.308 N 
ATOM     12  C   LIG    1      -19.013  79.036  32.966  0.00  0.00    +0.107 C 
ATOM     13  C   LIG    1      -18.009  77.995  33.421  0.00  0.00    +0.021 C 
ATOM     14  C   LIG    1      -18.716  76.681  33.140  0.00  0.00    +0.029 C 
BRANCH  10  16
ATOM     15  C   LIG    1      -22.053  75.293  32.805  0.00  0.00    +0.220 A 
ATOM     16  C   LIG    1      -21.132  76.277  32.420  0.00  0.00    +0.037 A 
ATOM     17  C   LIG    1      -21.114  76.605  31.052  0.00  0.00    +0.050 A 
ATOM     18  C   LIG    1      -21.945  75.953  30.158  0.00  0.00    +0.142 A 
ATOM     19  F   LIG    1      -21.918  76.270  28.859  0.00  0.00    -0.204 F 
ATOM     20  C   LIG    1      -22.786  74.974  30.632  0.00  0.00    +0.153 A 
ATOM     21  N   LIG    1      -22.865  74.636  31.937  0.00  0.00    -0.218 NA
BRANCH  15  23
ATOM     22  C   LIG    1      -23.070  73.893  34.387  0.00  0.00    +0.279 C 
ATOM     23  O   LIG    1      -22.154  74.968  34.144  0.00  0.00    -0.479 OA
ENDBRANCH  15  23
ENDBRANCH  10  16
ENDBRANCH   1  11
BRANCH   4  24
ATOM     24  C   LIG    1      -25.622  78.114  34.456  0.00  0.00    +0.249 C 
ATOM     25  N   LIG    1      -24.988  77.220  33.616  0.00  0.00    -0.309 N 
ATOM     26  H   LIG    1      -23.996  77.372  33.438  0.00  0.00    +0.149 HD
ATOM     27  O   LIG    1      -26.817  78.067  34.689  0.00  0.00    -0.270 OA
BRANCH  25  28
ATOM     28  C   LIG    1      -25.732  76.238  32.847  0.00  0.00    +0.138 C 
BRANCH  28  29
ATOM     29  C   LIG    1      -26.180  76.804  31.496  0.00  0.00    +0.157 C 
BRANCH  29  30
ATOM     30  O   LIG    1      -27.390  77.573  31.637  0.00  0.00    -0.388 OA
ATOM     31  H   LIG    1      -27.975  77.332  30.894  0.00  0.00    +0.210 HD
ENDBRANCH  29  30
BRANCH  29  32
ATOM     32  C   LIG    1      -25.120  77.733  30.899  0.00  0.00    +0.188 C 
BRANCH  32  33
ATOM     33  O   LIG    1      -25.037  77.518  29.489  0.00  0.00    -0.392 OA
ATOM     34  H   LIG    1      -25.164  78.405  29.092  0.00  0.00    +0.210 HD
ENDBRANCH  32  33
ENDBRANCH  29  32
ENDBRANCH  28  29
ENDBRANCH  25  28
ENDBRANCH   4  24
TORSDOF 9
ENDMDL
MODEL 2
REMARK VINA RESULT:      -5.4      2.016      4.289
REMARK  Name = pdb/CHEMBL3676021.pdb
REMARK                            x       y       z     vdW  Elec       q    Type
REMARK                         _______ _______ _______ _____ _____    ______ ____
ROOT
ATOM      1  C   LIG    1      -23.642  79.543  34.878  0.00  0.00    +0.126 A 
ATOM      2  N   LIG    1      -23.881  78.992  33.708  0.00  0.00    -0.212 NA
ATOM      3  C   LIG    1      -25.005  78.223  33.574  0.00  0.00    +0.170 A 
ATOM      4  C   LIG    1      -25.497  77.494  32.509  0.00  0.00    +0.100 A 
ATOM      5  C   LIG    1      -26.645  76.857  33.024  0.00  0.00    +0.150 A 
ATOM      6  N   LIG    1      -26.902  77.182  34.292  0.00  0.00    -0.173 NA
ATOM      7  N   LIG    1      -25.903  78.032  34.624  0.00  0.00    -0.221 N 
ATOM      8  C   LIG    1      -25.714  78.684  35.831  0.00  0.00    +0.118 A 
ATOM      9  C   LIG    1      -24.640  79.461  36.013  0.00  0.00    +0.063 A 
ENDROOT
BRANCH   1  11
ATOM     10  C   LIG    1      -21.293  79.602  35.780  0.00  0.00    +0.110 C 
ATOM     11  N   LIG    1      -22.443  80.222  35.060  0.00  0.00    -0.308 N 
ATOM     12  C   LIG    1      -22.376  81.678  35.153  0.00  0.00    +0.107 C 
ATOM     13  C   LIG    1      -21.557  81.930  36.404  0.00  0.00    +0.021 C 
ATOM     14  C   LIG    1      -20.538  80.804  36.388  0.00  0.00    +0.029 C 
BRANCH  10  16
ATOM     15  C   LIG    1      -20.557  77.372  34.743  0.00  0.00    +0.220 A 
ATOM     16  C   LIG    1      -20.423  78.763  34.858  0.00  0.00    +0.037 A 
ATOM     17  C   LIG    1      -19.433  79.357  34.054  0.00  0.00    +0.050 A 
ATOM     18  C   LIG    1      -18.633  78.583  33.232  0.00  0.00    +0.142 A 
ATOM     19  F   LIG    1      -17.692  79.158  32.473  0.00  0.00    -0.204 F 
ATOM     20  C   LIG    1      -18.820  77.221  33.220  0.00  0.00    +0.153 A 
ATOM     21  N   LIG    1      -19.770  76.600  33.950  0.00  0.00    -0.218 NA
BRANCH  15  23
ATOM     22  C   LIG    1      -22.320  75.827  34.676  0.00  0.00    +0.279 C 
ATOM     23  O   LIG    1      -21.549  76.740  35.467  0.00  0.00    -0.479 OA
ENDBRANCH  15  23
ENDBRANCH  10  16
ENDBRANCH   1  11
BRANCH   4  24
ATOM     24  C   LIG    1      -24.967  77.373  31.166  0.00  0.00    +0.249 C 
ATOM     25  N   LIG    1      -23.603  77.557  31.052  0.00  0.00    -0.309 N 
ATOM     26  H   LIG    1      -23.097  77.815  31.899  0.00  0.00    +0.149 HD
ATOM     27  O   LIG    1      -25.681  77.125  30.209  0.00  0.00    -0.270 OA
BRANCH  25  28
ATOM     28  C   LIG    1      -22.943  77.597  29.759  0.00  0.00    +0.138 C 
BRANCH  28  29
ATOM     29  C   LIG    1      -21.939  76.450  29.605  0.00  0.00    +0.157 C 
BRANCH  29  30
ATOM     30  O   LIG    1      -20.703  76.922  29.033  0.00  0.00    -0.388 OA
ATOM     31  H   LIG    1      -20.883  77.152  28.102  0.00  0.00    +0.210 HD
ENDBRANCH  29  30
BRANCH  29  32
ATOM     32  C   LIG    1      -21.600  75.817  30.957  0.00  0.00    +0.188 C 
BRANCH  32  33
ATOM     33  O   LIG    1      -22.531  74.771  31.240  0.00  0.00    -0.392 OA
ATOM     34  H   LIG    1      -21.978  73.974  31.379  0.00  0.00    +0.210 HD
ENDBRANCH  32  33
ENDBRANCH  29  32
ENDBRANCH  28  29
ENDBRANCH  25  28
ENDBRANCH   4  24
TORSDOF 9
ENDMDL
MODEL 3
REMARK VINA RESULT:      -5.4     19.540     21.687
REMARK  Name = pdb/CHEMBL3676021.pdb
REMARK                            x       y       z     vdW  Elec       q    Type
REMARK                         _______ _______ _______ _____ _____    ______ ____
ROOT
ATOM      1  C   LIG    1      -22.927  86.014  12.234  0.00  0.00    +0.126 A 
ATOM      2  N   LIG    1      -23.129  84.788  12.664  0.00  0.00    -0.212 NA
ATOM      3  C   LIG    1      -23.967  83.982  11.943  0.00  0.00    +0.170 A 
ATOM      4  C   LIG    1      -24.404  82.688  12.154  0.00  0.00    +0.100 A 
ATOM      5  C   LIG    1      -25.315  82.453  11.104  0.00  0.00    +0.150 A 
ATOM      6  N   LIG    1      -25.423  83.481  10.261  0.00  0.00    -0.173 NA
ATOM      7  N   LIG    1      -24.584  84.413  10.769  0.00  0.00    -0.221 N 
ATOM      8  C   LIG    1      -24.304  85.668  10.254  0.00  0.00    +0.118 A 
ATOM      9  C   LIG    1      -23.479  86.493  10.909  0.00  0.00    +0.063 A 
ENDROOT
BRANCH   1  11
ATOM     10  C   LIG    1      -21.266  86.376  14.091  0.00  0.00    +0.110 C 
ATOM     11  N   LIG    1      -22.177  86.880  13.023  0.00  0.00    -0.308 N 
ATOM     12  C   LIG    1      -22.619  88.237  13.329  0.00  0.00    +0.107 C 
ATOM     13  C   LIG    1      -22.477  88.340  14.835  0.00  0.00    +0.021 C 
ATOM     14  C   LIG    1      -21.232  87.520  15.127  0.00  0.00    +0.029 C 
BRANCH  10  16
ATOM     15  C   LIG    1      -19.391  84.715  13.530  0.00  0.00    +0.220 A 
ATOM     16  C   LIG    1      -19.888  86.025  13.553  0.00  0.00    +0.037 A 
ATOM     17  C   LIG    1      -19.038  87.018  13.031  0.00  0.00    +0.050 A 
ATOM     18  C   LIG    1      -17.778  86.693  12.560  0.00  0.00    +0.142 A 
ATOM     19  F   LIG    1      -16.976  87.644  12.068  0.00  0.00    -0.204 F 
ATOM     20  C   LIG    1      -17.370  85.381  12.617  0.00  0.00    +0.153 A 
ATOM     21  N   LIG    1      -18.152  84.384  13.083  0.00  0.00    -0.218 NA
BRANCH  15  23
ATOM     22  C   LIG    1      -20.319  82.620  13.034  0.00  0.00    +0.279 C 
ATOM     23  O   LIG    1      -20.202  83.691  13.979  0.00  0.00    -0.479 OA
ENDBRANCH  15  23
ENDBRANCH  10  16
ENDBRANCH   1  11
BRANCH   4  24
ATOM     24  C   LIG    1      -24.043  81.767  13.214  0.00  0.00    +0.249 C 
ATOM     25  N   LIG    1      -23.735  82.355  14.425  0.00  0.00    -0.309 N 
ATOM     26  H   LIG    1      -23.729  83.374  14.459  0.00  0.00    +0.149 HD
ATOM     27  O   LIG    1      -24.019  80.561  13.040  0.00  0.00    -0.270 OA
BRANCH  25  28
ATOM     28  C   LIG    1      -23.230  81.578  15.543  0.00  0.00    +0.138 C 
BRANCH  28  29
ATOM     29  C   LIG    1      -22.479  82.459  16.546  0.00  0.00    +0.157 C 
BRANCH  29  30
ATOM     30  O   LIG    1      -21.058  82.231  16.470  0.00  0.00    -0.388 OA
ATOM     31  H   LIG    1      -20.853  81.481  17.058  0.00  0.00    +0.210 HD
ENDBRANCH  29  30
BRANCH  29  32
ATOM     32  C   LIG    1      -22.714  83.946  16.270  0.00  0.00    +0.188 C 
BRANCH  32  33
ATOM     33  O   LIG    1      -22.979  84.624  17.500  0.00  0.00    -0.392 OA
ATOM     34  H   LIG    1      -22.674  84.007  18.198  0.00  0.00    +0.210 HD
ENDBRANCH  32  33
ENDBRANCH  29  32
ENDBRANCH  28  29
ENDBRANCH  25  28
ENDBRANCH   4  24
TORSDOF 9
ENDMDL
MODEL 4
REMARK VINA RESULT:      -5.2     18.767     21.153
REMARK  Name = pdb/CHEMBL3676021.pdb
REMARK                            x       y       z     vdW  Elec       q    Type
REMARK                         _______ _______ _______ _____ _____    ______ ____
ROOT
ATOM      1  C   LIG    1      -20.152  81.891  14.176  0.00  0.00    +0.126 A 
ATOM      2  N   LIG    1      -20.196  83.198  14.029  0.00  0.00    -0.212 NA
ATOM      3  C   LIG    1      -19.063  83.838  13.608  0.00  0.00    +0.170 A 
ATOM      4  C   LIG    1      -18.786  85.176  13.404  0.00  0.00    +0.100 A 
ATOM      5  C   LIG    1      -17.421  85.199  13.050  0.00  0.00    +0.150 A 
ATOM      6  N   LIG    1      -16.875  83.984  12.984  0.00  0.00    -0.173 NA
ATOM      7  N   LIG    1      -17.887  83.149  13.311  0.00  0.00    -0.221 N 
ATOM      8  C   LIG    1      -17.856  81.766  13.368  0.00  0.00    +0.118 A 
ATOM      9  C   LIG    1      -18.940  81.086  13.759  0.00  0.00    +0.063 A 
ENDROOT
BRANCH   1  11
ATOM     10  C   LIG    1      -22.633  81.807  14.595  0.00  0.00    +0.110 C 
ATOM     11  N   LIG    1      -21.256  81.246  14.720  0.00  0.00    -0.308 N 
ATOM     12  C   LIG    1      -21.160  80.396  15.903  0.00  0.00    +0.107 C 
ATOM     13  C   LIG    1      -22.260  80.904  16.814  0.00  0.00    +0.021 C 
ATOM     14  C   LIG    1      -23.368  81.282  15.846  0.00  0.00    +0.029 C 
BRANCH  10  16
ATOM     15  C   LIG    1      -23.620  82.303  12.277  0.00  0.00    +0.220 A 
ATOM     16  C   LIG    1      -23.307  81.392  13.296  0.00  0.00    +0.037 A 
ATOM     17  C   LIG    1      -23.639  80.048  13.047  0.00  0.00    +0.050 A 
ATOM     18  C   LIG    1      -24.269  79.682  11.871  0.00  0.00    +0.142 A 
ATOM     19  F   LIG    1      -24.584  78.401  11.646  0.00  0.00    -0.204 F 
ATOM     20  C   LIG    1      -24.568  80.658  10.951  0.00  0.00    +0.153 A 
ATOM     21  N   LIG    1      -24.250  81.959  11.124  0.00  0.00    -0.218 NA
BRANCH  15  23
ATOM     22  C   LIG    1      -23.195  84.341  11.200  0.00  0.00    +0.279 C 
ATOM     23  O   LIG    1      -23.268  83.628  12.441  0.00  0.00    -0.479 OA
ENDBRANCH  15  23
ENDBRANCH  10  16
ENDBRANCH   1  11
BRANCH   4  24
ATOM     24  C   LIG    1      -19.668  86.318  13.536  0.00  0.00    +0.249 C 
ATOM     25  N   LIG    1      -20.872  86.214  12.866  0.00  0.00    -0.309 N 
ATOM     26  H   LIG    1      -21.015  85.382  12.296  0.00  0.00    +0.149 HD
ATOM     27  O   LIG    1      -19.362  87.297  14.195  0.00  0.00    -0.270 OA
BRANCH  25  28
ATOM     28  C   LIG    1      -21.803  87.325  12.794  0.00  0.00    +0.138 C 
BRANCH  28  29
ATOM     29  C   LIG    1      -22.859  87.246  13.902  0.00  0.00    +0.157 C 
BRANCH  29  30
ATOM     30  O   LIG    1      -22.868  85.941  14.512  0.00  0.00    -0.388 OA
ATOM     31  H   LIG    1      -23.625  85.914  15.127  0.00  0.00    +0.210 HD
ENDBRANCH  29  30
BRANCH  29  32
ATOM     32  C   LIG    1      -22.581  88.262  15.013  0.00  0.00    +0.188 C 
BRANCH  32  33
ATOM     33  O   LIG    1      -21.824  87.639  16.052  0.00  0.00    -0.392 OA
ATOM     34  H   LIG    1      -22.288  86.794  16.228  0.00  0.00    +0.210 HD
ENDBRANCH  32  33
ENDBRANCH  29  32
ENDBRANCH  28  29
ENDBRANCH  25  28
ENDBRANCH   4  24
TORSDOF 9
ENDMDL
MODEL 5
REMARK VINA RESULT:      -5.1     18.531     21.133
REMARK  Name = pdb/CHEMBL3676021.pdb
REMARK                            x       y       z     vdW  Elec       q    Type
REMARK                         _______ _______ _______ _____ _____    ______ ____
ROOT
ATOM      1  C   LIG    1      -38.780  72.763  24.727  0.00  0.00    +0.126 A 
ATOM      2  N   LIG    1      -39.973  72.835  24.179  0.00  0.00    -0.212 NA
ATOM      3  C   LIG    1      -40.493  74.074  23.924  0.00  0.00    +0.170 A 
ATOM      4  C   LIG    1      -41.710  74.471  23.406  0.00  0.00    +0.100 A 
ATOM      5  C   LIG    1      -41.673  75.879  23.468  0.00  0.00    +0.150 A 
ATOM      6  N   LIG    1      -40.519  76.354  23.939  0.00  0.00    -0.173 NA
ATOM      7  N   LIG    1      -39.790  75.246  24.204  0.00  0.00    -0.221 N 
ATOM      8  C   LIG    1      -38.495  75.183  24.691  0.00  0.00    +0.118 A 
ATOM      9  C   LIG    1      -37.930  73.997  24.945  0.00  0.00    +0.063 A 
ENDROOT
BRANCH   1  11
ATOM     10  C   LIG    1      -39.094  70.272  24.906  0.00  0.00    +0.110 C 
ATOM     11  N   LIG    1      -38.295  71.516  25.104  0.00  0.00    -0.308 N 
ATOM     12  C   LIG    1      -37.352  71.344  26.205  0.00  0.00    +0.107 C 
ATOM     13  C   LIG    1      -37.971  70.251  27.054  0.00  0.00    +0.021 C 
ATOM     14  C   LIG    1      -38.609  69.330  26.029  0.00  0.00    +0.029 C 
BRANCH  10  16
ATOM     15  C   LIG    1      -39.964  69.493  22.619  0.00  0.00    +0.220 A 
ATOM     16  C   LIG    1      -38.904  69.682  23.517  0.00  0.00    +0.037 A 
ATOM     17  C   LIG    1      -37.629  69.305  23.056  0.00  0.00    +0.050 A 
ATOM     18  C   LIG    1      -37.468  68.752  21.798  0.00  0.00    +0.142 A 
ATOM     19  F   LIG    1      -36.252  68.393  21.371  0.00  0.00    -0.204 F 
ATOM     20  C   LIG    1      -38.579  68.572  21.008  0.00  0.00    +0.153 A 
ATOM     21  N   LIG    1      -39.822  68.939  21.387  0.00  0.00    -0.218 NA
BRANCH  15  23
ATOM     22  C   LIG    1      -42.095  68.794  23.303  0.00  0.00    +0.279 C 
ATOM     23  O   LIG    1      -41.230  69.895  22.996  0.00  0.00    -0.479 OA
ENDBRANCH  15  23
ENDBRANCH  10  16
ENDBRANCH   1  11
BRANCH   4  24
ATOM     24  C   LIG    1      -42.803  73.652  22.921  0.00  0.00    +0.249 C 
ATOM     25  N   LIG    1      -42.433  72.589  22.120  0.00  0.00    -0.309 N 
ATOM     26  H   LIG    1      -41.443  72.502  21.892  0.00  0.00    +0.149 HD
ATOM     27  O   LIG    1      -43.964  73.890  23.205  0.00  0.00    -0.270 OA
BRANCH  25  28
ATOM     28  C   LIG    1      -43.418  71.757  21.453  0.00  0.00    +0.138 C 
BRANCH  28  29
ATOM     29  C   LIG    1      -42.972  71.383  20.036  0.00  0.00    +0.157 C 
BRANCH  29  30
ATOM     30  O   LIG    1      -42.159  70.193  20.049  0.00  0.00    -0.388 OA
ATOM     31  H   LIG    1      -42.670  69.488  19.610  0.00  0.00    +0.210 HD
ENDBRANCH  29  30
BRANCH  29  32
ATOM     32  C   LIG    1      -44.171  71.102  19.127  0.00  0.00    +0.188 C 
BRANCH  32  33
ATOM     33  O   LIG    1      -43.709  70.774  17.815  0.00  0.00    -0.392 OA
ATOM     34  H   LIG    1      -43.960  69.836  17.688  0.00  0.00    +0.210 HD
ENDBRANCH  32  33
ENDBRANCH  29  32
ENDBRANCH  28  29
ENDBRANCH  25  28
ENDBRANCH   4  24
TORSDOF 9
ENDMDL
MODEL 6
REMARK VINA RESULT:      -5.1      2.792      5.299
REMARK  Name = pdb/CHEMBL3676021.pdb
REMARK                            x       y       z     vdW  Elec       q    Type
REMARK                         _______ _______ _______ _____ _____    ______ ____
ROOT
ATOM      1  C   LIG    1      -20.493  78.809  33.957  0.00  0.00    +0.126 A 
ATOM      2  N   LIG    1      -21.056  78.266  32.900  0.00  0.00    -0.212 NA
ATOM      3  C   LIG    1      -20.242  77.745  31.932  0.00  0.00    +0.170 A 
ATOM      4  C   LIG    1      -20.524  77.158  30.713  0.00  0.00    +0.100 A 
ATOM      5  C   LIG    1      -19.258  76.906  30.147  0.00  0.00    +0.150 A 
ATOM      6  N   LIG    1      -18.247  77.253  30.945  0.00  0.00    -0.173 NA
ATOM      7  N   LIG    1      -18.852  77.753  32.046  0.00  0.00    -0.221 N 
ATOM      8  C   LIG    1      -18.250  78.234  33.196  0.00  0.00    +0.118 A 
ATOM      9  C   LIG    1      -18.998  78.742  34.183  0.00  0.00    +0.063 A 
ENDROOT
BRANCH   1  11
ATOM     10  C   LIG    1      -22.748  79.111  35.033  0.00  0.00    +0.110 C 
ATOM     11  N   LIG    1      -21.303  79.451  34.886  0.00  0.00    -0.308 N 
ATOM     12  C   LIG    1      -21.056  80.822  35.324  0.00  0.00    +0.107 C 
ATOM     13  C   LIG    1      -22.400  81.507  35.167  0.00  0.00    +0.021 C 
ATOM     14  C   LIG    1      -23.393  80.419  35.540  0.00  0.00    +0.029 C 
BRANCH  10  16
ATOM     15  C   LIG    1      -23.390  76.676  35.535  0.00  0.00    +0.220 A 
ATOM     16  C   LIG    1      -22.970  77.939  35.976  0.00  0.00    +0.037 A 
ATOM     17  C   LIG    1      -22.747  78.067  37.359  0.00  0.00    +0.050 A 
ATOM     18  C   LIG    1      -22.970  77.001  38.213  0.00  0.00    +0.142 A 
ATOM     19  F   LIG    1      -22.758  77.135  39.527  0.00  0.00    -0.204 F 
ATOM     20  C   LIG    1      -23.419  75.814  37.684  0.00  0.00    +0.153 A 
ATOM     21  N   LIG    1      -23.624  75.625  36.363  0.00  0.00    -0.218 NA
BRANCH  15  23
ATOM     22  C   LIG    1      -23.926  75.123  33.862  0.00  0.00    +0.279 C 
ATOM     23  O   LIG    1      -23.572  76.475  34.181  0.00  0.00    -0.479 OA
ENDBRANCH  15  23
ENDBRANCH  10  16
ENDBRANCH   1  11
BRANCH   4  24
ATOM     24  C   LIG    1      -21.814  76.874  30.116  0.00  0.00    +0.249 C 
ATOM     25  N   LIG    1      -22.897  77.006  30.963  0.00  0.00    -0.309 N 
ATOM     26  H   LIG    1      -22.700  77.233  31.937  0.00  0.00    +0.149 HD
ATOM     27  O   LIG    1      -21.926  76.544  28.948  0.00  0.00    -0.270 OA
BRANCH  25  28
ATOM     28  C   LIG    1      -24.238  76.631  30.551  0.00  0.00    +0.138 C 
BRANCH  28  29
ATOM     29  C   LIG    1      -25.291  77.578  31.135  0.00  0.00    +0.157 C 
BRANCH  29  30
ATOM     30  O   LIG    1      -25.786  78.482  30.127  0.00  0.00    -0.388 OA
ATOM     31  H   LIG    1      -25.011  78.867  29.678  0.00  0.00    +0.210 HD
ENDBRANCH  29  30
BRANCH  29  32
ATOM     32  C   LIG    1      -26.495  76.807  31.683  0.00  0.00    +0.188 C 
BRANCH  32  33
ATOM     33  O   LIG    1      -27.672  77.605  31.552  0.00  0.00    -0.392 OA
ATOM     34  H   LIG    1      -28.399  77.038  31.883  0.00  0.00    +0.210 HD
ENDBRANCH  32  33
ENDBRANCH  29  32
ENDBRANCH  28  29
ENDBRANCH  25  28
ENDBRANCH   4  24
TORSDOF 9
ENDMDL
MODEL 7
REMARK VINA RESULT:      -5.1      3.197      6.270
REMARK  Name = pdb/CHEMBL3676021.pdb
REMARK                            x       y       z     vdW  Elec       q    Type
REMARK                         _______ _______ _______ _____ _____    ______ ____
ROOT
ATOM      1  C   LIG    1      -21.191  79.002  34.033  0.00  0.00    +0.126 A 
ATOM      2  N   LIG    1      -21.579  78.457  32.901  0.00  0.00    -0.212 NA
ATOM      3  C   LIG    1      -20.620  77.949  32.068  0.00  0.00    +0.170 A 
ATOM      4  C   LIG    1      -20.705  77.364  30.819  0.00  0.00    +0.100 A 
ATOM      5  C   LIG    1      -19.364  77.127  30.454  0.00  0.00    +0.150 A 
ATOM      6  N   LIG    1      -18.491  77.481  31.399  0.00  0.00    -0.173 NA
ATOM      7  N   LIG    1      -19.265  77.971  32.395  0.00  0.00    -0.221 N 
ATOM      8  C   LIG    1      -18.852  78.453  33.626  0.00  0.00    +0.118 A 
ATOM      9  C   LIG    1      -19.748  78.949  34.487  0.00  0.00    +0.063 A 
ENDROOT
BRANCH   1  11
ATOM     10  C   LIG    1      -22.168  79.453  36.309  0.00  0.00    +0.110 C 
ATOM     11  N   LIG    1      -22.142  79.631  34.828  0.00  0.00    -0.308 N 
ATOM     12  C   LIG    1      -23.473  79.971  34.334  0.00  0.00    +0.107 C 
ATOM     13  C   LIG    1      -24.411  79.417  35.390  0.00  0.00    +0.021 C 
ATOM     14  C   LIG    1      -23.652  79.646  36.686  0.00  0.00    +0.029 C 
BRANCH  10  16
ATOM     15  C   LIG    1      -20.359  80.036  38.035  0.00  0.00    +0.220 A 
ATOM     16  C   LIG    1      -21.245  80.429  37.023  0.00  0.00    +0.037 A 
ATOM     17  C   LIG    1      -21.230  81.794  36.682  0.00  0.00    +0.050 A 
ATOM     18  C   LIG    1      -20.401  82.679  37.349  0.00  0.00    +0.142 A 
ATOM     19  F   LIG    1      -20.396  83.975  37.020  0.00  0.00    -0.204 F 
ATOM     20  C   LIG    1      -19.596  82.199  38.355  0.00  0.00    +0.153 A 
ATOM     21  N   LIG    1      -19.549  80.896  38.706  0.00  0.00    -0.218 NA
BRANCH  15  23
ATOM     22  C   LIG    1      -19.002  78.126  38.116  0.00  0.00    +0.279 C 
ATOM     23  O   LIG    1      -20.290  78.699  38.374  0.00  0.00    -0.479 OA
ENDBRANCH  15  23
ENDBRANCH  10  16
ENDBRANCH   1  11
BRANCH   4  24
ATOM     24  C   LIG    1      -21.885  77.069  30.030  0.00  0.00    +0.249 C 
ATOM     25  N   LIG    1      -23.062  77.614  30.504  0.00  0.00    -0.309 N 
ATOM     26  H   LIG    1      -23.016  78.123  31.386  0.00  0.00    +0.149 HD
ATOM     27  O   LIG    1      -21.832  76.388  29.021  0.00  0.00    -0.270 OA
BRANCH  25  28
ATOM     28  C   LIG    1      -24.344  77.302  29.900  0.00  0.00    +0.138 C 
BRANCH  28  29
ATOM     29  C   LIG    1      -25.323  76.722  30.926  0.00  0.00    +0.157 C 
BRANCH  29  30
ATOM     30  O   LIG    1      -25.187  75.290  31.015  0.00  0.00    -0.388 OA
ATOM     31  H   LIG    1      -24.631  75.100  31.794  0.00  0.00    +0.210 HD
ENDBRANCH  29  30
BRANCH  29  32
ATOM     32  C   LIG    1      -25.068  77.289  32.325  0.00  0.00    +0.188 C 
BRANCH  32  33
ATOM     33  O   LIG    1      -24.008  76.561  32.948  0.00  0.00    -0.392 OA
ATOM     34  H   LIG    1      -24.456  75.868  33.476  0.00  0.00    +0.210 HD
ENDBRANCH  32  33
ENDBRANCH  29  32
ENDBRANCH  28  29
ENDBRANCH  25  28
ENDBRANCH   4  24
TORSDOF 9
ENDMDL
MODEL 8
REMARK VINA RESULT:      -5.1     13.581     17.355
REMARK  Name = pdb/CHEMBL3676021.pdb
REMARK                            x       y       z     vdW  Elec       q    Type
REMARK                         _______ _______ _______ _____ _____    ______ ____
ROOT
ATOM      1  C   LIG    1      -38.666  74.851  24.906  0.00  0.00    +0.126 A 
ATOM      2  N   LIG    1      -37.940  73.757  24.988  0.00  0.00    -0.212 NA
ATOM      3  C   LIG    1      -38.499  72.579  24.574  0.00  0.00    +0.170 A 
ATOM      4  C   LIG    1      -38.018  71.284  24.575  0.00  0.00    +0.100 A 
ATOM      5  C   LIG    1      -39.098  70.512  24.099  0.00  0.00    +0.150 A 
ATOM      6  N   LIG    1      -40.165  71.243  23.775  0.00  0.00    -0.173 NA
ATOM      7  N   LIG    1      -39.791  72.513  24.052  0.00  0.00    -0.221 N 
ATOM      8  C   LIG    1      -40.529  73.670  23.870  0.00  0.00    +0.118 A 
ATOM      9  C   LIG    1      -40.026  74.853  24.243  0.00  0.00    +0.063 A 
ENDROOT
BRANCH   1  11
ATOM     10  C   LIG    1      -37.909  76.188  26.900  0.00  0.00    +0.110 C 
ATOM     11  N   LIG    1      -38.155  76.030  25.437  0.00  0.00    -0.308 N 
ATOM     12  C   LIG    1      -38.386  77.331  24.816  0.00  0.00    +0.107 C 
ATOM     13  C   LIG    1      -38.875  78.202  25.957  0.00  0.00    +0.021 C 
ATOM     14  C   LIG    1      -38.074  77.703  27.147  0.00  0.00    +0.029 C 
BRANCH  10  16
ATOM     15  C   LIG    1      -36.359  74.440  27.964  0.00  0.00    +0.220 A 
ATOM     16  C   LIG    1      -36.541  75.668  27.312  0.00  0.00    +0.037 A 
ATOM     17  C   LIG    1      -35.373  76.403  27.041  0.00  0.00    +0.050 A 
ATOM     18  C   LIG    1      -34.133  75.931  27.437  0.00  0.00    +0.142 A 
ATOM     19  F   LIG    1      -33.028  76.639  27.177  0.00  0.00    -0.204 F 
ATOM     20  C   LIG    1      -34.066  74.731  28.105  0.00  0.00    +0.153 A 
ATOM     21  N   LIG    1      -35.150  73.971  28.369  0.00  0.00    -0.218 NA
BRANCH  15  23
ATOM     22  C   LIG    1      -37.897  73.703  29.573  0.00  0.00    +0.279 C 
ATOM     23  O   LIG    1      -37.464  73.649  28.208  0.00  0.00    -0.479 OA
ENDBRANCH  15  23
ENDBRANCH  10  16
ENDBRANCH   1  11
BRANCH   4  24
ATOM     24  C   LIG    1      -36.716  70.797  24.984  0.00  0.00    +0.249 C 
ATOM     25  N   LIG    1      -36.158  71.446  26.068  0.00  0.00    -0.309 N 
ATOM     26  H   LIG    1      -36.673  72.239  26.450  0.00  0.00    +0.149 HD
ATOM     27  O   LIG    1      -36.160  69.878  24.407  0.00  0.00    -0.270 OA
BRANCH  25  28
ATOM     28  C   LIG    1      -34.806  71.162  26.515  0.00  0.00    +0.138 C 
BRANCH  28  29
ATOM     29  C   LIG    1      -34.797  70.507  27.899  0.00  0.00    +0.157 C 
BRANCH  29  30
ATOM     30  O   LIG    1      -35.887  70.994  28.706  0.00  0.00    -0.388 OA
ATOM     31  H   LIG    1      -35.956  71.955  28.552  0.00  0.00    +0.210 HD
ENDBRANCH  29  30
BRANCH  29  32
ATOM     32  C   LIG    1      -34.952  68.987  27.800  0.00  0.00    +0.188 C 
BRANCH  32  33
ATOM     33  O   LIG    1      -34.567  68.552  26.495  0.00  0.00    -0.392 OA
ATOM     34  H   LIG    1      -35.216  68.968  25.890  0.00  0.00    +0.210 HD
ENDBRANCH  32  33
ENDBRANCH  29  32
ENDBRANCH  28  29
ENDBRANCH  25  28
ENDBRANCH   4  24
TORSDOF 9
ENDMDL
MODEL 9
REMARK VINA RESULT:      -5.0      2.545      5.130
REMARK  Name = pdb/CHEMBL3676021.pdb
REMARK                            x       y       z     vdW  Elec       q    Type
REMARK                         _______ _______ _______ _____ _____    ______ ____
ROOT
ATOM      1  C   LIG    1      -21.355  78.558  33.368  0.00  0.00    +0.126 A 
ATOM      2  N   LIG    1      -22.348  78.011  32.702  0.00  0.00    -0.212 NA
ATOM      3  C   LIG    1      -22.080  77.460  31.479  0.00  0.00    +0.170 A 
ATOM      4  C   LIG    1      -22.899  76.862  30.542  0.00  0.00    +0.100 A 
ATOM      5  C   LIG    1      -22.040  76.575  29.461  0.00  0.00    +0.150 A 
ATOM      6  N   LIG    1      -20.771  76.912  29.695  0.00  0.00    -0.173 NA
ATOM      7  N   LIG    1      -20.794  77.440  30.940  0.00  0.00    -0.221 N 
ATOM      8  C   LIG    1      -19.723  77.925  31.672  0.00  0.00    +0.118 A 
ATOM      9  C   LIG    1      -19.925  78.462  32.881  0.00  0.00    +0.063 A 
ENDROOT
BRANCH   1  11
ATOM     10  C   LIG    1      -23.031  79.359  35.066  0.00  0.00    +0.110 C 
ATOM     11  N   LIG    1      -21.637  79.229  34.552  0.00  0.00    -0.308 N 
ATOM     12  C   LIG    1      -20.809  80.327  35.044  0.00  0.00    +0.107 C 
ATOM     13  C   LIG    1      -21.803  81.430  35.349  0.00  0.00    +0.021 C 
ATOM     14  C   LIG    1      -23.014  80.677  35.870  0.00  0.00    +0.029 C 
BRANCH  10  16
ATOM     15  C   LIG    1      -24.791  77.816  36.120  0.00  0.00    +0.220 A 
ATOM     16  C   LIG    1      -23.450  78.161  35.903  0.00  0.00    +0.037 A 
ATOM     17  C   LIG    1      -22.491  77.321  36.498  0.00  0.00    +0.050 A 
ATOM     18  C   LIG    1      -22.881  76.243  37.274  0.00  0.00    +0.142 A 
ATOM     19  F   LIG    1      -21.961  75.452  37.838  0.00  0.00    -0.204 F 
ATOM     20  C   LIG    1      -24.223  76.012  37.457  0.00  0.00    +0.153 A 
ATOM     21  N   LIG    1      -25.187  76.769  36.890  0.00  0.00    -0.218 NA
BRANCH  15  23
ATOM     22  C   LIG    1      -26.989  78.617  36.278  0.00  0.00    +0.279 C 
ATOM     23  O   LIG    1      -25.776  78.572  35.516  0.00  0.00    -0.479 OA
ENDBRANCH  15  23
ENDBRANCH  10  16
ENDBRANCH   1  11
BRANCH   4  24
ATOM     24  C   LIG    1      -24.323  76.596  30.613  0.00  0.00    +0.249 C 
ATOM     25  N   LIG    1      -24.704  75.685  31.579  0.00  0.00    -0.309 N 
ATOM     26  H   LIG    1      -23.961  75.238  32.115  0.00  0.00    +0.149 HD
ATOM     27  O   LIG    1      -25.119  77.144  29.871  0.00  0.00    -0.270 OA
BRANCH  25  28
ATOM     28  C   LIG    1      -26.074  75.218  31.688  0.00  0.00    +0.138 C 
BRANCH  28  29
ATOM     29  C   LIG    1      -26.686  75.579  33.044  0.00  0.00    +0.157 C 
BRANCH  29  30
ATOM     30  O   LIG    1      -25.657  75.825  34.024  0.00  0.00    -0.388 OA
ATOM     31  H   LIG    1      -25.637  76.786  34.188  0.00  0.00    +0.210 HD
ENDBRANCH  29  30
BRANCH  29  32
ATOM     32  C   LIG    1      -27.536  76.849  32.954  0.00  0.00    +0.188 C 
BRANCH  32  33
ATOM     33  O   LIG    1      -27.424  77.407  31.644  0.00  0.00    -0.392 OA
ATOM     34  H   LIG    1      -27.818  76.735  31.050  0.00  0.00    +0.210 HD
ENDBRANCH  32  33
ENDBRANCH  29  32
ENDBRANCH  28  29
ENDBRANCH  25  28
ENDBRANCH   4  24
TORSDOF 9
ENDMDL
