MODEL 1
REMARK VINA RESULT:      -6.9      0.000      0.000
REMARK  Name = pdb/CHEMBL3976305.pdb
REMARK                            x       y       z     vdW  Elec       q    Type
REMARK                         _______ _______ _______ _____ _____    ______ ____
ROOT
ATOM      1  C   LIG    1      -27.935  78.645  11.216  0.00  0.00    +0.323 A 
ATOM      2  N   LIG    1      -27.222  79.450  10.407  0.00  0.00    -0.201 NA
ATOM      3  C   LIG    1      -26.059  79.919  10.898  0.00  0.00    +0.145 A 
ATOM      4  C   LIG    1      -25.610  79.724  12.186  0.00  0.00    +0.105 A 
ATOM      5  C   LIG    1      -26.430  78.890  12.928  0.00  0.00    +0.145 A 
ATOM      6  N   LIG    1      -27.593  78.340  12.479  0.00  0.00    -0.201 NA
ENDROOT
BRANCH   4   7
ATOM      7  N   LIG    1      -24.366  80.193  12.653  0.00  0.00    -0.196 NA
ATOM      8  C   LIG    1      -24.196  81.326  13.232  0.00  0.00    +0.285 C 
BRANCH   8   9
ATOM      9  N   LIG    1      -23.017  81.918  13.588  0.00  0.00    -0.269 N 
ATOM     10  H   LIG    1      -22.258  81.270  13.756  0.00  0.00    +0.157 HD
BRANCH   9  11
ATOM     11  C   LIG    1      -22.813  83.245  13.994  0.00  0.00    +0.047 A 
ATOM     12  C   LIG    1      -22.531  83.569  15.337  0.00  0.00    +0.077 A 
ATOM     13  C   LIG    1      -22.288  84.917  15.690  0.00  0.00    +0.026 A 
ATOM     14  C   LIG    1      -22.299  85.943  14.738  0.00  0.00    +0.055 A 
ATOM     15  C   LIG    1      -22.574  85.615  13.411  0.00  0.00    +0.014 A 
ATOM     16  C   LIG    1      -22.821  84.288  13.050  0.00  0.00    +0.024 A 
BRANCH  12  17
ATOM     17  C   LIG    1      -22.439  82.553  16.452  0.00  0.00    +0.419 C 
ATOM     18  F   LIG    1      -22.675  83.116  17.671  0.00  0.00    -0.166 F 
ATOM     19  F   LIG    1      -21.199  81.995  16.541  0.00  0.00    -0.166 F 
ATOM     20  F   LIG    1      -23.313  81.512  16.358  0.00  0.00    -0.166 F 
ENDBRANCH  12  17
BRANCH  14  21
ATOM     21  C   LIG    1      -22.001  87.364  15.151  0.00  0.00    +0.417 C 
ATOM     22  F   LIG    1      -23.033  88.209  14.873  0.00  0.00    -0.166 F 
ATOM     23  F   LIG    1      -20.917  87.872  14.505  0.00  0.00    -0.166 F 
ATOM     24  F   LIG    1      -21.748  87.504  16.481  0.00  0.00    -0.166 F 
ENDBRANCH  14  21
ENDBRANCH   9  11
ENDBRANCH   8   9
BRANCH   8  25
ATOM     25  O   LIG    1      -25.203  82.126  13.642  0.00  0.00    -0.481 OA
ATOM     26  H   LIG    1      -26.021  81.942  13.157  0.00  0.00    +0.295 HD
ENDBRANCH   8  25
ENDBRANCH   4   7
BRANCH   1  27
ATOM     27  O   LIG    1      -29.104  78.061  10.720  0.00  0.00    -0.424 OA
BRANCH  27  31
ATOM     28  C   LIG    1      -32.504  80.551  10.248  0.00  0.00    -0.014 A 
ATOM     29  C   LIG    1      -32.292  79.807  11.424  0.00  0.00    +0.012 A 
ATOM     30  C   LIG    1      -31.152  79.022  11.614  0.00  0.00    +0.047 A 
ATOM     31  C   LIG    1      -30.207  78.883  10.600  0.00  0.00    +0.132 A 
ATOM     32  C   LIG    1      -30.358  79.639   9.440  0.00  0.00    +0.047 A 
ATOM     33  C   LIG    1      -31.487  80.467   9.275  0.00  0.00    +0.012 A 
BRANCH  28  35
ATOM     34  C   LIG    1      -33.957  82.626  10.759  0.00  0.00    +0.124 A 
ATOM     35  C   LIG    1      -33.726  81.402  10.094  0.00  0.00    +0.023 A 
ATOM     36  C   LIG    1      -34.762  80.985   9.226  0.00  0.00    +0.033 A 
ATOM     37  C   LIG    1      -35.917  81.742   9.060  0.00  0.00    +0.060 A 
ATOM     38 CL   LIG    1      -37.161  81.222   8.000  0.00  0.00    -0.082 Cl
ATOM     39  C   LIG    1      -36.033  82.915   9.773  0.00  0.00    +0.133 A 
ATOM     40  N   LIG    1      -35.081  83.367  10.617  0.00  0.00    -0.239 NA
BRANCH  34  41
ATOM     41  N   LIG    1      -33.041  83.221  11.623  0.00  0.00    -0.343 N 
ATOM     42  H   LIG    1      -33.049  82.758  12.525  0.00  0.00    +0.144 HD
ATOM     43  H   LIG    1      -32.134  83.130  11.171  0.00  0.00    +0.144 HD
ENDBRANCH  34  41
ENDBRANCH  28  35
ENDBRANCH  27  31
ENDBRANCH   1  27
TORSDOF 10
ENDMDL
MODEL 2
REMARK VINA RESULT:      -6.9     16.180     19.697
REMARK  Name = pdb/CHEMBL3976305.pdb
REMARK                            x       y       z     vdW  Elec       q    Type
REMARK                         _______ _______ _______ _____ _____    ______ ____
ROOT
ATOM      1  C   LIG    1      -36.821  66.940  19.796  0.00  0.00    +0.323 A 
ATOM      2  N   LIG    1      -36.970  68.276  19.734  0.00  0.00    -0.201 NA
ATOM      3  C   LIG    1      -37.659  68.850  20.740  0.00  0.00    +0.145 A 
ATOM      4  C   LIG    1      -38.301  68.167  21.749  0.00  0.00    +0.105 A 
ATOM      5  C   LIG    1      -38.086  66.799  21.702  0.00  0.00    +0.145 A 
ATOM      6  N   LIG    1      -37.359  66.156  20.745  0.00  0.00    -0.201 NA
ENDROOT
BRANCH   4   7
ATOM      7  N   LIG    1      -38.976  68.802  22.809  0.00  0.00    -0.196 NA
ATOM      8  C   LIG    1      -39.966  69.605  22.653  0.00  0.00    +0.285 C 
BRANCH   8   9
ATOM      9  N   LIG    1      -40.584  70.368  23.603  0.00  0.00    -0.269 N 
ATOM     10  H   LIG    1      -41.291  69.880  24.137  0.00  0.00    +0.157 HD
BRANCH   9  11
ATOM     11  C   LIG    1      -40.545  71.764  23.738  0.00  0.00    +0.047 A 
ATOM     12  C   LIG    1      -39.437  72.418  24.314  0.00  0.00    +0.077 A 
ATOM     13  C   LIG    1      -39.424  73.830  24.387  0.00  0.00    +0.026 A 
ATOM     14  C   LIG    1      -40.476  74.606  23.884  0.00  0.00    +0.055 A 
ATOM     15  C   LIG    1      -41.567  73.952  23.311  0.00  0.00    +0.014 A 
ATOM     16  C   LIG    1      -41.594  72.557  23.238  0.00  0.00    +0.024 A 
BRANCH  12  17
ATOM     17  C   LIG    1      -38.216  71.705  24.849  0.00  0.00    +0.419 C 
ATOM     18  F   LIG    1      -37.434  72.532  25.599  0.00  0.00    -0.166 F 
ATOM     19  F   LIG    1      -37.409  71.244  23.851  0.00  0.00    -0.166 F 
ATOM     20  F   LIG    1      -38.478  70.631  25.645  0.00  0.00    -0.166 F 
ENDBRANCH  12  17
BRANCH  14  21
ATOM     21  C   LIG    1      -40.408  76.112  23.951  0.00  0.00    +0.417 C 
ATOM     22  F   LIG    1      -41.027  76.703  22.892  0.00  0.00    -0.166 F 
ATOM     23  F   LIG    1      -39.127  76.571  23.940  0.00  0.00    -0.166 F 
ATOM     24  F   LIG    1      -40.986  76.635  25.066  0.00  0.00    -0.166 F 
ENDBRANCH  14  21
ENDBRANCH   9  11
ENDBRANCH   8   9
BRANCH   8  25
ATOM     25  O   LIG    1      -40.611  69.794  21.484  0.00  0.00    -0.481 OA
ATOM     26  H   LIG    1      -40.458  70.684  21.134  0.00  0.00    +0.295 HD
ENDBRANCH   8  25
ENDBRANCH   4   7
BRANCH   1  27
ATOM     27  O   LIG    1      -36.039  66.307  18.825  0.00  0.00    -0.424 OA
BRANCH  27  31
ATOM     28  C   LIG    1      -31.998  67.565  18.552  0.00  0.00    -0.014 A 
ATOM     29  C   LIG    1      -32.484  66.885  19.686  0.00  0.00    +0.012 A 
ATOM     30  C   LIG    1      -33.800  66.422  19.769  0.00  0.00    +0.047 A 
ATOM     31  C   LIG    1      -34.713  66.686  18.751  0.00  0.00    +0.132 A 
ATOM     32  C   LIG    1      -34.258  67.315  17.593  0.00  0.00    +0.047 A 
ATOM     33  C   LIG    1      -32.917  67.738  17.497  0.00  0.00    +0.012 A 
BRANCH  28  35
ATOM     34  C   LIG    1      -29.450  67.178  18.364  0.00  0.00    +0.124 A 
ATOM     35  C   LIG    1      -30.574  68.023  18.491  0.00  0.00    +0.023 A 
ATOM     36  C   LIG    1      -30.281  69.405  18.567  0.00  0.00    +0.033 A 
ATOM     37  C   LIG    1      -28.972  69.872  18.520  0.00  0.00    +0.060 A 
ATOM     38 CL   LIG    1      -28.637  71.552  18.610  0.00  0.00    -0.082 Cl
ATOM     39  C   LIG    1      -27.957  68.949  18.408  0.00  0.00    +0.133 A 
ATOM     40  N   LIG    1      -28.170  67.618  18.332  0.00  0.00    -0.239 NA
BRANCH  34  41
ATOM     41  N   LIG    1      -29.533  65.794  18.238  0.00  0.00    -0.343 N 
ATOM     42  H   LIG    1      -30.349  65.440  18.726  0.00  0.00    +0.144 HD
ATOM     43  H   LIG    1      -29.593  65.611  17.239  0.00  0.00    +0.144 HD
ENDBRANCH  34  41
ENDBRANCH  28  35
ENDBRANCH  27  31
ENDBRANCH   1  27
TORSDOF 10
ENDMDL
MODEL 3
REMARK VINA RESULT:      -6.9     16.262     19.856
REMARK  Name = pdb/CHEMBL3976305.pdb
REMARK                            x       y       z     vdW  Elec       q    Type
REMARK                         _______ _______ _______ _____ _____    ______ ____
ROOT
ATOM      1  C   LIG    1      -36.766  66.944  20.099  0.00  0.00    +0.323 A 
ATOM      2  N   LIG    1      -37.030  68.231  19.808  0.00  0.00    -0.201 NA
ATOM      3  C   LIG    1      -37.696  68.935  20.744  0.00  0.00    +0.145 A 
ATOM      4  C   LIG    1      -38.211  68.410  21.909  0.00  0.00    +0.105 A 
ATOM      5  C   LIG    1      -37.887  67.076  22.095  0.00  0.00    +0.145 A 
ATOM      6  N   LIG    1      -37.174  66.317  21.215  0.00  0.00    -0.201 NA
ENDROOT
BRANCH   4   7
ATOM      7  N   LIG    1      -38.865  69.185  22.886  0.00  0.00    -0.196 NA
ATOM      8  C   LIG    1      -39.962  69.821  22.685  0.00  0.00    +0.285 C 
BRANCH   8   9
ATOM      9  N   LIG    1      -40.586  70.702  23.523  0.00  0.00    -0.269 N 
ATOM     10  H   LIG    1      -41.506  70.409  23.827  0.00  0.00    +0.157 HD
BRANCH   9  11
ATOM     11  C   LIG    1      -40.232  72.034  23.783  0.00  0.00    +0.047 A 
ATOM     12  C   LIG    1      -41.080  73.104  23.432  0.00  0.00    +0.077 A 
ATOM     13  C   LIG    1      -40.700  74.427  23.757  0.00  0.00    +0.026 A 
ATOM     14  C   LIG    1      -39.509  74.708  24.437  0.00  0.00    +0.055 A 
ATOM     15  C   LIG    1      -38.677  73.645  24.785  0.00  0.00    +0.014 A 
ATOM     16  C   LIG    1      -39.039  72.333  24.466  0.00  0.00    +0.024 A 
BRANCH  12  17
ATOM     17  C   LIG    1      -42.414  72.936  22.742  0.00  0.00    +0.419 C 
ATOM     18  F   LIG    1      -43.026  74.135  22.522  0.00  0.00    -0.166 F 
ATOM     19  F   LIG    1      -43.293  72.208  23.488  0.00  0.00    -0.166 F 
ATOM     20  F   LIG    1      -42.361  72.327  21.525  0.00  0.00    -0.166 F 
ENDBRANCH  12  17
BRANCH  14  21
ATOM     21  C   LIG    1      -39.157  76.132  24.794  0.00  0.00    +0.417 C 
ATOM     22  F   LIG    1      -37.811  76.330  24.851  0.00  0.00    -0.166 F 
ATOM     23  F   LIG    1      -39.641  76.492  26.014  0.00  0.00    -0.166 F 
ATOM     24  F   LIG    1      -39.636  77.050  23.911  0.00  0.00    -0.166 F 
ENDBRANCH  14  21
ENDBRANCH   9  11
ENDBRANCH   8   9
BRANCH   8  25
ATOM     25  O   LIG    1      -40.730  69.678  21.585  0.00  0.00    -0.481 OA
ATOM     26  H   LIG    1      -40.208  69.379  20.825  0.00  0.00    +0.295 HD
ENDBRANCH   8  25
ENDBRANCH   4   7
BRANCH   1  27
ATOM     27  O   LIG    1      -36.000  66.197  19.200  0.00  0.00    -0.424 OA
BRANCH  27  31
ATOM     28  C   LIG    1      -32.008  67.499  18.610  0.00  0.00    -0.014 A 
ATOM     29  C   LIG    1      -32.409  66.864  19.802  0.00  0.00    +0.012 A 
ATOM     30  C   LIG    1      -33.708  66.385  19.990  0.00  0.00    +0.047 A 
ATOM     31  C   LIG    1      -34.689  66.591  19.023  0.00  0.00    +0.132 A 
ATOM     32  C   LIG    1      -34.320  67.173  17.812  0.00  0.00    +0.047 A 
ATOM     33  C   LIG    1      -32.995  67.610  17.610  0.00  0.00    +0.012 A 
BRANCH  28  35
ATOM     34  C   LIG    1      -29.491  67.151  18.139  0.00  0.00    +0.124 A 
ATOM     35  C   LIG    1      -30.599  67.974  18.437  0.00  0.00    +0.023 A 
ATOM     36  C   LIG    1      -30.304  69.350  18.576  0.00  0.00    +0.033 A 
ATOM     37  C   LIG    1      -29.008  69.832  18.429  0.00  0.00    +0.060 A 
ATOM     38 CL   LIG    1      -28.670  71.506  18.598  0.00  0.00    -0.082 Cl
ATOM     39  C   LIG    1      -28.006  68.929  18.151  0.00  0.00    +0.133 A 
ATOM     40  N   LIG    1      -28.222  67.604  18.007  0.00  0.00    -0.239 NA
BRANCH  34  41
ATOM     41  N   LIG    1      -29.583  65.777  17.928  0.00  0.00    -0.343 N 
ATOM     42  H   LIG    1      -30.207  65.353  18.605  0.00  0.00    +0.144 HD
ATOM     43  H   LIG    1      -29.937  65.666  16.981  0.00  0.00    +0.144 HD
ENDBRANCH  34  41
ENDBRANCH  28  35
ENDBRANCH  27  31
ENDBRANCH   1  27
TORSDOF 10
ENDMDL
MODEL 4
REMARK VINA RESULT:      -6.7     16.425     19.841
REMARK  Name = pdb/CHEMBL3976305.pdb
REMARK                            x       y       z     vdW  Elec       q    Type
REMARK                         _______ _______ _______ _____ _____    ______ ____
ROOT
ATOM      1  C   LIG    1      -36.681  67.074  20.059  0.00  0.00    +0.323 A 
ATOM      2  N   LIG    1      -36.978  68.351  19.759  0.00  0.00    -0.201 NA
ATOM      3  C   LIG    1      -37.587  69.069  20.723  0.00  0.00    +0.145 A 
ATOM      4  C   LIG    1      -38.015  68.565  21.931  0.00  0.00    +0.105 A 
ATOM      5  C   LIG    1      -37.664  67.239  22.123  0.00  0.00    +0.145 A 
ATOM      6  N   LIG    1      -37.005  66.467  21.214  0.00  0.00    -0.201 NA
ENDROOT
BRANCH   4   7
ATOM      7  N   LIG    1      -38.609  69.354  22.935  0.00  0.00    -0.196 NA
ATOM      8  C   LIG    1      -39.772  69.891  22.834  0.00  0.00    +0.285 C 
BRANCH   8   9
ATOM      9  N   LIG    1      -40.363  70.778  23.689  0.00  0.00    -0.269 N 
ATOM     10  H   LIG    1      -41.274  70.492  24.024  0.00  0.00    +0.157 HD
BRANCH   9  11
ATOM     11  C   LIG    1      -39.991  72.108  23.934  0.00  0.00    +0.047 A 
ATOM     12  C   LIG    1      -40.834  73.184  23.588  0.00  0.00    +0.077 A 
ATOM     13  C   LIG    1      -40.435  74.506  23.896  0.00  0.00    +0.026 A 
ATOM     14  C   LIG    1      -39.231  74.780  24.556  0.00  0.00    +0.055 A 
ATOM     15  C   LIG    1      -38.404  73.710  24.899  0.00  0.00    +0.014 A 
ATOM     16  C   LIG    1      -38.784  72.400  24.595  0.00  0.00    +0.024 A 
BRANCH  12  17
ATOM     17  C   LIG    1      -42.180  73.025  22.920  0.00  0.00    +0.419 C 
ATOM     18  F   LIG    1      -42.741  74.230  22.616  0.00  0.00    -0.166 F 
ATOM     19  F   LIG    1      -43.083  72.394  23.724  0.00  0.00    -0.166 F 
ATOM     20  F   LIG    1      -42.165  72.325  21.752  0.00  0.00    -0.166 F 
ENDBRANCH  12  17
BRANCH  14  21
ATOM     21  C   LIG    1      -38.859  76.202  24.896  0.00  0.00    +0.417 C 
ATOM     22  F   LIG    1      -37.803  76.648  24.161  0.00  0.00    -0.166 F 
ATOM     23  F   LIG    1      -38.494  76.342  26.200  0.00  0.00    -0.166 F 
ATOM     24  F   LIG    1      -39.866  77.094  24.689  0.00  0.00    -0.166 F 
ENDBRANCH  14  21
ENDBRANCH   9  11
ENDBRANCH   8   9
BRANCH   8  25
ATOM     25  O   LIG    1      -40.652  69.613  21.849  0.00  0.00    -0.481 OA
ATOM     26  H   LIG    1      -40.661  68.668  21.639  0.00  0.00    +0.295 HD
ENDBRANCH   8  25
ENDBRANCH   4   7
BRANCH   1  27
ATOM     27  O   LIG    1      -35.969  66.314  19.126  0.00  0.00    -0.424 OA
BRANCH  27  31
ATOM     28  C   LIG    1      -31.862  67.229  18.598  0.00  0.00    -0.014 A 
ATOM     29  C   LIG    1      -32.815  67.511  17.600  0.00  0.00    +0.012 A 
ATOM     30  C   LIG    1      -34.178  67.260  17.780  0.00  0.00    +0.047 A 
ATOM     31  C   LIG    1      -34.641  66.643  18.939  0.00  0.00    +0.132 A 
ATOM     32  C   LIG    1      -33.736  66.391  19.968  0.00  0.00    +0.047 A 
ATOM     33  C   LIG    1      -32.369  66.690  19.798  0.00  0.00    +0.012 A 
BRANCH  28  35
ATOM     34  C   LIG    1      -29.812  68.801  18.552  0.00  0.00    +0.124 A 
ATOM     35  C   LIG    1      -30.414  67.536  18.377  0.00  0.00    +0.023 A 
ATOM     36  C   LIG    1      -29.539  66.509  17.954  0.00  0.00    +0.033 A 
ATOM     37  C   LIG    1      -28.188  66.753  17.730  0.00  0.00    +0.060 A 
ATOM     38 CL   LIG    1      -27.141  65.493  17.220  0.00  0.00    -0.082 Cl
ATOM     39  C   LIG    1      -27.719  68.034  17.923  0.00  0.00    +0.133 A 
ATOM     40  N   LIG    1      -28.502  69.057  18.326  0.00  0.00    -0.239 NA
BRANCH  34  41
ATOM     41  N   LIG    1      -30.498  69.928  18.999  0.00  0.00    -0.343 N 
ATOM     42  H   LIG    1      -30.130  70.766  18.562  0.00  0.00    +0.144 HD
ATOM     43  H   LIG    1      -31.472  69.778  18.746  0.00  0.00    +0.144 HD
ENDBRANCH  34  41
ENDBRANCH  28  35
ENDBRANCH  27  31
ENDBRANCH   1  27
TORSDOF 10
ENDMDL
MODEL 5
REMARK VINA RESULT:      -6.6      6.866     10.197
REMARK  Name = pdb/CHEMBL3976305.pdb
REMARK                            x       y       z     vdW  Elec       q    Type
REMARK                         _______ _______ _______ _____ _____    ______ ____
ROOT
ATOM      1  C   LIG    1      -22.239  88.719  10.835  0.00  0.00    +0.323 A 
ATOM      2  N   LIG    1      -22.939  87.702  10.300  0.00  0.00    -0.201 NA
ATOM      3  C   LIG    1      -22.767  86.491  10.865  0.00  0.00    +0.145 A 
ATOM      4  C   LIG    1      -21.861  86.207  11.863  0.00  0.00    +0.105 A 
ATOM      5  C   LIG    1      -21.191  87.327  12.325  0.00  0.00    +0.145 A 
ATOM      6  N   LIG    1      -21.351  88.589  11.836  0.00  0.00    -0.201 NA
ENDROOT
BRANCH   4   7
ATOM      7  N   LIG    1      -21.738  84.937  12.461  0.00  0.00    -0.196 NA
ATOM      8  C   LIG    1      -22.324  84.596  13.551  0.00  0.00    +0.285 C 
BRANCH   8   9
ATOM      9  N   LIG    1      -22.154  83.447  14.271  0.00  0.00    -0.269 N 
ATOM     10  H   LIG    1      -21.221  83.322  14.643  0.00  0.00    +0.157 HD
BRANCH   9  11
ATOM     11  C   LIG    1      -23.008  82.336  14.324  0.00  0.00    +0.047 A 
ATOM     12  C   LIG    1      -23.054  81.497  15.456  0.00  0.00    +0.077 A 
ATOM     13  C   LIG    1      -23.964  80.414  15.481  0.00  0.00    +0.026 A 
ATOM     14  C   LIG    1      -24.840  80.160  14.419  0.00  0.00    +0.055 A 
ATOM     15  C   LIG    1      -24.792  80.997  13.304  0.00  0.00    +0.014 A 
ATOM     16  C   LIG    1      -23.894  82.066  13.265  0.00  0.00    +0.024 A 
BRANCH  12  17
ATOM     17  C   LIG    1      -22.201  81.688  16.689  0.00  0.00    +0.419 C 
ATOM     18  F   LIG    1      -22.571  82.794  17.395  0.00  0.00    -0.166 F 
ATOM     19  F   LIG    1      -20.886  81.873  16.382  0.00  0.00    -0.166 F 
ATOM     20  F   LIG    1      -22.236  80.659  17.580  0.00  0.00    -0.166 F 
ENDBRANCH  12  17
BRANCH  14  21
ATOM     21  C   LIG    1      -25.819  79.014  14.500  0.00  0.00    +0.417 C 
ATOM     22  F   LIG    1      -26.430  78.944  15.715  0.00  0.00    -0.166 F 
ATOM     23  F   LIG    1      -25.217  77.808  14.314  0.00  0.00    -0.166 F 
ATOM     24  F   LIG    1      -26.819  79.084  13.580  0.00  0.00    -0.166 F 
ENDBRANCH  14  21
ENDBRANCH   9  11
ENDBRANCH   8   9
BRANCH   8  25
ATOM     25  O   LIG    1      -23.280  85.330  14.159  0.00  0.00    -0.481 OA
ATOM     26  H   LIG    1      -24.139  85.221  13.727  0.00  0.00    +0.295 HD
ENDBRANCH   8  25
ENDBRANCH   4   7
BRANCH   1  27
ATOM     27  O   LIG    1      -22.450  90.010  10.344  0.00  0.00    -0.424 OA
BRANCH  27  31
ATOM     28  C   LIG    1      -25.762  92.079  11.997  0.00  0.00    -0.014 A 
ATOM     29  C   LIG    1      -24.842  92.720  11.144  0.00  0.00    +0.012 A 
ATOM     30  C   LIG    1      -23.775  92.039  10.553  0.00  0.00    +0.047 A 
ATOM     31  C   LIG    1      -23.533  90.700  10.851  0.00  0.00    +0.132 A 
ATOM     32  C   LIG    1      -24.448  90.019  11.652  0.00  0.00    +0.047 A 
ATOM     33  C   LIG    1      -25.549  90.701  12.207  0.00  0.00    +0.012 A 
BRANCH  28  35
ATOM     34  C   LIG    1      -28.251  92.755  12.160  0.00  0.00    +0.124 A 
ATOM     35  C   LIG    1      -26.908  92.837  12.589  0.00  0.00    +0.023 A 
ATOM     36  C   LIG    1      -26.676  93.723  13.667  0.00  0.00    +0.033 A 
ATOM     37  C   LIG    1      -27.711  94.452  14.242  0.00  0.00    +0.060 A 
ATOM     38 CL   LIG    1      -27.411  95.520  15.551  0.00  0.00    -0.082 Cl
ATOM     39  C   LIG    1      -28.979  94.297  13.727  0.00  0.00    +0.133 A 
ATOM     40  N   LIG    1      -29.266  93.468  12.701  0.00  0.00    -0.239 NA
BRANCH  34  41
ATOM     41  N   LIG    1      -28.686  91.913  11.140  0.00  0.00    -0.343 N 
ATOM     42  H   LIG    1      -28.022  91.907  10.373  0.00  0.00    +0.144 HD
ATOM     43  H   LIG    1      -28.770  90.989  11.560  0.00  0.00    +0.144 HD
ENDBRANCH  34  41
ENDBRANCH  28  35
ENDBRANCH  27  31
ENDBRANCH   1  27
TORSDOF 10
ENDMDL
MODEL 6
REMARK VINA RESULT:      -6.4     18.054     19.508
REMARK  Name = pdb/CHEMBL3976305.pdb
REMARK                            x       y       z     vdW  Elec       q    Type
REMARK                         _______ _______ _______ _____ _____    ______ ____
ROOT
ATOM      1  C   LIG    1      -32.855  76.441  30.411  0.00  0.00    +0.323 A 
ATOM      2  N   LIG    1      -32.660  76.408  31.742  0.00  0.00    -0.201 NA
ATOM      3  C   LIG    1      -31.410  76.129  32.160  0.00  0.00    +0.145 A 
ATOM      4  C   LIG    1      -30.363  75.775  31.338  0.00  0.00    +0.105 A 
ATOM      5  C   LIG    1      -30.685  75.832  29.992  0.00  0.00    +0.145 A 
ATOM      6  N   LIG    1      -31.912  76.155  29.496  0.00  0.00    -0.201 NA
ENDROOT
BRANCH   4   7
ATOM      7  N   LIG    1      -29.057  75.533  31.806  0.00  0.00    -0.196 NA
ATOM      8  C   LIG    1      -28.101  76.388  31.746  0.00  0.00    +0.285 C 
BRANCH   8   9
ATOM      9  N   LIG    1      -26.782  76.193  32.043  0.00  0.00    -0.269 N 
ATOM     10  H   LIG    1      -26.447  75.254  31.865  0.00  0.00    +0.157 HD
BRANCH   9  11
ATOM     11  C   LIG    1      -25.939  77.030  32.789  0.00  0.00    +0.047 A 
ATOM     12  C   LIG    1      -24.769  77.584  32.230  0.00  0.00    +0.077 A 
ATOM     13  C   LIG    1      -23.975  78.459  33.008  0.00  0.00    +0.026 A 
ATOM     14  C   LIG    1      -24.328  78.811  34.316  0.00  0.00    +0.055 A 
ATOM     15  C   LIG    1      -25.489  78.263  34.861  0.00  0.00    +0.014 A 
ATOM     16  C   LIG    1      -26.279  77.393  34.105  0.00  0.00    +0.024 A 
BRANCH  12  17
ATOM     17  C   LIG    1      -24.302  77.328  30.816  0.00  0.00    +0.419 C 
ATOM     18  F   LIG    1      -25.188  77.803  29.895  0.00  0.00    -0.166 F 
ATOM     19  F   LIG    1      -24.174  75.997  30.549  0.00  0.00    -0.166 F 
ATOM     20  F   LIG    1      -23.104  77.891  30.493  0.00  0.00    -0.166 F 
ENDBRANCH  12  17
BRANCH  14  21
ATOM     21  C   LIG    1      -23.471  79.775  35.100  0.00  0.00    +0.417 C 
ATOM     22  F   LIG    1      -22.298  80.054  34.466  0.00  0.00    -0.166 F 
ATOM     23  F   LIG    1      -23.128  79.284  36.322  0.00  0.00    -0.166 F 
ATOM     24  F   LIG    1      -24.069  80.975  35.330  0.00  0.00    -0.166 F 
ENDBRANCH  14  21
ENDBRANCH   9  11
ENDBRANCH   8   9
BRANCH   8  25
ATOM     25  O   LIG    1      -28.264  77.685  31.412  0.00  0.00    -0.481 OA
ATOM     26  H   LIG    1      -29.087  78.043  31.776  0.00  0.00    +0.295 HD
ENDBRANCH   8  25
ENDBRANCH   4   7
BRANCH   1  27
ATOM     27  O   LIG    1      -34.112  76.813  29.926  0.00  0.00    -0.424 OA
BRANCH  27  31
ATOM     28  C   LIG    1      -34.812  80.936  29.224  0.00  0.00    -0.014 A 
ATOM     29  C   LIG    1      -35.134  80.332  30.454  0.00  0.00    +0.012 A 
ATOM     30  C   LIG    1      -34.864  78.986  30.717  0.00  0.00    +0.047 A 
ATOM     31  C   LIG    1      -34.328  78.163  29.730  0.00  0.00    +0.132 A 
ATOM     32  C   LIG    1      -33.952  78.734  28.516  0.00  0.00    +0.047 A 
ATOM     33  C   LIG    1      -34.184  80.103  28.275  0.00  0.00    +0.012 A 
BRANCH  28  35
ATOM     34  C   LIG    1      -36.076  82.898  28.114  0.00  0.00    +0.124 A 
ATOM     35  C   LIG    1      -35.094  82.388  28.991  0.00  0.00    +0.023 A 
ATOM     36  C   LIG    1      -34.339  83.365  29.680  0.00  0.00    +0.033 A 
ATOM     37  C   LIG    1      -34.564  84.724  29.488  0.00  0.00    +0.060 A 
ATOM     38 CL   LIG    1      -33.639  85.895  30.335  0.00  0.00    -0.082 Cl
ATOM     39  C   LIG    1      -35.543  85.100  28.595  0.00  0.00    +0.133 A 
ATOM     40  N   LIG    1      -36.297  84.217  27.907  0.00  0.00    -0.239 NA
BRANCH  34  41
ATOM     41  N   LIG    1      -36.944  82.097  27.376  0.00  0.00    -0.343 N 
ATOM     42  H   LIG    1      -36.741  81.115  27.529  0.00  0.00    +0.144 HD
ATOM     43  H   LIG    1      -37.880  82.334  27.699  0.00  0.00    +0.144 HD
ENDBRANCH  34  41
ENDBRANCH  28  35
ENDBRANCH  27  31
ENDBRANCH   1  27
TORSDOF 10
ENDMDL
MODEL 7
REMARK VINA RESULT:      -6.4     17.496     19.841
REMARK  Name = pdb/CHEMBL3976305.pdb
REMARK                            x       y       z     vdW  Elec       q    Type
REMARK                         _______ _______ _______ _____ _____    ______ ____
ROOT
ATOM      1  C   LIG    1      -36.753  80.270  28.049  0.00  0.00    +0.323 A 
ATOM      2  N   LIG    1      -37.910  79.967  27.432  0.00  0.00    -0.201 NA
ATOM      3  C   LIG    1      -38.102  78.670  27.119  0.00  0.00    +0.145 A 
ATOM      4  C   LIG    1      -37.168  77.671  27.285  0.00  0.00    +0.105 A 
ATOM      5  C   LIG    1      -36.015  78.104  27.918  0.00  0.00    +0.145 A 
ATOM      6  N   LIG    1      -35.774  79.387  28.307  0.00  0.00    -0.201 NA
ENDROOT
BRANCH   4   7
ATOM      7  N   LIG    1      -37.419  76.317  26.987  0.00  0.00    -0.196 NA
ATOM      8  C   LIG    1      -37.323  75.810  25.812  0.00  0.00    +0.285 C 
BRANCH   8   9
ATOM      9  N   LIG    1      -37.679  74.554  25.409  0.00  0.00    -0.269 N 
ATOM     10  H   LIG    1      -36.928  73.876  25.437  0.00  0.00    +0.157 HD
BRANCH   9  11
ATOM     11  C   LIG    1      -38.847  74.171  24.732  0.00  0.00    +0.047 A 
ATOM     12  C   LIG    1      -39.117  72.819  24.437  0.00  0.00    +0.077 A 
ATOM     13  C   LIG    1      -40.329  72.478  23.793  0.00  0.00    +0.026 A 
ATOM     14  C   LIG    1      -41.284  73.444  23.454  0.00  0.00    +0.055 A 
ATOM     15  C   LIG    1      -41.012  74.779  23.753  0.00  0.00    +0.014 A 
ATOM     16  C   LIG    1      -39.816  75.130  24.384  0.00  0.00    +0.024 A 
BRANCH  12  17
ATOM     17  C   LIG    1      -38.197  71.674  24.792  0.00  0.00    +0.419 C 
ATOM     18  F   LIG    1      -37.999  71.581  26.138  0.00  0.00    -0.166 F 
ATOM     19  F   LIG    1      -36.956  71.823  24.249  0.00  0.00    -0.166 F 
ATOM     20  F   LIG    1      -38.632  70.443  24.402  0.00  0.00    -0.166 F 
ENDBRANCH  12  17
BRANCH  14  21
ATOM     21  C   LIG    1      -42.580  73.034  22.798  0.00  0.00    +0.417 C 
ATOM     22  F   LIG    1      -43.199  72.023  23.468  0.00  0.00    -0.166 F 
ATOM     23  F   LIG    1      -42.393  72.581  21.528  0.00  0.00    -0.166 F 
ATOM     24  F   LIG    1      -43.490  74.041  22.709  0.00  0.00    -0.166 F 
ENDBRANCH  14  21
ENDBRANCH   9  11
ENDBRANCH   8   9
BRANCH   8  25
ATOM     25  O   LIG    1      -36.785  76.449  24.752  0.00  0.00    -0.481 OA
ATOM     26  H   LIG    1      -36.882  77.410  24.832  0.00  0.00    +0.295 HD
ENDBRANCH   8  25
ENDBRANCH   4   7
BRANCH   1  27
ATOM     27  O   LIG    1      -36.545  81.585  28.474  0.00  0.00    -0.424 OA
BRANCH  27  31
ATOM     28  C   LIG    1      -37.486  84.592  25.636  0.00  0.00    -0.014 A 
ATOM     29  C   LIG    1      -38.272  84.392  26.788  0.00  0.00    +0.012 A 
ATOM     30  C   LIG    1      -37.946  83.439  27.756  0.00  0.00    +0.047 A 
ATOM     31  C   LIG    1      -36.859  82.586  27.577  0.00  0.00    +0.132 A 
ATOM     32  C   LIG    1      -36.031  82.784  26.474  0.00  0.00    +0.047 A 
ATOM     33  C   LIG    1      -36.340  83.780  25.525  0.00  0.00    +0.012 A 
BRANCH  28  35
ATOM     34  C   LIG    1      -37.286  86.933  24.559  0.00  0.00    +0.124 A 
ATOM     35  C   LIG    1      -37.855  85.642  24.635  0.00  0.00    +0.023 A 
ATOM     36  C   LIG    1      -38.851  85.368  23.670  0.00  0.00    +0.033 A 
ATOM     37  C   LIG    1      -39.228  86.317  22.726  0.00  0.00    +0.060 A 
ATOM     38 CL   LIG    1      -40.436  85.965  21.560  0.00  0.00    -0.082 Cl
ATOM     39  C   LIG    1      -38.609  87.547  22.760  0.00  0.00    +0.133 A 
ATOM     40  N   LIG    1      -37.653  87.872  23.655  0.00  0.00    -0.239 NA
BRANCH  34  41
ATOM     41  N   LIG    1      -36.267  87.379  25.396  0.00  0.00    -0.343 N 
ATOM     42  H   LIG    1      -36.106  88.372  25.266  0.00  0.00    +0.144 HD
ATOM     43  H   LIG    1      -36.579  87.177  26.344  0.00  0.00    +0.144 HD
ENDBRANCH  34  41
ENDBRANCH  28  35
ENDBRANCH  27  31
ENDBRANCH   1  27
TORSDOF 10
ENDMDL
MODEL 8
REMARK VINA RESULT:      -6.4     19.660     23.149
REMARK  Name = pdb/CHEMBL3976305.pdb
REMARK                            x       y       z     vdW  Elec       q    Type
REMARK                         _______ _______ _______ _____ _____    ______ ____
ROOT
ATOM      1  C   LIG    1      -26.019  81.669  37.037  0.00  0.00    +0.323 A 
ATOM      2  N   LIG    1      -27.296  81.336  37.297  0.00  0.00    -0.201 NA
ATOM      3  C   LIG    1      -28.217  82.304  37.121  0.00  0.00    +0.145 A 
ATOM      4  C   LIG    1      -27.935  83.614  36.805  0.00  0.00    +0.105 A 
ATOM      5  C   LIG    1      -26.588  83.840  36.573  0.00  0.00    +0.145 A 
ATOM      6  N   LIG    1      -25.609  82.899  36.682  0.00  0.00    -0.201 NA
ENDROOT
BRANCH   4   7
ATOM      7  N   LIG    1      -28.926  84.591  36.586  0.00  0.00    -0.196 NA
ATOM      8  C   LIG    1      -29.354  84.934  35.425  0.00  0.00    +0.285 C 
BRANCH   8   9
ATOM      9  N   LIG    1      -30.202  85.959  35.113  0.00  0.00    -0.269 N 
ATOM     10  H   LIG    1      -30.547  86.474  35.913  0.00  0.00    +0.157 HD
BRANCH   9  11
ATOM     11  C   LIG    1      -30.838  86.200  33.886  0.00  0.00    +0.047 A 
ATOM     12  C   LIG    1      -30.365  87.184  32.993  0.00  0.00    +0.077 A 
ATOM     13  C   LIG    1      -31.012  87.359  31.748  0.00  0.00    +0.026 A 
ATOM     14  C   LIG    1      -32.102  86.569  31.363  0.00  0.00    +0.055 A 
ATOM     15  C   LIG    1      -32.561  85.596  32.250  0.00  0.00    +0.014 A 
ATOM     16  C   LIG    1      -31.934  85.415  33.485  0.00  0.00    +0.024 A 
BRANCH  12  17
ATOM     17  C   LIG    1      -29.170  88.069  33.262  0.00  0.00    +0.419 C 
ATOM     18  F   LIG    1      -29.051  89.057  32.330  0.00  0.00    -0.166 F 
ATOM     19  F   LIG    1      -27.995  87.378  33.215  0.00  0.00    -0.166 F 
ATOM     20  F   LIG    1      -29.182  88.704  34.467  0.00  0.00    -0.166 F 
ENDBRANCH  12  17
BRANCH  14  21
ATOM     21  C   LIG    1      -32.743  86.767  30.011  0.00  0.00    +0.417 C 
ATOM     22  F   LIG    1      -32.451  85.754  29.149  0.00  0.00    -0.166 F 
ATOM     23  F   LIG    1      -32.321  87.909  29.403  0.00  0.00    -0.166 F 
ATOM     24  F   LIG    1      -34.101  86.843  30.056  0.00  0.00    -0.166 F 
ENDBRANCH  14  21
ENDBRANCH   9  11
ENDBRANCH   8   9
BRANCH   8  25
ATOM     25  O   LIG    1      -29.058  84.277  34.284  0.00  0.00    -0.481 OA
ATOM     26  H   LIG    1      -29.822  83.783  33.951  0.00  0.00    +0.295 HD
ENDBRANCH   8  25
ENDBRANCH   4   7
BRANCH   1  27
ATOM     27  O   LIG    1      -25.037  80.677  37.117  0.00  0.00    -0.424 OA
BRANCH  27  31
ATOM     28  C   LIG    1      -24.180  78.441  33.617  0.00  0.00    -0.014 A 
ATOM     29  C   LIG    1      -25.307  78.161  34.415  0.00  0.00    +0.012 A 
ATOM     30  C   LIG    1      -25.629  78.921  35.542  0.00  0.00    +0.047 A 
ATOM     31  C   LIG    1      -24.793  79.949  35.969  0.00  0.00    +0.132 A 
ATOM     32  C   LIG    1      -23.695  80.287  35.181  0.00  0.00    +0.047 A 
ATOM     33  C   LIG    1      -23.402  79.547  34.018  0.00  0.00    +0.012 A 
BRANCH  28  35
ATOM     34  C   LIG    1      -24.836  77.207  31.443  0.00  0.00    +0.124 A 
ATOM     35  C   LIG    1      -23.884  77.620  32.401  0.00  0.00    +0.023 A 
ATOM     36  C   LIG    1      -22.559  77.196  32.150  0.00  0.00    +0.033 A 
ATOM     37  C   LIG    1      -22.241  76.427  31.036  0.00  0.00    +0.060 A 
ATOM     38 CL   LIG    1      -20.626  75.925  30.747  0.00  0.00    -0.082 Cl
ATOM     39  C   LIG    1      -23.260  76.075  30.179  0.00  0.00    +0.133 A 
ATOM     40  N   LIG    1      -24.545  76.447  30.362  0.00  0.00    -0.239 NA
BRANCH  34  41
ATOM     41  N   LIG    1      -26.184  77.554  31.494  0.00  0.00    -0.343 N 
ATOM     42  H   LIG    1      -26.308  78.437  31.977  0.00  0.00    +0.144 HD
ATOM     43  H   LIG    1      -26.490  77.619  30.525  0.00  0.00    +0.144 HD
ENDBRANCH  34  41
ENDBRANCH  28  35
ENDBRANCH  27  31
ENDBRANCH   1  27
TORSDOF 10
ENDMDL
MODEL 9
REMARK VINA RESULT:      -6.4     17.763     19.589
REMARK  Name = pdb/CHEMBL3976305.pdb
REMARK                            x       y       z     vdW  Elec       q    Type
REMARK                         _______ _______ _______ _____ _____    ______ ____
ROOT
ATOM      1  C   LIG    1      -28.958  73.779  32.084  0.00  0.00    +0.323 A 
ATOM      2  N   LIG    1      -27.966  72.910  31.818  0.00  0.00    -0.201 NA
ATOM      3  C   LIG    1      -26.721  73.421  31.754  0.00  0.00    +0.145 A 
ATOM      4  C   LIG    1      -26.412  74.761  31.833  0.00  0.00    +0.105 A 
ATOM      5  C   LIG    1      -27.514  75.559  32.096  0.00  0.00    +0.145 A 
ATOM      6  N   LIG    1      -28.792  75.105  32.223  0.00  0.00    -0.201 NA
ENDROOT
BRANCH   4   7
ATOM      7  N   LIG    1      -25.094  75.256  31.806  0.00  0.00    -0.196 NA
ATOM      8  C   LIG    1      -24.680  76.156  30.989  0.00  0.00    +0.285 C 
BRANCH   8   9
ATOM      9  N   LIG    1      -23.399  76.590  30.799  0.00  0.00    -0.269 N 
ATOM     10  H   LIG    1      -22.957  76.238  29.959  0.00  0.00    +0.157 HD
BRANCH   9  11
ATOM     11  C   LIG    1      -22.562  77.223  31.731  0.00  0.00    +0.047 A 
ATOM     12  C   LIG    1      -21.165  77.273  31.551  0.00  0.00    +0.077 A 
ATOM     13  C   LIG    1      -20.367  77.962  32.494  0.00  0.00    +0.026 A 
ATOM     14  C   LIG    1      -20.927  78.618  33.597  0.00  0.00    +0.055 A 
ATOM     15  C   LIG    1      -22.311  78.568  33.766  0.00  0.00    +0.014 A 
ATOM     16  C   LIG    1      -23.109  77.886  32.844  0.00  0.00    +0.024 A 
BRANCH  12  17
ATOM     17  C   LIG    1      -20.438  76.652  30.380  0.00  0.00    +0.419 C 
ATOM     18  F   LIG    1      -20.411  75.292  30.464  0.00  0.00    -0.166 F 
ATOM     19  F   LIG    1      -19.133  77.041  30.318  0.00  0.00    -0.166 F 
ATOM     20  F   LIG    1      -20.970  76.931  29.157  0.00  0.00    -0.166 F 
ENDBRANCH  12  17
BRANCH  14  21
ATOM     21  C   LIG    1      -20.044  79.370  34.562  0.00  0.00    +0.417 C 
ATOM     22  F   LIG    1      -18.736  79.354  34.182  0.00  0.00    -0.166 F 
ATOM     23  F   LIG    1      -20.076  78.837  35.814  0.00  0.00    -0.166 F 
ATOM     24  F   LIG    1      -20.380  80.681  34.701  0.00  0.00    -0.166 F 
ENDBRANCH  14  21
ENDBRANCH   9  11
ENDBRANCH   8   9
BRANCH   8  25
ATOM     25  O   LIG    1      -25.488  76.880  30.187  0.00  0.00    -0.481 OA
ATOM     26  H   LIG    1      -25.821  76.349  29.448  0.00  0.00    +0.295 HD
ENDBRANCH   8  25
ENDBRANCH   4   7
BRANCH   1  27
ATOM     27  O   LIG    1      -30.256  73.286  32.249  0.00  0.00    -0.424 OA
BRANCH  27  31
ATOM     28  C   LIG    1      -33.187  74.792  29.580  0.00  0.00    -0.014 A 
ATOM     29  C   LIG    1      -32.180  73.909  29.148  0.00  0.00    +0.012 A 
ATOM     30  C   LIG    1      -31.237  73.366  30.025  0.00  0.00    +0.047 A 
ATOM     31  C   LIG    1      -31.213  73.744  31.365  0.00  0.00    +0.132 A 
ATOM     32  C   LIG    1      -32.222  74.579  31.841  0.00  0.00    +0.047 A 
ATOM     33  C   LIG    1      -33.197  75.086  30.959  0.00  0.00    +0.012 A 
BRANCH  28  35
ATOM     34  C   LIG    1      -34.112  76.582  27.962  0.00  0.00    +0.124 A 
ATOM     35  C   LIG    1      -34.194  75.332  28.613  0.00  0.00    +0.023 A 
ATOM     36  C   LIG    1      -35.339  74.564  28.297  0.00  0.00    +0.033 A 
ATOM     37  C   LIG    1      -36.303  75.031  27.409  0.00  0.00    +0.060 A 
ATOM     38 CL   LIG    1      -37.684  74.084  27.035  0.00  0.00    -0.082 Cl
ATOM     39  C   LIG    1      -36.118  76.274  26.846  0.00  0.00    +0.133 A 
ATOM     40  N   LIG    1      -35.049  77.055  27.106  0.00  0.00    -0.239 NA
BRANCH  34  41
ATOM     41  N   LIG    1      -33.045  77.464  28.114  0.00  0.00    -0.343 N 
ATOM     42  H   LIG    1      -32.163  76.966  28.077  0.00  0.00    +0.144 HD
ATOM     43  H   LIG    1      -33.125  78.129  27.347  0.00  0.00    +0.144 HD
ENDBRANCH  34  41
ENDBRANCH  28  35
ENDBRANCH  27  31
ENDBRANCH   1  27
TORSDOF 10
ENDMDL
