MODEL 1
REMARK VINA RESULT:      -7.1      0.000      0.000
REMARK  Name = pdb/CHEMBL3960672.pdb
REMARK                            x       y       z     vdW  Elec       q    Type
REMARK                         _______ _______ _______ _____ _____    ______ ____
ROOT
ATOM      1  C   LIG    1      -37.844  77.181  26.565  0.00  0.00    +0.149 A 
ATOM      2  N   LIG    1      -38.907  77.068  25.761  0.00  0.00    -0.160 NA
ATOM      3  N   LIG    1      -38.943  75.768  25.378  0.00  0.00    -0.218 N 
ATOM      4  C   LIG    1      -37.809  75.070  25.815  0.00  0.00    +0.129 A 
ATOM      5  C   LIG    1      -37.147  75.949  26.653  0.00  0.00    +0.078 A 
ENDROOT
BRANCH   3   6
ATOM      6  C   LIG    1      -40.029  75.326  24.567  0.00  0.00    +0.067 A 
ATOM      7  C   LIG    1      -40.923  76.218  23.972  0.00  0.00    +0.028 A 
ATOM      8  C   LIG    1      -41.987  75.741  23.199  0.00  0.00    +0.002 A 
ATOM      9  C   LIG    1      -42.153  74.372  23.000  0.00  0.00    +0.000 A 
ATOM     10  C   LIG    1      -41.245  73.476  23.558  0.00  0.00    +0.002 A 
ATOM     11  C   LIG    1      -40.182  73.949  24.328  0.00  0.00    +0.028 A 
ENDBRANCH   3   6
BRANCH   4  12
ATOM     12  N   LIG    1      -37.373  73.795  25.414  0.00  0.00    -0.266 N 
ATOM     13  H   LIG    1      -36.896  73.728  24.521  0.00  0.00    +0.157 HD
ATOM     14  C   LIG    1      -37.444  72.607  26.240  0.00  0.00    +0.251 C 
ATOM     15  O   LIG    1      -37.921  72.641  27.341  0.00  0.00    -0.270 OA
BRANCH  14  16
ATOM     16  C   LIG    1      -36.805  71.359  25.719  0.00  0.00    +0.056 A 
ATOM     17  C   LIG    1      -35.598  70.851  26.196  0.00  0.00    +0.054 A 
ATOM     18 CL   LIG    1      -34.567  71.695  27.282  0.00  0.00    -0.083 Cl
ATOM     19  C   LIG    1      -35.138  69.619  25.739  0.00  0.00    +0.041 A 
ATOM     20  C   LIG    1      -35.822  68.916  24.738  0.00  0.00    +0.052 A 
ATOM     21 CL   LIG    1      -35.130  67.379  24.340  0.00  0.00    -0.083 Cl
ATOM     22  C   LIG    1      -36.960  69.472  24.111  0.00  0.00    +0.022 A 
ATOM     23  C   LIG    1      -37.457  70.676  24.668  0.00  0.00    +0.026 A 
BRANCH  22  24
ATOM     24  C   LIG    1      -37.567  68.905  22.875  0.00  0.00    +0.107 A 
ATOM     25  C   LIG    1      -38.799  68.241  22.874  0.00  0.00    +0.149 A 
ATOM     26  F   LIG    1      -39.447  67.964  24.016  0.00  0.00    -0.203 F 
ATOM     27  C   LIG    1      -39.401  67.884  21.670  0.00  0.00    +0.042 A 
ATOM     28  C   LIG    1      -38.759  68.189  20.478  0.00  0.00    +0.023 A 
ATOM     29  C   LIG    1      -37.523  68.807  20.549  0.00  0.00    +0.111 A 
ATOM     30  N   LIG    1      -36.915  69.147  21.711  0.00  0.00    -0.252 NA
ENDBRANCH  22  24
ENDBRANCH  14  16
ENDBRANCH   4  12
BRANCH   1  31
ATOM     31  C   LIG    1      -37.475  78.454  27.186  0.00  0.00    +0.236 C 
ATOM     32  N   LIG    1      -36.280  78.636  27.611  0.00  0.00    -0.247 NA
BRANCH  31  33
ATOM     33  O   LIG    1      -38.461  79.375  27.233  0.00  0.00    -0.491 OA
ATOM     34  H   LIG    1      -38.976  79.413  26.419  0.00  0.00    +0.294 HD
ENDBRANCH  31  33
BRANCH  32  35
ATOM     35  C   LIG    1      -35.871  79.936  28.144  0.00  0.00    +0.168 C 
BRANCH  35  36
ATOM     36  C   LIG    1      -34.490  79.816  28.788  0.00  0.00    +0.168 C 
BRANCH  36  37
ATOM     37  N   LIG    1      -33.554  79.105  27.948  0.00  0.00    -0.250 N 
ATOM     38  N   LIG    1      -33.202  79.579  26.738  0.00  0.00    -0.158 NA
ATOM     39  C   LIG    1      -32.364  78.626  26.320  0.00  0.00    +0.244 A 
ATOM     40  N   LIG    1      -32.173  77.592  27.193  0.00  0.00    -0.223 NA
ATOM     41  C   LIG    1      -32.933  77.924  28.211  0.00  0.00    +0.219 A 
ENDBRANCH  36  37
ENDBRANCH  35  36
ENDBRANCH  32  35
ENDBRANCH   1  31
TORSDOF 9
ENDMDL
MODEL 2
REMARK VINA RESULT:      -6.8      2.680      3.489
REMARK  Name = pdb/CHEMBL3960672.pdb
REMARK                            x       y       z     vdW  Elec       q    Type
REMARK                         _______ _______ _______ _____ _____    ______ ____
ROOT
ATOM      1  C   LIG    1      -36.651  75.935  27.318  0.00  0.00    +0.149 A 
ATOM      2  N   LIG    1      -37.449  76.813  26.701  0.00  0.00    -0.160 NA
ATOM      3  N   LIG    1      -38.256  76.078  25.897  0.00  0.00    -0.218 N 
ATOM      4  C   LIG    1      -37.874  74.729  25.879  0.00  0.00    +0.129 A 
ATOM      5  C   LIG    1      -36.904  74.618  26.858  0.00  0.00    +0.078 A 
ENDROOT
BRANCH   3   6
ATOM      6  C   LIG    1      -39.279  76.747  25.163  0.00  0.00    +0.067 A 
ATOM      7  C   LIG    1      -38.989  77.645  24.134  0.00  0.00    +0.028 A 
ATOM      8  C   LIG    1      -40.023  78.295  23.452  0.00  0.00    +0.002 A 
ATOM      9  C   LIG    1      -41.353  78.035  23.779  0.00  0.00    +0.000 A 
ATOM     10  C   LIG    1      -41.652  77.114  24.779  0.00  0.00    +0.002 A 
ATOM     11  C   LIG    1      -40.623  76.463  25.460  0.00  0.00    +0.028 A 
ENDBRANCH   3   6
BRANCH   4  12
ATOM     12  N   LIG    1      -38.302  73.724  24.994  0.00  0.00    -0.266 N 
ATOM     13  H   LIG    1      -37.761  73.595  24.145  0.00  0.00    +0.157 HD
ATOM     14  C   LIG    1      -39.370  72.787  25.272  0.00  0.00    +0.251 C 
ATOM     15  O   LIG    1      -39.991  72.836  26.298  0.00  0.00    -0.270 OA
BRANCH  14  16
ATOM     16  C   LIG    1      -39.604  71.688  24.285  0.00  0.00    +0.056 A 
ATOM     17  C   LIG    1      -40.787  71.537  23.561  0.00  0.00    +0.054 A 
ATOM     18 CL   LIG    1      -42.213  72.448  23.859  0.00  0.00    -0.083 Cl
ATOM     19  C   LIG    1      -40.873  70.558  22.575  0.00  0.00    +0.041 A 
ATOM     20  C   LIG    1      -39.823  69.657  22.354  0.00  0.00    +0.052 A 
ATOM     21 CL   LIG    1      -40.091  68.548  21.051  0.00  0.00    -0.083 Cl
ATOM     22  C   LIG    1      -38.673  69.670  23.176  0.00  0.00    +0.022 A 
ATOM     23  C   LIG    1      -38.574  70.739  24.099  0.00  0.00    +0.026 A 
BRANCH  22  24
ATOM     24  C   LIG    1      -37.654  68.584  23.166  0.00  0.00    +0.107 A 
ATOM     25  C   LIG    1      -36.767  68.388  22.100  0.00  0.00    +0.149 A 
ATOM     26  F   LIG    1      -36.872  69.094  20.963  0.00  0.00    -0.203 F 
ATOM     27  C   LIG    1      -35.724  67.473  22.216  0.00  0.00    +0.042 A 
ATOM     28  C   LIG    1      -35.584  66.756  23.396  0.00  0.00    +0.023 A 
ATOM     29  C   LIG    1      -36.518  66.964  24.394  0.00  0.00    +0.111 A 
ATOM     30  N   LIG    1      -37.548  67.838  24.293  0.00  0.00    -0.252 NA
ENDBRANCH  22  24
ENDBRANCH  14  16
ENDBRANCH   4  12
BRANCH   1  31
ATOM     31  C   LIG    1      -35.632  76.357  28.280  0.00  0.00    +0.236 C 
ATOM     32  N   LIG    1      -34.651  75.580  28.555  0.00  0.00    -0.247 NA
BRANCH  31  33
ATOM     33  O   LIG    1      -35.808  77.592  28.796  0.00  0.00    -0.491 OA
ATOM     34  H   LIG    1      -35.844  77.593  29.759  0.00  0.00    +0.294 HD
ENDBRANCH  31  33
BRANCH  32  35
ATOM     35  C   LIG    1      -33.574  76.028  29.439  0.00  0.00    +0.168 C 
BRANCH  35  36
ATOM     36  C   LIG    1      -32.308  76.280  28.621  0.00  0.00    +0.168 C 
BRANCH  36  37
ATOM     37  N   LIG    1      -32.441  77.419  27.744  0.00  0.00    -0.250 N 
ATOM     38  N   LIG    1      -32.892  78.603  28.200  0.00  0.00    -0.158 NA
ATOM     39  C   LIG    1      -32.872  79.335  27.083  0.00  0.00    +0.244 A 
ATOM     40  N   LIG    1      -32.438  78.683  25.963  0.00  0.00    -0.223 NA
ATOM     41  C   LIG    1      -32.170  77.478  26.412  0.00  0.00    +0.219 A 
ENDBRANCH  36  37
ENDBRANCH  35  36
ENDBRANCH  32  35
ENDBRANCH   1  31
TORSDOF 9
ENDMDL
MODEL 3
REMARK VINA RESULT:      -6.8      2.999      4.069
REMARK  Name = pdb/CHEMBL3960672.pdb
REMARK                            x       y       z     vdW  Elec       q    Type
REMARK                         _______ _______ _______ _____ _____    ______ ____
ROOT
ATOM      1  C   LIG    1      -35.284  72.959  28.034  0.00  0.00    +0.149 A 
ATOM      2  N   LIG    1      -36.248  73.415  27.227  0.00  0.00    -0.160 NA
ATOM      3  N   LIG    1      -36.747  72.325  26.596  0.00  0.00    -0.218 N 
ATOM      4  C   LIG    1      -35.998  71.175  26.882  0.00  0.00    +0.129 A 
ATOM      5  C   LIG    1      -35.116  71.561  27.875  0.00  0.00    +0.078 A 
ENDROOT
BRANCH   3   6
ATOM      6  C   LIG    1      -37.858  72.494  25.717  0.00  0.00    +0.067 A 
ATOM      7  C   LIG    1      -38.610  71.414  25.253  0.00  0.00    +0.028 A 
ATOM      8  C   LIG    1      -39.680  71.623  24.377  0.00  0.00    +0.002 A 
ATOM      9  C   LIG    1      -40.017  72.914  23.974  0.00  0.00    +0.000 A 
ATOM     10  C   LIG    1      -39.295  74.001  24.461  0.00  0.00    +0.002 A 
ATOM     11  C   LIG    1      -38.229  73.795  25.337  0.00  0.00    +0.028 A 
ENDBRANCH   3   6
BRANCH   4  12
ATOM     12  N   LIG    1      -36.052  69.928  26.237  0.00  0.00    -0.266 N 
ATOM     13  H   LIG    1      -36.920  69.408  26.305  0.00  0.00    +0.157 HD
ATOM     14  C   LIG    1      -35.008  69.401  25.383  0.00  0.00    +0.251 C 
ATOM     15  O   LIG    1      -33.990  70.009  25.195  0.00  0.00    -0.270 OA
BRANCH  14  16
ATOM     16  C   LIG    1      -35.282  68.123  24.656  0.00  0.00    +0.056 A 
ATOM     17  C   LIG    1      -34.992  66.861  25.174  0.00  0.00    +0.054 A 
ATOM     18 CL   LIG    1      -34.081  66.602  26.608  0.00  0.00    -0.083 Cl
ATOM     19  C   LIG    1      -35.393  65.721  24.482  0.00  0.00    +0.041 A 
ATOM     20  C   LIG    1      -36.007  65.814  23.226  0.00  0.00    +0.052 A 
ATOM     21 CL   LIG    1      -36.484  64.294  22.546  0.00  0.00    -0.083 Cl
ATOM     22  C   LIG    1      -36.170  67.066  22.591  0.00  0.00    +0.022 A 
ATOM     23  C   LIG    1      -35.846  68.208  23.363  0.00  0.00    +0.026 A 
BRANCH  22  24
ATOM     24  C   LIG    1      -36.566  67.209  21.163  0.00  0.00    +0.107 A 
ATOM     25  C   LIG    1      -35.712  66.876  20.104  0.00  0.00    +0.149 A 
ATOM     26  F   LIG    1      -34.434  66.529  20.318  0.00  0.00    -0.203 F 
ATOM     27  C   LIG    1      -36.190  66.864  18.796  0.00  0.00    +0.042 A 
ATOM     28  C   LIG    1      -37.517  67.194  18.560  0.00  0.00    +0.023 A 
ATOM     29  C   LIG    1      -38.296  67.555  19.643  0.00  0.00    +0.111 A 
ATOM     30  N   LIG    1      -37.845  67.588  20.920  0.00  0.00    -0.252 NA
ENDBRANCH  22  24
ENDBRANCH  14  16
ENDBRANCH   4  12
BRANCH   1  31
ATOM     31  C   LIG    1      -34.506  73.854  28.893  0.00  0.00    +0.236 C 
ATOM     32  N   LIG    1      -34.285  75.061  28.524  0.00  0.00    -0.247 NA
BRANCH  31  33
ATOM     33  O   LIG    1      -34.094  73.314  30.059  0.00  0.00    -0.491 OA
ATOM     34  H   LIG    1      -33.668  72.457  29.944  0.00  0.00    +0.294 HD
ENDBRANCH  31  33
BRANCH  32  35
ATOM     35  C   LIG    1      -33.593  75.995  29.414  0.00  0.00    +0.168 C 
BRANCH  35  36
ATOM     36  C   LIG    1      -32.265  76.416  28.786  0.00  0.00    +0.168 C 
BRANCH  36  37
ATOM     37  N   LIG    1      -32.430  77.479  27.821  0.00  0.00    -0.250 N 
ATOM     38  N   LIG    1      -32.943  78.672  28.176  0.00  0.00    -0.158 NA
ATOM     39  C   LIG    1      -32.930  79.317  27.007  0.00  0.00    +0.244 A 
ATOM     40  N   LIG    1      -32.443  78.602  25.949  0.00  0.00    -0.223 NA
ATOM     41  C   LIG    1      -32.132  77.449  26.494  0.00  0.00    +0.219 A 
ENDBRANCH  36  37
ENDBRANCH  35  36
ENDBRANCH  32  35
ENDBRANCH   1  31
TORSDOF 9
ENDMDL
MODEL 4
REMARK VINA RESULT:      -6.7      3.157      4.307
REMARK  Name = pdb/CHEMBL3960672.pdb
REMARK                            x       y       z     vdW  Elec       q    Type
REMARK                         _______ _______ _______ _____ _____    ______ ____
ROOT
ATOM      1  C   LIG    1      -36.761  77.403  27.971  0.00  0.00    +0.149 A 
ATOM      2  N   LIG    1      -37.314  78.357  27.214  0.00  0.00    -0.160 NA
ATOM      3  N   LIG    1      -38.367  77.771  26.594  0.00  0.00    -0.218 N 
ATOM      4  C   LIG    1      -38.403  76.390  26.832  0.00  0.00    +0.129 A 
ATOM      5  C   LIG    1      -37.429  76.166  27.788  0.00  0.00    +0.078 A 
ENDROOT
BRANCH   3   6
ATOM      6  C   LIG    1      -39.207  78.576  25.769  0.00  0.00    +0.067 A 
ATOM      7  C   LIG    1      -40.152  79.453  26.303  0.00  0.00    +0.028 A 
ATOM      8  C   LIG    1      -40.970  80.211  25.458  0.00  0.00    +0.002 A 
ATOM      9  C   LIG    1      -40.833  80.112  24.074  0.00  0.00    +0.000 A 
ATOM     10  C   LIG    1      -39.869  79.267  23.533  0.00  0.00    +0.002 A 
ATOM     11  C   LIG    1      -39.051  78.512  24.374  0.00  0.00    +0.028 A 
ENDBRANCH   3   6
BRANCH   4  12
ATOM     12  N   LIG    1      -39.181  75.421  26.175  0.00  0.00    -0.266 N 
ATOM     13  H   LIG    1      -40.097  75.222  26.564  0.00  0.00    +0.157 HD
ATOM     14  C   LIG    1      -38.821  74.791  24.923  0.00  0.00    +0.251 C 
ATOM     15  O   LIG    1      -37.787  75.049  24.370  0.00  0.00    -0.270 OA
BRANCH  14  16
ATOM     16  C   LIG    1      -39.827  73.887  24.284  0.00  0.00    +0.056 A 
ATOM     17  C   LIG    1      -41.012  74.337  23.703  0.00  0.00    +0.054 A 
ATOM     18 CL   LIG    1      -41.589  75.950  23.834  0.00  0.00    -0.083 Cl
ATOM     19  C   LIG    1      -41.832  73.441  23.023  0.00  0.00    +0.041 A 
ATOM     20  C   LIG    1      -41.536  72.072  22.986  0.00  0.00    +0.052 A 
ATOM     21 CL   LIG    1      -42.640  71.123  22.048  0.00  0.00    -0.083 Cl
ATOM     22  C   LIG    1      -40.433  71.550  23.701  0.00  0.00    +0.022 A 
ATOM     23  C   LIG    1      -39.565  72.499  24.295  0.00  0.00    +0.026 A 
BRANCH  22  24
ATOM     24  C   LIG    1      -40.220  70.093  23.918  0.00  0.00    +0.107 A 
ATOM     25  C   LIG    1      -39.756  69.237  22.912  0.00  0.00    +0.149 A 
ATOM     26  F   LIG    1      -39.598  69.663  21.649  0.00  0.00    -0.203 F 
ATOM     27  C   LIG    1      -39.411  67.922  23.214  0.00  0.00    +0.042 A 
ATOM     28  C   LIG    1      -39.541  67.474  24.521  0.00  0.00    +0.023 A 
ATOM     29  C   LIG    1      -40.047  68.356  25.459  0.00  0.00    +0.111 A 
ATOM     30  N   LIG    1      -40.403  69.633  25.180  0.00  0.00    -0.252 NA
ENDBRANCH  22  24
ENDBRANCH  14  16
ENDBRANCH   4  12
BRANCH   1  31
ATOM     31  C   LIG    1      -35.584  77.660  28.803  0.00  0.00    +0.236 C 
ATOM     32  N   LIG    1      -34.883  76.680  29.240  0.00  0.00    -0.247 NA
BRANCH  31  33
ATOM     33  O   LIG    1      -35.312  78.963  29.024  0.00  0.00    -0.491 OA
ATOM     34  H   LIG    1      -34.529  79.094  29.570  0.00  0.00    +0.294 HD
ENDBRANCH  31  33
BRANCH  32  35
ATOM     35  C   LIG    1      -33.651  76.924  29.990  0.00  0.00    +0.168 C 
BRANCH  35  36
ATOM     36  C   LIG    1      -32.442  76.656  29.094  0.00  0.00    +0.168 C 
BRANCH  36  37
ATOM     37  N   LIG    1      -32.420  77.517  27.933  0.00  0.00    -0.250 N 
ATOM     38  N   LIG    1      -32.398  78.857  28.058  0.00  0.00    -0.158 NA
ATOM     39  C   LIG    1      -32.402  79.236  26.777  0.00  0.00    +0.244 A 
ATOM     40  N   LIG    1      -32.425  78.217  25.866  0.00  0.00    -0.223 NA
ATOM     41  C   LIG    1      -32.431  77.146  26.625  0.00  0.00    +0.219 A 
ENDBRANCH  36  37
ENDBRANCH  35  36
ENDBRANCH  32  35
ENDBRANCH   1  31
TORSDOF 9
ENDMDL
MODEL 5
REMARK VINA RESULT:      -6.6     17.055     19.639
REMARK  Name = pdb/CHEMBL3960672.pdb
REMARK                            x       y       z     vdW  Elec       q    Type
REMARK                         _______ _______ _______ _____ _____    ______ ____
ROOT
ATOM      1  C   LIG    1      -22.679  83.139  15.496  0.00  0.00    +0.149 A 
ATOM      2  N   LIG    1      -23.671  82.540  14.828  0.00  0.00    -0.160 NA
ATOM      3  N   LIG    1      -23.530  81.213  15.070  0.00  0.00    -0.218 N 
ATOM      4  C   LIG    1      -22.348  80.941  15.774  0.00  0.00    +0.129 A 
ATOM      5  C   LIG    1      -21.848  82.180  16.128  0.00  0.00    +0.078 A 
ENDROOT
BRANCH   3   6
ATOM      6  C   LIG    1      -24.505  80.316  14.544  0.00  0.00    +0.067 A 
ATOM      7  C   LIG    1      -24.853  80.306  13.192  0.00  0.00    +0.028 A 
ATOM      8  C   LIG    1      -25.830  79.423  12.720  0.00  0.00    +0.002 A 
ATOM      9  C   LIG    1      -26.450  78.531  13.593  0.00  0.00    +0.000 A 
ATOM     10  C   LIG    1      -26.084  78.508  14.936  0.00  0.00    +0.002 A 
ATOM     11  C   LIG    1      -25.108  79.387  15.408  0.00  0.00    +0.028 A 
ENDBRANCH   3   6
BRANCH   4  12
ATOM     12  N   LIG    1      -21.741  79.691  15.989  0.00  0.00    -0.266 N 
ATOM     13  H   LIG    1      -21.825  79.290  16.917  0.00  0.00    +0.157 HD
ATOM     14  C   LIG    1      -21.124  78.890  14.952  0.00  0.00    +0.251 C 
ATOM     15  O   LIG    1      -21.069  79.275  13.817  0.00  0.00    -0.270 OA
BRANCH  14  16
ATOM     16  C   LIG    1      -20.651  77.520  15.321  0.00  0.00    +0.056 A 
ATOM     17  C   LIG    1      -19.317  77.205  15.580  0.00  0.00    +0.054 A 
ATOM     18 CL   LIG    1      -18.008  78.282  15.297  0.00  0.00    -0.083 Cl
ATOM     19  C   LIG    1      -18.984  75.933  16.036  0.00  0.00    +0.041 A 
ATOM     20  C   LIG    1      -19.953  74.928  16.155  0.00  0.00    +0.052 A 
ATOM     21 CL   LIG    1      -19.360  73.430  16.789  0.00  0.00    -0.083 Cl
ATOM     22  C   LIG    1      -21.287  75.157  15.746  0.00  0.00    +0.022 A 
ATOM     23  C   LIG    1      -21.613  76.487  15.385  0.00  0.00    +0.026 A 
BRANCH  22  24
ATOM     24  C   LIG    1      -22.291  74.067  15.598  0.00  0.00    +0.107 A 
ATOM     25  C   LIG    1      -23.144  73.678  16.638  0.00  0.00    +0.149 A 
ATOM     26  F   LIG    1      -23.016  74.183  17.875  0.00  0.00    -0.203 F 
ATOM     27  C   LIG    1      -24.178  72.777  16.396  0.00  0.00    +0.042 A 
ATOM     28  C   LIG    1      -24.342  72.267  15.116  0.00  0.00    +0.023 A 
ATOM     29  C   LIG    1      -23.439  72.657  14.144  0.00  0.00    +0.111 A 
ATOM     30  N   LIG    1      -22.419  73.521  14.364  0.00  0.00    -0.252 NA
ENDBRANCH  22  24
ENDBRANCH  14  16
ENDBRANCH   4  12
BRANCH   1  31
ATOM     31  C   LIG    1      -22.503  84.592  15.479  0.00  0.00    +0.236 C 
ATOM     32  N   LIG    1      -22.145  85.179  14.397  0.00  0.00    -0.247 NA
BRANCH  31  33
ATOM     33  O   LIG    1      -22.770  85.216  16.645  0.00  0.00    -0.491 OA
ATOM     34  H   LIG    1      -21.974  85.420  17.150  0.00  0.00    +0.294 HD
ENDBRANCH  31  33
BRANCH  32  35
ATOM     35  C   LIG    1      -22.059  86.639  14.338  0.00  0.00    +0.168 C 
BRANCH  35  36
ATOM     36  C   LIG    1      -20.631  87.084  14.652  0.00  0.00    +0.168 C 
BRANCH  36  37
ATOM     37  N   LIG    1      -19.928  87.539  13.474  0.00  0.00    -0.250 N 
ATOM     38  N   LIG    1      -18.606  87.333  13.327  0.00  0.00    -0.158 NA
ATOM     39  C   LIG    1      -18.384  87.914  12.144  0.00  0.00    +0.244 A 
ATOM     40  N   LIG    1      -19.483  88.466  11.548  0.00  0.00    -0.223 NA
ATOM     41  C   LIG    1      -20.442  88.210  12.408  0.00  0.00    +0.219 A 
ENDBRANCH  36  37
ENDBRANCH  35  36
ENDBRANCH  32  35
ENDBRANCH   1  31
TORSDOF 9
ENDMDL
MODEL 6
REMARK VINA RESULT:      -6.6      6.301     11.932
REMARK  Name = pdb/CHEMBL3960672.pdb
REMARK                            x       y       z     vdW  Elec       q    Type
REMARK                         _______ _______ _______ _____ _____    ______ ____
ROOT
ATOM      1  C   LIG    1      -33.607  73.628  28.355  0.00  0.00    +0.149 A 
ATOM      2  N   LIG    1      -33.978  74.860  27.988  0.00  0.00    -0.160 NA
ATOM      3  N   LIG    1      -32.998  75.687  28.427  0.00  0.00    -0.218 N 
ATOM      4  C   LIG    1      -32.063  75.004  29.217  0.00  0.00    +0.129 A 
ATOM      5  C   LIG    1      -32.400  73.668  29.097  0.00  0.00    +0.078 A 
ENDROOT
BRANCH   3   6
ATOM      6  C   LIG    1      -33.082  77.074  28.107  0.00  0.00    +0.067 A 
ATOM      7  C   LIG    1      -32.315  77.651  27.094  0.00  0.00    +0.028 A 
ATOM      8  C   LIG    1      -32.414  79.020  26.826  0.00  0.00    +0.002 A 
ATOM      9  C   LIG    1      -33.294  79.817  27.556  0.00  0.00    +0.000 A 
ATOM     10  C   LIG    1      -34.090  79.244  28.544  0.00  0.00    +0.002 A 
ATOM     11  C   LIG    1      -33.995  77.878  28.811  0.00  0.00    +0.028 A 
ENDBRANCH   3   6
BRANCH   4  12
ATOM     12  N   LIG    1      -31.062  75.552  30.037  0.00  0.00    -0.266 N 
ATOM     13  H   LIG    1      -30.646  76.427  29.737  0.00  0.00    +0.157 HD
ATOM     14  C   LIG    1      -30.683  75.026  31.332  0.00  0.00    +0.251 C 
ATOM     15  O   LIG    1      -31.201  74.040  31.780  0.00  0.00    -0.270 OA
BRANCH  14  16
ATOM     16  C   LIG    1      -29.701  75.812  32.142  0.00  0.00    +0.056 A 
ATOM     17  C   LIG    1      -30.039  76.513  33.299  0.00  0.00    +0.054 A 
ATOM     18 CL   LIG    1      -31.654  76.760  33.831  0.00  0.00    -0.083 Cl
ATOM     19  C   LIG    1      -29.039  77.116  34.058  0.00  0.00    +0.041 A 
ATOM     20  C   LIG    1      -27.703  77.109  33.633  0.00  0.00    +0.052 A 
ATOM     21 CL   LIG    1      -26.597  77.859  34.734  0.00  0.00    -0.083 Cl
ATOM     22  C   LIG    1      -27.343  76.552  32.386  0.00  0.00    +0.022 A 
ATOM     23  C   LIG    1      -28.364  75.860  31.689  0.00  0.00    +0.026 A 
BRANCH  22  24
ATOM     24  C   LIG    1      -26.004  76.746  31.764  0.00  0.00    +0.107 A 
ATOM     25  C   LIG    1      -24.973  75.806  31.879  0.00  0.00    +0.149 A 
ATOM     26  F   LIG    1      -25.093  74.727  32.669  0.00  0.00    -0.203 F 
ATOM     27  C   LIG    1      -23.804  75.954  31.137  0.00  0.00    +0.042 A 
ATOM     28  C   LIG    1      -23.674  77.049  30.294  0.00  0.00    +0.023 A 
ATOM     29  C   LIG    1      -24.710  77.964  30.259  0.00  0.00    +0.111 A 
ATOM     30  N   LIG    1      -25.848  77.844  30.984  0.00  0.00    -0.252 NA
ENDBRANCH  22  24
ENDBRANCH  14  16
ENDBRANCH   4  12
BRANCH   1  31
ATOM     31  C   LIG    1      -34.423  72.451  28.051  0.00  0.00    +0.236 C 
ATOM     32  N   LIG    1      -34.137  71.321  28.582  0.00  0.00    -0.247 NA
BRANCH  31  33
ATOM     33  O   LIG    1      -35.466  72.675  27.224  0.00  0.00    -0.491 OA
ATOM     34  H   LIG    1      -35.412  72.165  26.408  0.00  0.00    +0.294 HD
ENDBRANCH  31  33
BRANCH  32  35
ATOM     35  C   LIG    1      -35.000  70.159  28.365  0.00  0.00    +0.168 C 
BRANCH  35  36
ATOM     36  C   LIG    1      -34.377  69.245  27.309  0.00  0.00    +0.168 C 
BRANCH  36  37
ATOM     37  N   LIG    1      -35.140  69.229  26.082  0.00  0.00    -0.250 N 
ATOM     38  N   LIG    1      -36.243  69.986  25.936  0.00  0.00    -0.158 NA
ATOM     39  C   LIG    1      -36.623  69.653  24.699  0.00  0.00    +0.244 A 
ATOM     40  N   LIG    1      -35.826  68.739  24.069  0.00  0.00    -0.223 NA
ATOM     41  C   LIG    1      -34.898  68.494  24.964  0.00  0.00    +0.219 A 
ENDBRANCH  36  37
ENDBRANCH  35  36
ENDBRANCH  32  35
ENDBRANCH   1  31
TORSDOF 9
ENDMDL
MODEL 7
REMARK VINA RESULT:      -6.5     13.906     15.899
REMARK  Name = pdb/CHEMBL3960672.pdb
REMARK                            x       y       z     vdW  Elec       q    Type
REMARK                         _______ _______ _______ _____ _____    ______ ____
ROOT
ATOM      1  C   LIG    1      -28.621  77.585  11.936  0.00  0.00    +0.149 A 
ATOM      2  N   LIG    1      -27.666  78.347  12.480  0.00  0.00    -0.160 NA
ATOM      3  N   LIG    1      -26.958  77.526  13.294  0.00  0.00    -0.218 N 
ATOM      4  C   LIG    1      -27.554  76.261  13.395  0.00  0.00    +0.129 A 
ATOM      5  C   LIG    1      -28.568  76.267  12.455  0.00  0.00    +0.078 A 
ENDROOT
BRANCH   3   6
ATOM      6  C   LIG    1      -25.810  78.049  13.960  0.00  0.00    +0.067 A 
ATOM      7  C   LIG    1      -24.556  77.443  13.866  0.00  0.00    +0.028 A 
ATOM      8  C   LIG    1      -23.460  77.978  14.551  0.00  0.00    +0.002 A 
ATOM      9  C   LIG    1      -23.607  79.133  15.318  0.00  0.00    +0.000 A 
ATOM     10  C   LIG    1      -24.845  79.765  15.387  0.00  0.00    +0.002 A 
ATOM     11  C   LIG    1      -25.939  79.234  14.703  0.00  0.00    +0.028 A 
ENDBRANCH   3   6
BRANCH   4  12
ATOM     12  N   LIG    1      -27.261  75.241  14.316  0.00  0.00    -0.266 N 
ATOM     13  H   LIG    1      -27.715  75.291  15.222  0.00  0.00    +0.157 HD
ATOM     14  C   LIG    1      -26.466  74.068  14.016  0.00  0.00    +0.251 C 
ATOM     15  O   LIG    1      -25.972  73.910  12.934  0.00  0.00    -0.270 OA
BRANCH  14  16
ATOM     16  C   LIG    1      -26.370  73.006  15.066  0.00  0.00    +0.056 A 
ATOM     17  C   LIG    1      -25.163  72.477  15.521  0.00  0.00    +0.054 A 
ATOM     18 CL   LIG    1      -23.641  72.800  14.793  0.00  0.00    -0.083 Cl
ATOM     19  C   LIG    1      -25.160  71.580  16.587  0.00  0.00    +0.041 A 
ATOM     20  C   LIG    1      -26.358  71.127  17.156  0.00  0.00    +0.052 A 
ATOM     21 CL   LIG    1      -26.153  70.061  18.505  0.00  0.00    -0.083 Cl
ATOM     22  C   LIG    1      -27.606  71.512  16.617  0.00  0.00    +0.022 A 
ATOM     23  C   LIG    1      -27.575  72.500  15.603  0.00  0.00    +0.026 A 
BRANCH  22  24
ATOM     24  C   LIG    1      -28.892  70.866  17.001  0.00  0.00    +0.107 A 
ATOM     25  C   LIG    1      -29.834  71.488  17.830  0.00  0.00    +0.149 A 
ATOM     26  F   LIG    1      -29.572  72.659  18.432  0.00  0.00    -0.203 F 
ATOM     27  C   LIG    1      -31.090  70.916  18.016  0.00  0.00    +0.042 A 
ATOM     28  C   LIG    1      -31.388  69.720  17.377  0.00  0.00    +0.023 A 
ATOM     29  C   LIG    1      -30.399  69.135  16.608  0.00  0.00    +0.111 A 
ATOM     30  N   LIG    1      -29.167  69.669  16.428  0.00  0.00    -0.252 NA
ENDBRANCH  22  24
ENDBRANCH  14  16
ENDBRANCH   4  12
BRANCH   1  31
ATOM     31  C   LIG    1      -29.595  78.126  10.986  0.00  0.00    +0.236 C 
ATOM     32  N   LIG    1      -30.599  78.798  11.414  0.00  0.00    -0.247 NA
BRANCH  31  33
ATOM     33  O   LIG    1      -29.325  77.883   9.687  0.00  0.00    -0.491 OA
ATOM     34  H   LIG    1      -29.679  77.039   9.384  0.00  0.00    +0.294 HD
ENDBRANCH  31  33
BRANCH  32  35
ATOM     35  C   LIG    1      -31.526  79.428  10.473  0.00  0.00    +0.168 C 
BRANCH  35  36
ATOM     36  C   LIG    1      -31.195  80.914  10.340  0.00  0.00    +0.168 C 
BRANCH  36  37
ATOM     37  N   LIG    1      -32.319  81.757  10.676  0.00  0.00    -0.250 N 
ATOM     38  N   LIG    1      -32.144  83.040  11.042  0.00  0.00    -0.158 NA
ATOM     39  C   LIG    1      -33.405  83.418  11.270  0.00  0.00    +0.244 A 
ATOM     40  N   LIG    1      -34.351  82.452  11.069  0.00  0.00    -0.223 NA
ATOM     41  C   LIG    1      -33.636  81.418  10.691  0.00  0.00    +0.219 A 
ENDBRANCH  36  37
ENDBRANCH  35  36
ENDBRANCH  32  35
ENDBRANCH   1  31
TORSDOF 9
ENDMDL
MODEL 8
REMARK VINA RESULT:      -6.5      4.732      6.972
REMARK  Name = pdb/CHEMBL3960672.pdb
REMARK                            x       y       z     vdW  Elec       q    Type
REMARK                         _______ _______ _______ _____ _____    ______ ____
ROOT
ATOM      1  C   LIG    1      -37.903  76.937  26.104  0.00  0.00    +0.149 A 
ATOM      2  N   LIG    1      -38.302  78.147  25.697  0.00  0.00    -0.160 NA
ATOM      3  N   LIG    1      -39.395  77.934  24.923  0.00  0.00    -0.218 N 
ATOM      4  C   LIG    1      -39.612  76.567  24.703  0.00  0.00    +0.129 A 
ATOM      5  C   LIG    1      -38.713  75.923  25.532  0.00  0.00    +0.078 A 
ENDROOT
BRANCH   3   6
ATOM      6  C   LIG    1      -40.094  79.064  24.405  0.00  0.00    +0.067 A 
ATOM      7  C   LIG    1      -41.452  79.274  24.649  0.00  0.00    +0.028 A 
ATOM      8  C   LIG    1      -42.104  80.386  24.105  0.00  0.00    +0.002 A 
ATOM      9  C   LIG    1      -41.397  81.305  23.330  0.00  0.00    +0.000 A 
ATOM     10  C   LIG    1      -40.035  81.124  23.112  0.00  0.00    +0.002 A 
ATOM     11  C   LIG    1      -39.382  80.017  23.655  0.00  0.00    +0.028 A 
ENDBRANCH   3   6
BRANCH   4  12
ATOM     12  N   LIG    1      -40.479  75.971  23.770  0.00  0.00    -0.266 N 
ATOM     13  H   LIG    1      -40.112  75.804  22.839  0.00  0.00    +0.157 HD
ATOM     14  C   LIG    1      -41.800  75.468  24.083  0.00  0.00    +0.251 C 
ATOM     15  O   LIG    1      -42.257  75.560  25.190  0.00  0.00    -0.270 OA
BRANCH  14  16
ATOM     16  C   LIG    1      -42.536  74.732  23.009  0.00  0.00    +0.056 A 
ATOM     17  C   LIG    1      -42.361  73.374  22.742  0.00  0.00    +0.054 A 
ATOM     18 CL   LIG    1      -41.125  72.412  23.449  0.00  0.00    -0.083 Cl
ATOM     19  C   LIG    1      -43.176  72.744  21.806  0.00  0.00    +0.041 A 
ATOM     20  C   LIG    1      -44.114  73.467  21.057  0.00  0.00    +0.052 A 
ATOM     21 CL   LIG    1      -45.073  72.503  19.984  0.00  0.00    -0.083 Cl
ATOM     22  C   LIG    1      -44.209  74.872  21.179  0.00  0.00    +0.022 A 
ATOM     23  C   LIG    1      -43.440  75.466  22.209  0.00  0.00    +0.026 A 
BRANCH  22  24
ATOM     24  C   LIG    1      -44.988  75.719  20.234  0.00  0.00    +0.107 A 
ATOM     25  C   LIG    1      -46.137  76.421  20.618  0.00  0.00    +0.149 A 
ATOM     26  F   LIG    1      -46.678  76.266  21.836  0.00  0.00    -0.203 F 
ATOM     27  C   LIG    1      -46.725  77.333  19.745  0.00  0.00    +0.042 A 
ATOM     28  C   LIG    1      -46.162  77.526  18.491  0.00  0.00    +0.023 A 
ATOM     29  C   LIG    1      -45.053  76.770  18.157  0.00  0.00    +0.111 A 
ATOM     30  N   LIG    1      -44.477  75.868  18.987  0.00  0.00    -0.252 NA
ENDBRANCH  22  24
ENDBRANCH  14  16
ENDBRANCH   4  12
BRANCH   1  31
ATOM     31  C   LIG    1      -36.738  76.757  26.971  0.00  0.00    +0.236 C 
ATOM     32  N   LIG    1      -36.663  77.394  28.081  0.00  0.00    -0.247 NA
BRANCH  31  33
ATOM     33  O   LIG    1      -35.817  75.880  26.520  0.00  0.00    -0.491 OA
ATOM     34  H   LIG    1      -35.013  76.310  26.207  0.00  0.00    +0.294 HD
ENDBRANCH  31  33
BRANCH  32  35
ATOM     35  C   LIG    1      -35.553  77.151  29.003  0.00  0.00    +0.168 C 
BRANCH  35  36
ATOM     36  C   LIG    1      -34.626  78.365  29.023  0.00  0.00    +0.168 C 
BRANCH  36  37
ATOM     37  N   LIG    1      -33.701  78.365  27.913  0.00  0.00    -0.250 N 
ATOM     38  N   LIG    1      -33.165  77.220  27.452  0.00  0.00    -0.158 NA
ATOM     39  C   LIG    1      -32.382  77.678  26.470  0.00  0.00    +0.244 A 
ATOM     40  N   LIG    1      -32.399  79.033  26.293  0.00  0.00    -0.223 NA
ATOM     41  C   LIG    1      -33.242  79.438  27.215  0.00  0.00    +0.219 A 
ENDBRANCH  36  37
ENDBRANCH  35  36
ENDBRANCH  32  35
ENDBRANCH   1  31
TORSDOF 9
ENDMDL
MODEL 9
REMARK VINA RESULT:      -6.5      6.064      8.491
REMARK  Name = pdb/CHEMBL3960672.pdb
REMARK                            x       y       z     vdW  Elec       q    Type
REMARK                         _______ _______ _______ _____ _____    ______ ____
ROOT
ATOM      1  C   LIG    1      -29.298  75.845  31.373  0.00  0.00    +0.149 A 
ATOM      2  N   LIG    1      -30.048  76.361  30.394  0.00  0.00    -0.160 NA
ATOM      3  N   LIG    1      -31.021  75.447  30.154  0.00  0.00    -0.218 N 
ATOM      4  C   LIG    1      -30.807  74.265  30.877  0.00  0.00    +0.129 A 
ATOM      5  C   LIG    1      -29.755  74.551  31.728  0.00  0.00    +0.078 A 
ENDROOT
BRANCH   3   6
ATOM      6  C   LIG    1      -32.031  75.762  29.198  0.00  0.00    +0.067 A 
ATOM      7  C   LIG    1      -32.039  76.968  28.494  0.00  0.00    +0.028 A 
ATOM      8  C   LIG    1      -33.060  77.245  27.579  0.00  0.00    +0.002 A 
ATOM      9  C   LIG    1      -34.069  76.312  27.348  0.00  0.00    +0.000 A 
ATOM     10  C   LIG    1      -34.049  75.091  28.018  0.00  0.00    +0.002 A 
ATOM     11  C   LIG    1      -33.030  74.811  28.929  0.00  0.00    +0.028 A 
ENDBRANCH   3   6
BRANCH   4  12
ATOM     12  N   LIG    1      -31.446  73.025  30.709  0.00  0.00    -0.266 N 
ATOM     13  H   LIG    1      -32.379  72.929  31.097  0.00  0.00    +0.157 HD
ATOM     14  C   LIG    1      -30.921  71.932  29.918  0.00  0.00    +0.251 C 
ATOM     15  O   LIG    1      -29.859  72.017  29.364  0.00  0.00    -0.270 OA
BRANCH  14  16
ATOM     16  C   LIG    1      -31.792  70.732  29.723  0.00  0.00    +0.056 A 
ATOM     17  C   LIG    1      -31.495  69.469  30.236  0.00  0.00    +0.054 A 
ATOM     18 CL   LIG    1      -29.993  69.061  30.963  0.00  0.00    -0.083 Cl
ATOM     19  C   LIG    1      -32.422  68.438  30.111  0.00  0.00    +0.041 A 
ATOM     20  C   LIG    1      -33.616  68.618  29.400  0.00  0.00    +0.052 A 
ATOM     21 CL   LIG    1      -34.667  67.241  29.401  0.00  0.00    -0.083 Cl
ATOM     22  C   LIG    1      -33.881  69.831  28.726  0.00  0.00    +0.022 A 
ATOM     23  C   LIG    1      -32.968  70.890  28.957  0.00  0.00    +0.026 A 
BRANCH  22  24
ATOM     24  C   LIG    1      -34.990  69.992  27.746  0.00  0.00    +0.107 A 
ATOM     25  C   LIG    1      -36.017  70.931  27.911  0.00  0.00    +0.149 A 
ATOM     26  F   LIG    1      -36.127  71.656  29.035  0.00  0.00    -0.203 F 
ATOM     27  C   LIG    1      -36.929  71.159  26.885  0.00  0.00    +0.042 A 
ATOM     28  C   LIG    1      -36.812  70.439  25.705  0.00  0.00    +0.023 A 
ATOM     29  C   LIG    1      -35.804  69.495  25.621  0.00  0.00    +0.111 A 
ATOM     30  N   LIG    1      -34.917  69.249  26.614  0.00  0.00    -0.252 NA
ENDBRANCH  22  24
ENDBRANCH  14  16
ENDBRANCH   4  12
BRANCH   1  31
ATOM     31  C   LIG    1      -28.136  76.553  31.913  0.00  0.00    +0.236 C 
ATOM     32  N   LIG    1      -27.014  76.504  31.296  0.00  0.00    -0.247 NA
BRANCH  31  33
ATOM     33  O   LIG    1      -28.364  77.248  33.047  0.00  0.00    -0.491 OA
ATOM     34  H   LIG    1      -27.733  77.964  33.180  0.00  0.00    +0.294 HD
ENDBRANCH  31  33
BRANCH  32  35
ATOM     35  C   LIG    1      -25.871  77.285  31.769  0.00  0.00    +0.168 C 
BRANCH  35  36
ATOM     36  C   LIG    1      -25.077  77.812  30.574  0.00  0.00    +0.168 C 
BRANCH  36  37
ATOM     37  N   LIG    1      -23.850  77.077  30.366  0.00  0.00    -0.250 N 
ATOM     38  N   LIG    1      -23.043  77.347  29.323  0.00  0.00    -0.158 NA
ATOM     39  C   LIG    1      -22.073  76.448  29.508  0.00  0.00    +0.244 A 
ATOM     40  N   LIG    1      -22.226  75.637  30.597  0.00  0.00    -0.223 NA
ATOM     41  C   LIG    1      -23.353  76.060  31.121  0.00  0.00    +0.219 A 
ENDBRANCH  36  37
ENDBRANCH  35  36
ENDBRANCH  32  35
ENDBRANCH   1  31
TORSDOF 9
ENDMDL
