MODEL 1
REMARK VINA RESULT:      -6.0      0.000      0.000
REMARK  Name = pdb/CHEMBL3892052.pdb
REMARK                            x       y       z     vdW  Elec       q    Type
REMARK                         _______ _______ _______ _____ _____    ______ ____
ROOT
ATOM      1  C   LIG    1      -36.259  74.494  28.079  0.00  0.00    +0.105 A 
ATOM      2  C   LIG    1      -34.957  74.028  28.078  0.00  0.00    +0.145 A 
ATOM      3  N   LIG    1      -34.600  72.746  28.320  0.00  0.00    -0.201 NA
ATOM      4  C   LIG    1      -35.605  71.873  28.538  0.00  0.00    +0.323 A 
ATOM      5  N   LIG    1      -36.891  72.219  28.665  0.00  0.00    -0.201 NA
ATOM      6  C   LIG    1      -37.171  73.527  28.453  0.00  0.00    +0.145 A 
ENDROOT
BRANCH   1   8
ATOM      7  C   LIG    1      -36.841  76.228  26.558  0.00  0.00    +0.285 C 
ATOM      8  N   LIG    1      -36.521  75.827  27.736  0.00  0.00    -0.196 NA
BRANCH   7   9
ATOM      9  N   LIG    1      -37.104  75.587  25.367  0.00  0.00    -0.268 N 
ATOM     10  H   LIG    1      -36.401  75.597  24.635  0.00  0.00    +0.157 HD
BRANCH   9  12
ATOM     11  C   LIG    1      -39.450  75.464  24.549  0.00  0.00    +0.109 A 
ATOM     12  C   LIG    1      -38.256  74.853  24.991  0.00  0.00    +0.060 A 
ATOM     13  C   LIG    1      -38.192  73.453  24.918  0.00  0.00    +0.037 A 
ATOM     14  C   LIG    1      -39.203  72.678  24.332  0.00  0.00    +0.057 A 
ATOM     15  C   LIG    1      -40.344  73.317  23.849  0.00  0.00    +0.014 A 
ATOM     16  C   LIG    1      -40.482  74.697  23.978  0.00  0.00    +0.029 A 
BRANCH  11  18
ATOM     17  C   LIG    1      -41.307  77.466  23.838  0.00  0.00    +0.200 C 
ATOM     18  S   LIG    1      -39.819  77.198  24.757  0.00  0.00    -0.004 S 
ATOM     19  O   LIG    1      -40.083  77.452  26.156  0.00  0.00    -0.170 OA
ATOM     20  O   LIG    1      -38.743  77.917  24.056  0.00  0.00    -0.170 OA
ENDBRANCH  11  18
BRANCH  14  21
ATOM     21  C   LIG    1      -39.006  71.190  24.205  0.00  0.00    +0.417 C 
ATOM     22  F   LIG    1      -39.307  70.522  25.352  0.00  0.00    -0.166 F 
ATOM     23  F   LIG    1      -37.718  70.863  23.907  0.00  0.00    -0.166 F 
ATOM     24  F   LIG    1      -39.770  70.627  23.229  0.00  0.00    -0.166 F 
ENDBRANCH  14  21
ENDBRANCH   9  12
ENDBRANCH   7   9
BRANCH   7  25
ATOM     25  O   LIG    1      -36.969  77.567  26.508  0.00  0.00    -0.481 OA
ATOM     26  H   LIG    1      -36.127  77.928  26.181  0.00  0.00    +0.295 HD
ENDBRANCH   7  25
ENDBRANCH   1   8
BRANCH   4  27
ATOM     27  O   LIG    1      -35.335  70.502  28.546  0.00  0.00    -0.424 OA
BRANCH  27  28
ATOM     28  C   LIG    1      -35.448  69.832  27.343  0.00  0.00    +0.132 A 
ATOM     29  C   LIG    1      -34.402  69.746  26.426  0.00  0.00    +0.047 A 
ATOM     30  C   LIG    1      -34.522  68.996  25.256  0.00  0.00    +0.012 A 
ATOM     31  C   LIG    1      -35.722  68.359  24.902  0.00  0.00    -0.014 A 
ATOM     32  C   LIG    1      -36.786  68.504  25.815  0.00  0.00    +0.012 A 
ATOM     33  C   LIG    1      -36.662  69.235  27.014  0.00  0.00    +0.047 A 
BRANCH  31  34
ATOM     34  C   LIG    1      -35.836  67.553  23.648  0.00  0.00    +0.023 A 
ATOM     35  C   LIG    1      -35.405  66.214  23.508  0.00  0.00    +0.124 A 
ATOM     36  N   LIG    1      -35.461  65.513  22.353  0.00  0.00    -0.239 NA
ATOM     37  C   LIG    1      -35.984  66.126  21.270  0.00  0.00    +0.133 A 
ATOM     38  C   LIG    1      -36.459  67.419  21.289  0.00  0.00    +0.060 A 
ATOM     39 CL   LIG    1      -37.118  68.134  19.875  0.00  0.00    -0.082 Cl
ATOM     40  C   LIG    1      -36.382  68.132  22.481  0.00  0.00    +0.033 A 
BRANCH  35  41
ATOM     41  N   LIG    1      -34.897  65.448  24.554  0.00  0.00    -0.343 N 
ATOM     42  H   LIG    1      -34.740  66.028  25.372  0.00  0.00    +0.144 HD
ATOM     43  H   LIG    1      -35.602  64.739  24.743  0.00  0.00    +0.144 HD
ENDBRANCH  35  41
ENDBRANCH  31  34
ENDBRANCH  27  28
ENDBRANCH   4  27
TORSDOF 10
ENDMDL
MODEL 2
REMARK VINA RESULT:      -5.8      5.364     10.571
REMARK  Name = pdb/CHEMBL3892052.pdb
REMARK                            x       y       z     vdW  Elec       q    Type
REMARK                         _______ _______ _______ _____ _____    ______ ____
ROOT
ATOM      1  C   LIG    1      -37.915  76.748  27.619  0.00  0.00    +0.105 A 
ATOM      2  C   LIG    1      -37.032  77.784  27.379  0.00  0.00    +0.145 A 
ATOM      3  N   LIG    1      -37.397  79.059  27.114  0.00  0.00    -0.201 NA
ATOM      4  C   LIG    1      -38.720  79.321  27.129  0.00  0.00    +0.323 A 
ATOM      5  N   LIG    1      -39.673  78.389  27.248  0.00  0.00    -0.201 NA
ATOM      6  C   LIG    1      -39.235  77.126  27.466  0.00  0.00    +0.145 A 
ENDROOT
BRANCH   1   8
ATOM      7  C   LIG    1      -37.205  74.532  27.122  0.00  0.00    +0.285 C 
ATOM      8  N   LIG    1      -37.426  75.480  27.961  0.00  0.00    -0.196 NA
BRANCH   7   9
ATOM      9  N   LIG    1      -37.264  74.436  25.749  0.00  0.00    -0.268 N 
ATOM     10  H   LIG    1      -36.407  74.504  25.212  0.00  0.00    +0.157 HD
BRANCH   9  12
ATOM     11  C   LIG    1      -38.907  72.933  24.640  0.00  0.00    +0.109 A 
ATOM     12  C   LIG    1      -38.395  74.218  24.924  0.00  0.00    +0.060 A 
ATOM     13  C   LIG    1      -39.139  75.316  24.465  0.00  0.00    +0.037 A 
ATOM     14  C   LIG    1      -40.392  75.179  23.851  0.00  0.00    +0.057 A 
ATOM     15  C   LIG    1      -40.900  73.898  23.640  0.00  0.00    +0.014 A 
ATOM     16  C   LIG    1      -40.154  72.780  24.006  0.00  0.00    +0.029 A 
BRANCH  11  18
ATOM     17  C   LIG    1      -38.994  70.150  24.182  0.00  0.00    +0.200 C 
ATOM     18  S   LIG    1      -38.017  71.415  24.940  0.00  0.00    -0.004 S 
ATOM     19  O   LIG    1      -36.739  71.486  24.266  0.00  0.00    -0.170 OA
ATOM     20  O   LIG    1      -38.084  71.200  26.394  0.00  0.00    -0.170 OA
ENDBRANCH  11  18
BRANCH  14  21
ATOM     21  C   LIG    1      -41.167  76.418  23.481  0.00  0.00    +0.417 C 
ATOM     22  F   LIG    1      -42.214  76.152  22.654  0.00  0.00    -0.166 F 
ATOM     23  F   LIG    1      -40.397  77.333  22.831  0.00  0.00    -0.166 F 
ATOM     24  F   LIG    1      -41.690  77.067  24.557  0.00  0.00    -0.166 F 
ENDBRANCH  14  21
ENDBRANCH   9  12
ENDBRANCH   7   9
BRANCH   7  25
ATOM     25  O   LIG    1      -36.801  73.407  27.742  0.00  0.00    -0.481 OA
ATOM     26  H   LIG    1      -36.046  73.641  28.307  0.00  0.00    +0.295 HD
ENDBRANCH   7  25
ENDBRANCH   1   8
BRANCH   4  27
ATOM     27  O   LIG    1      -39.159  80.648  27.114  0.00  0.00    -0.424 OA
BRANCH  27  28
ATOM     28  C   LIG    1      -39.451  81.200  25.883  0.00  0.00    +0.132 A 
ATOM     29  C   LIG    1      -39.445  80.458  24.703  0.00  0.00    +0.047 A 
ATOM     30  C   LIG    1      -39.821  81.026  23.485  0.00  0.00    +0.012 A 
ATOM     31  C   LIG    1      -40.146  82.388  23.370  0.00  0.00    -0.014 A 
ATOM     32  C   LIG    1      -40.093  83.134  24.565  0.00  0.00    +0.012 A 
ATOM     33  C   LIG    1      -39.743  82.559  25.804  0.00  0.00    +0.047 A 
BRANCH  31  34
ATOM     34  C   LIG    1      -40.555  82.984  22.062  0.00  0.00    +0.023 A 
ATOM     35  C   LIG    1      -39.775  83.893  21.310  0.00  0.00    +0.124 A 
ATOM     36  N   LIG    1      -40.180  84.469  20.156  0.00  0.00    -0.239 NA
ATOM     37  C   LIG    1      -41.398  84.138  19.680  0.00  0.00    +0.133 A 
ATOM     38  C   LIG    1      -42.238  83.246  20.310  0.00  0.00    +0.060 A 
ATOM     39 CL   LIG    1      -43.773  82.863  19.644  0.00  0.00    -0.082 Cl
ATOM     40  C   LIG    1      -41.814  82.671  21.504  0.00  0.00    +0.033 A 
BRANCH  35  41
ATOM     41  N   LIG    1      -38.483  84.280  21.658  0.00  0.00    -0.343 N 
ATOM     42  H   LIG    1      -38.115  83.670  22.380  0.00  0.00    +0.144 HD
ATOM     43  H   LIG    1      -37.934  84.202  20.804  0.00  0.00    +0.144 HD
ENDBRANCH  35  41
ENDBRANCH  31  34
ENDBRANCH  27  28
ENDBRANCH   4  27
TORSDOF 10
ENDMDL
MODEL 3
REMARK VINA RESULT:      -5.8     16.674     19.695
REMARK  Name = pdb/CHEMBL3892052.pdb
REMARK                            x       y       z     vdW  Elec       q    Type
REMARK                         _______ _______ _______ _____ _____    ______ ____
ROOT
ATOM      1  C   LIG    1      -17.272  78.102  33.852  0.00  0.00    +0.105 A 
ATOM      2  C   LIG    1      -18.061  78.796  32.953  0.00  0.00    +0.145 A 
ATOM      3  N   LIG    1      -18.542  78.283  31.798  0.00  0.00    -0.201 NA
ATOM      4  C   LIG    1      -18.249  76.991  31.545  0.00  0.00    +0.323 A 
ATOM      5  N   LIG    1      -17.416  76.248  32.283  0.00  0.00    -0.201 NA
ATOM      6  C   LIG    1      -16.936  76.840  33.403  0.00  0.00    +0.145 A 
ENDROOT
BRANCH   1   8
ATOM      7  C   LIG    1      -17.623  78.740  36.117  0.00  0.00    +0.285 C 
ATOM      8  N   LIG    1      -16.895  78.706  35.058  0.00  0.00    -0.196 NA
BRANCH   7   9
ATOM      9  N   LIG    1      -18.841  78.194  36.459  0.00  0.00    -0.268 N 
ATOM     10  H   LIG    1      -18.866  77.285  36.909  0.00  0.00    +0.157 HD
BRANCH   9  12
ATOM     11  C   LIG    1      -20.634  79.799  37.089  0.00  0.00    +0.109 A 
ATOM     12  C   LIG    1      -20.136  78.744  36.294  0.00  0.00    +0.060 A 
ATOM     13  C   LIG    1      -20.931  78.331  35.213  0.00  0.00    +0.037 A 
ATOM     14  C   LIG    1      -22.112  78.991  34.846  0.00  0.00    +0.057 A 
ATOM     15  C   LIG    1      -22.546  80.070  35.616  0.00  0.00    +0.014 A 
ATOM     16  C   LIG    1      -21.829  80.457  36.745  0.00  0.00    +0.029 A 
BRANCH  11  18
ATOM     17  C   LIG    1      -21.245  80.863  39.630  0.00  0.00    +0.200 C 
ATOM     18  S   LIG    1      -19.892  80.326  38.625  0.00  0.00    -0.004 S 
ATOM     19  O   LIG    1      -19.267  79.183  39.255  0.00  0.00    -0.170 OA
ATOM     20  O   LIG    1      -19.101  81.521  38.291  0.00  0.00    -0.170 OA
ENDBRANCH  11  18
BRANCH  14  21
ATOM     21  C   LIG    1      -22.849  78.543  33.610  0.00  0.00    +0.417 C 
ATOM     22  F   LIG    1      -22.024  78.369  32.542  0.00  0.00    -0.166 F 
ATOM     23  F   LIG    1      -23.790  79.444  33.215  0.00  0.00    -0.166 F 
ATOM     24  F   LIG    1      -23.508  77.363  33.775  0.00  0.00    -0.166 F 
ENDBRANCH  14  21
ENDBRANCH   9  12
ENDBRANCH   7   9
BRANCH   7  25
ATOM     25  O   LIG    1      -17.034  79.443  37.102  0.00  0.00    -0.481 OA
ATOM     26  H   LIG    1      -16.924  80.355  36.782  0.00  0.00    +0.295 HD
ENDBRANCH   7  25
ENDBRANCH   1   8
BRANCH   4  27
ATOM     27  O   LIG    1      -18.910  76.325  30.510  0.00  0.00    -0.424 OA
BRANCH  27  28
ATOM     28  C   LIG    1      -20.262  76.092  30.675  0.00  0.00    +0.132 A 
ATOM     29  C   LIG    1      -20.773  75.323  31.719  0.00  0.00    +0.047 A 
ATOM     30  C   LIG    1      -22.148  75.172  31.904  0.00  0.00    +0.012 A 
ATOM     31  C   LIG    1      -23.082  75.716  31.007  0.00  0.00    -0.014 A 
ATOM     32  C   LIG    1      -22.543  76.443  29.927  0.00  0.00    +0.012 A 
ATOM     33  C   LIG    1      -21.157  76.625  29.751  0.00  0.00    +0.047 A 
BRANCH  31  34
ATOM     34  C   LIG    1      -24.553  75.553  31.220  0.00  0.00    +0.023 A 
ATOM     35  C   LIG    1      -25.506  76.589  31.093  0.00  0.00    +0.124 A 
ATOM     36  N   LIG    1      -26.827  76.443  31.344  0.00  0.00    -0.239 NA
ATOM     37  C   LIG    1      -27.265  75.222  31.717  0.00  0.00    +0.133 A 
ATOM     38  C   LIG    1      -26.437  74.130  31.851  0.00  0.00    +0.060 A 
ATOM     39 CL   LIG    1      -27.063  72.603  32.322  0.00  0.00    -0.082 Cl
ATOM     40  C   LIG    1      -25.077  74.299  31.603  0.00  0.00    +0.033 A 
BRANCH  35  41
ATOM     41  N   LIG    1      -25.199  77.879  30.667  0.00  0.00    -0.343 N 
ATOM     42  H   LIG    1      -25.827  78.551  31.097  0.00  0.00    +0.144 HD
ATOM     43  H   LIG    1      -24.239  78.044  30.960  0.00  0.00    +0.144 HD
ENDBRANCH  35  41
ENDBRANCH  31  34
ENDBRANCH  27  28
ENDBRANCH   4  27
TORSDOF 10
ENDMDL
MODEL 4
REMARK VINA RESULT:      -5.7      4.194      7.307
REMARK  Name = pdb/CHEMBL3892052.pdb
REMARK                            x       y       z     vdW  Elec       q    Type
REMARK                         _______ _______ _______ _____ _____    ______ ____
ROOT
ATOM      1  C   LIG    1      -38.444  70.071  24.138  0.00  0.00    +0.105 A 
ATOM      2  C   LIG    1      -38.727  69.448  25.339  0.00  0.00    +0.145 A 
ATOM      3  N   LIG    1      -37.906  69.443  26.414  0.00  0.00    -0.201 NA
ATOM      4  C   LIG    1      -36.754  70.132  26.294  0.00  0.00    +0.323 A 
ATOM      5  N   LIG    1      -36.322  70.689  25.156  0.00  0.00    -0.201 NA
ATOM      6  C   LIG    1      -37.176  70.618  24.107  0.00  0.00    +0.145 A 
ENDROOT
BRANCH   1   8
ATOM      7  C   LIG    1      -40.452  70.823  23.106  0.00  0.00    +0.285 C 
ATOM      8  N   LIG    1      -39.402  70.081  23.115  0.00  0.00    -0.196 NA
BRANCH   7   9
ATOM      9  N   LIG    1      -40.927  71.819  23.930  0.00  0.00    -0.268 N 
ATOM     10  H   LIG    1      -41.439  71.564  24.769  0.00  0.00    +0.157 HD
BRANCH   9  12
ATOM     11  C   LIG    1      -41.837  74.068  23.381  0.00  0.00    +0.109 A 
ATOM     12  C   LIG    1      -40.786  73.222  23.797  0.00  0.00    +0.060 A 
ATOM     13  C   LIG    1      -39.598  73.841  24.217  0.00  0.00    +0.037 A 
ATOM     14  C   LIG    1      -39.471  75.232  24.339  0.00  0.00    +0.057 A 
ATOM     15  C   LIG    1      -40.549  76.039  23.979  0.00  0.00    +0.014 A 
ATOM     16  C   LIG    1      -41.716  75.467  23.479  0.00  0.00    +0.029 A 
BRANCH  11  18
ATOM     17  C   LIG    1      -44.175  74.951  22.071  0.00  0.00    +0.200 C 
ATOM     18  S   LIG    1      -43.340  73.488  22.612  0.00  0.00    -0.004 S 
ATOM     19  O   LIG    1      -42.991  72.695  21.453  0.00  0.00    -0.170 OA
ATOM     20  O   LIG    1      -44.142  72.909  23.700  0.00  0.00    -0.170 OA
ENDBRANCH  11  18
BRANCH  14  21
ATOM     21  C   LIG    1      -38.193  75.806  24.895  0.00  0.00    +0.417 C 
ATOM     22  F   LIG    1      -37.736  76.864  24.171  0.00  0.00    -0.166 F 
ATOM     23  F   LIG    1      -37.181  74.895  24.909  0.00  0.00    -0.166 F 
ATOM     24  F   LIG    1      -38.314  76.248  26.177  0.00  0.00    -0.166 F 
ENDBRANCH  14  21
ENDBRANCH   9  12
ENDBRANCH   7   9
BRANCH   7  25
ATOM     25  O   LIG    1      -41.225  70.573  22.032  0.00  0.00    -0.481 OA
ATOM     26  H   LIG    1      -41.960  71.209  22.049  0.00  0.00    +0.295 HD
ENDBRANCH   7  25
ENDBRANCH   1   8
BRANCH   4  27
ATOM     27  O   LIG    1      -35.979  70.382  27.430  0.00  0.00    -0.424 OA
BRANCH  27  28
ATOM     28  C   LIG    1      -35.610  71.692  27.664  0.00  0.00    +0.132 A 
ATOM     29  C   LIG    1      -34.291  72.074  27.902  0.00  0.00    +0.047 A 
ATOM     30  C   LIG    1      -33.939  73.415  28.056  0.00  0.00    +0.012 A 
ATOM     31  C   LIG    1      -34.900  74.439  28.060  0.00  0.00    -0.014 A 
ATOM     32  C   LIG    1      -36.236  74.028  27.874  0.00  0.00    +0.012 A 
ATOM     33  C   LIG    1      -36.594  72.677  27.687  0.00  0.00    +0.047 A 
BRANCH  31  34
ATOM     34  C   LIG    1      -34.510  75.873  28.219  0.00  0.00    +0.023 A 
ATOM     35  C   LIG    1      -34.939  76.715  29.271  0.00  0.00    +0.124 A 
ATOM     36  N   LIG    1      -34.626  78.026  29.373  0.00  0.00    -0.239 NA
ATOM     37  C   LIG    1      -33.833  78.559  28.420  0.00  0.00    +0.133 A 
ATOM     38  C   LIG    1      -33.332  77.835  27.361  0.00  0.00    +0.060 A 
ATOM     39 CL   LIG    1      -32.323  78.576  26.187  0.00  0.00    -0.082 Cl
ATOM     40  C   LIG    1      -33.675  76.489  27.261  0.00  0.00    +0.033 A 
BRANCH  35  41
ATOM     41  N   LIG    1      -35.715  76.283  30.344  0.00  0.00    -0.343 N 
ATOM     42  H   LIG    1      -36.178  77.071  30.784  0.00  0.00    +0.144 HD
ATOM     43  H   LIG    1      -36.396  75.638  29.949  0.00  0.00    +0.144 HD
ENDBRANCH  35  41
ENDBRANCH  31  34
ENDBRANCH  27  28
ENDBRANCH   4  27
TORSDOF 10
ENDMDL
MODEL 5
REMARK VINA RESULT:      -5.6     19.904     21.050
REMARK  Name = pdb/CHEMBL3892052.pdb
REMARK                            x       y       z     vdW  Elec       q    Type
REMARK                         _______ _______ _______ _____ _____    ______ ____
ROOT
ATOM      1  C   LIG    1      -22.382  81.189  16.517  0.00  0.00    +0.105 A 
ATOM      2  C   LIG    1      -21.148  80.567  16.477  0.00  0.00    +0.145 A 
ATOM      3  N   LIG    1      -20.909  79.373  15.887  0.00  0.00    -0.201 NA
ATOM      4  C   LIG    1      -21.955  78.787  15.269  0.00  0.00    +0.323 A 
ATOM      5  N   LIG    1      -23.214  79.238  15.325  0.00  0.00    -0.201 NA
ATOM      6  C   LIG    1      -23.387  80.417  15.970  0.00  0.00    +0.145 A 
ENDROOT
BRANCH   1   8
ATOM      7  C   LIG    1      -22.658  83.550  16.417  0.00  0.00    +0.285 C 
ATOM      8  N   LIG    1      -22.500  82.464  17.086  0.00  0.00    -0.196 NA
BRANCH   7   9
ATOM      9  N   LIG    1      -22.841  83.834  15.081  0.00  0.00    -0.268 N 
ATOM     10  H   LIG    1      -23.560  83.339  14.565  0.00  0.00    +0.157 HD
BRANCH   9  12
ATOM     11  C   LIG    1      -21.344  84.417  13.181  0.00  0.00    +0.109 A 
ATOM     12  C   LIG    1      -22.160  84.780  14.275  0.00  0.00    +0.060 A 
ATOM     13  C   LIG    1      -22.395  86.150  14.468  0.00  0.00    +0.037 A 
ATOM     14  C   LIG    1      -21.951  87.129  13.567  0.00  0.00    +0.057 A 
ATOM     15  C   LIG    1      -21.199  86.732  12.462  0.00  0.00    +0.014 A 
ATOM     16  C   LIG    1      -20.874  85.390  12.281  0.00  0.00    +0.029 A 
BRANCH  11  18
ATOM     17  C   LIG    1      -19.465  82.513  14.080  0.00  0.00    +0.200 C 
ATOM     18  S   LIG    1      -20.748  82.760  12.887  0.00  0.00    -0.004 S 
ATOM     19  O   LIG    1      -21.820  81.826  13.156  0.00  0.00    -0.170 OA
ATOM     20  O   LIG    1      -20.106  82.801  11.564  0.00  0.00    -0.170 OA
ENDBRANCH  11  18
BRANCH  14  21
ATOM     21  C   LIG    1      -22.335  88.567  13.799  0.00  0.00    +0.417 C 
ATOM     22  F   LIG    1      -23.251  89.016  12.897  0.00  0.00    -0.166 F 
ATOM     23  F   LIG    1      -21.269  89.408  13.702  0.00  0.00    -0.166 F 
ATOM     24  F   LIG    1      -22.875  88.788  15.029  0.00  0.00    -0.166 F 
ENDBRANCH  14  21
ENDBRANCH   9  12
ENDBRANCH   7   9
BRANCH   7  25
ATOM     25  O   LIG    1      -22.674  84.630  17.221  0.00  0.00    -0.481 OA
ATOM     26  H   LIG    1      -21.860  84.609  17.752  0.00  0.00    +0.295 HD
ENDBRANCH   7  25
ENDBRANCH   1   8
BRANCH   4  27
ATOM     27  O   LIG    1      -21.734  77.690  14.432  0.00  0.00    -0.424 OA
BRANCH  27  28
ATOM     28  C   LIG    1      -21.411  76.492  15.039  0.00  0.00    +0.132 A 
ATOM     29  C   LIG    1      -20.115  75.982  15.061  0.00  0.00    +0.047 A 
ATOM     30  C   LIG    1      -19.806  74.809  15.750  0.00  0.00    +0.012 A 
ATOM     31  C   LIG    1      -20.795  74.040  16.386  0.00  0.00    -0.014 A 
ATOM     32  C   LIG    1      -22.110  74.543  16.305  0.00  0.00    +0.012 A 
ATOM     33  C   LIG    1      -22.422  75.744  15.636  0.00  0.00    +0.047 A 
BRANCH  31  34
ATOM     34  C   LIG    1      -20.452  72.788  17.127  0.00  0.00    +0.023 A 
ATOM     35  C   LIG    1      -20.876  71.490  16.759  0.00  0.00    +0.124 A 
ATOM     36  N   LIG    1      -20.607  70.372  17.470  0.00  0.00    -0.239 NA
ATOM     37  C   LIG    1      -19.866  70.501  18.590  0.00  0.00    +0.133 A 
ATOM     38  C   LIG    1      -19.376  71.708  19.037  0.00  0.00    +0.060 A 
ATOM     39 CL   LIG    1      -18.434  71.800  20.468  0.00  0.00    -0.082 Cl
ATOM     40  C   LIG    1      -19.673  72.853  18.303  0.00  0.00    +0.033 A 
BRANCH  35  41
ATOM     41  N   LIG    1      -21.599  71.208  15.603  0.00  0.00    -0.343 N 
ATOM     42  H   LIG    1      -21.788  72.062  15.088  0.00  0.00    +0.144 HD
ATOM     43  H   LIG    1      -21.011  70.580  15.058  0.00  0.00    +0.144 HD
ENDBRANCH  35  41
ENDBRANCH  31  34
ENDBRANCH  27  28
ENDBRANCH   4  27
TORSDOF 10
ENDMDL
MODEL 6
REMARK VINA RESULT:      -5.6     21.355     23.243
REMARK  Name = pdb/CHEMBL3892052.pdb
REMARK                            x       y       z     vdW  Elec       q    Type
REMARK                         _______ _______ _______ _____ _____    ______ ____
ROOT
ATOM      1  C   LIG    1      -18.689  78.503  14.899  0.00  0.00    +0.105 A 
ATOM      2  C   LIG    1      -18.360  79.469  15.830  0.00  0.00    +0.145 A 
ATOM      3  N   LIG    1      -17.710  80.621  15.545  0.00  0.00    -0.201 NA
ATOM      4  C   LIG    1      -17.407  80.836  14.249  0.00  0.00    +0.323 A 
ATOM      5  N   LIG    1      -17.582  79.936  13.274  0.00  0.00    -0.201 NA
ATOM      6  C   LIG    1      -18.198  78.786  13.639  0.00  0.00    +0.145 A 
ENDROOT
BRANCH   1   8
ATOM      7  C   LIG    1      -20.646  77.150  14.930  0.00  0.00    +0.285 C 
ATOM      8  N   LIG    1      -19.435  77.383  15.291  0.00  0.00    -0.196 NA
BRANCH   7   9
ATOM      9  N   LIG    1      -21.525  77.769  14.068  0.00  0.00    -0.268 N 
ATOM     10  H   LIG    1      -21.605  77.429  13.116  0.00  0.00    +0.157 HD
BRANCH   9  12
ATOM     11  C   LIG    1      -23.774  78.828  13.994  0.00  0.00    +0.109 A 
ATOM     12  C   LIG    1      -22.402  78.852  14.324  0.00  0.00    +0.060 A 
ATOM     13  C   LIG    1      -21.942  79.957  15.058  0.00  0.00    +0.037 A 
ATOM     14  C   LIG    1      -22.801  80.948  15.553  0.00  0.00    +0.057 A 
ATOM     15  C   LIG    1      -24.162  80.863  15.262  0.00  0.00    +0.014 A 
ATOM     16  C   LIG    1      -24.645  79.827  14.467  0.00  0.00    +0.029 A 
BRANCH  11  18
ATOM     17  C   LIG    1      -23.934  78.075  11.279  0.00  0.00    +0.200 C 
ATOM     18  S   LIG    1      -24.515  77.636  12.892  0.00  0.00    -0.004 S 
ATOM     19  O   LIG    1      -24.013  76.320  13.226  0.00  0.00    -0.170 OA
ATOM     20  O   LIG    1      -25.959  77.915  12.922  0.00  0.00    -0.170 OA
ENDBRANCH  11  18
BRANCH  14  21
ATOM     21  C   LIG    1      -22.235  82.045  16.417  0.00  0.00    +0.417 C 
ATOM     22  F   LIG    1      -20.875  82.020  16.472  0.00  0.00    -0.166 F 
ATOM     23  F   LIG    1      -22.664  81.960  17.707  0.00  0.00    -0.166 F 
ATOM     24  F   LIG    1      -22.573  83.293  15.993  0.00  0.00    -0.166 F 
ENDBRANCH  14  21
ENDBRANCH   9  12
ENDBRANCH   7   9
BRANCH   7  25
ATOM     25  O   LIG    1      -21.130  76.037  15.513  0.00  0.00    -0.481 OA
ATOM     26  H   LIG    1      -21.175  76.205  16.469  0.00  0.00    +0.295 HD
ENDBRANCH   7  25
ENDBRANCH   1   8
BRANCH   4  27
ATOM     27  O   LIG    1      -16.967  82.099  13.844  0.00  0.00    -0.424 OA
BRANCH  27  28
ATOM     28  C   LIG    1      -17.929  83.076  13.678  0.00  0.00    +0.132 A 
ATOM     29  C   LIG    1      -19.290  82.830  13.845  0.00  0.00    +0.047 A 
ATOM     30  C   LIG    1      -20.232  83.856  13.748  0.00  0.00    +0.012 A 
ATOM     31  C   LIG    1      -19.867  85.167  13.398  0.00  0.00    -0.014 A 
ATOM     32  C   LIG    1      -18.492  85.383  13.179  0.00  0.00    +0.012 A 
ATOM     33  C   LIG    1      -17.533  84.358  13.305  0.00  0.00    +0.047 A 
BRANCH  31  34
ATOM     34  C   LIG    1      -20.883  86.259  13.304  0.00  0.00    +0.023 A 
ATOM     35  C   LIG    1      -21.076  87.269  14.275  0.00  0.00    +0.124 A 
ATOM     36  N   LIG    1      -22.036  88.218  14.205  0.00  0.00    -0.239 NA
ATOM     37  C   LIG    1      -22.848  88.213  13.128  0.00  0.00    +0.133 A 
ATOM     38  C   LIG    1      -22.743  87.297  12.105  0.00  0.00    +0.060 A 
ATOM     39 CL   LIG    1      -23.805  87.354  10.759  0.00  0.00    -0.082 Cl
ATOM     40  C   LIG    1      -21.758  86.317  12.197  0.00  0.00    +0.033 A 
BRANCH  35  41
ATOM     41  N   LIG    1      -20.278  87.420  15.406  0.00  0.00    -0.343 N 
ATOM     42  H   LIG    1      -19.562  88.120  15.241  0.00  0.00    +0.144 HD
ATOM     43  H   LIG    1      -20.908  87.716  16.149  0.00  0.00    +0.144 HD
ENDBRANCH  35  41
ENDBRANCH  31  34
ENDBRANCH  27  28
ENDBRANCH   4  27
TORSDOF 10
ENDMDL
MODEL 7
REMARK VINA RESULT:      -5.5      4.077      8.114
REMARK  Name = pdb/CHEMBL3892052.pdb
REMARK                            x       y       z     vdW  Elec       q    Type
REMARK                         _______ _______ _______ _____ _____    ______ ____
ROOT
ATOM      1  C   LIG    1      -35.954  69.089  26.418  0.00  0.00    +0.105 A 
ATOM      2  C   LIG    1      -37.273  69.062  26.829  0.00  0.00    +0.145 A 
ATOM      3  N   LIG    1      -38.006  70.159  27.131  0.00  0.00    -0.201 NA
ATOM      4  C   LIG    1      -37.396  71.351  26.976  0.00  0.00    +0.323 A 
ATOM      5  N   LIG    1      -36.099  71.503  26.684  0.00  0.00    -0.201 NA
ATOM      6  C   LIG    1      -35.415  70.360  26.437  0.00  0.00    +0.145 A 
ENDROOT
BRANCH   1   8
ATOM      7  C   LIG    1      -35.034  67.559  24.847  0.00  0.00    +0.285 C 
ATOM      8  N   LIG    1      -35.314  67.897  26.055  0.00  0.00    -0.196 NA
BRANCH   7   9
ATOM      9  N   LIG    1      -35.150  68.185  23.625  0.00  0.00    -0.268 N 
ATOM     10  H   LIG    1      -34.445  68.859  23.346  0.00  0.00    +0.157 HD
BRANCH   9  12
ATOM     11  C   LIG    1      -36.076  67.000  21.644  0.00  0.00    +0.109 A 
ATOM     12  C   LIG    1      -36.143  68.008  22.630  0.00  0.00    +0.060 A 
ATOM     13  C   LIG    1      -37.321  68.769  22.684  0.00  0.00    +0.037 A 
ATOM     14  C   LIG    1      -38.440  68.490  21.887  0.00  0.00    +0.057 A 
ATOM     15  C   LIG    1      -38.365  67.447  20.965  0.00  0.00    +0.014 A 
ATOM     16  C   LIG    1      -37.185  66.722  20.823  0.00  0.00    +0.029 A 
BRANCH  11  18
ATOM     17  C   LIG    1      -34.818  65.517  19.599  0.00  0.00    +0.200 C 
ATOM     18  S   LIG    1      -34.600  66.071  21.265  0.00  0.00    -0.004 S 
ATOM     19  O   LIG    1      -33.463  66.965  21.315  0.00  0.00    -0.170 OA
ATOM     20  O   LIG    1      -34.651  64.879  22.127  0.00  0.00    -0.170 OA
ENDBRANCH  11  18
BRANCH  14  21
ATOM     21  C   LIG    1      -39.699  69.295  22.083  0.00  0.00    +0.417 C 
ATOM     22  F   LIG    1      -39.488  70.430  22.805  0.00  0.00    -0.166 F 
ATOM     23  F   LIG    1      -40.660  68.598  22.751  0.00  0.00    -0.166 F 
ATOM     24  F   LIG    1      -40.271  69.692  20.913  0.00  0.00    -0.166 F 
ENDBRANCH  14  21
ENDBRANCH   9  12
ENDBRANCH   7   9
BRANCH   7  25
ATOM     25  O   LIG    1      -34.480  66.333  24.792  0.00  0.00    -0.481 OA
ATOM     26  H   LIG    1      -34.725  65.941  23.936  0.00  0.00    +0.295 HD
ENDBRANCH   7  25
ENDBRANCH   1   8
BRANCH   4  27
ATOM     27  O   LIG    1      -38.155  72.524  27.025  0.00  0.00    -0.424 OA
BRANCH  27  28
ATOM     28  C   LIG    1      -39.112  72.694  26.044  0.00  0.00    +0.132 A 
ATOM     29  C   LIG    1      -38.943  73.562  24.967  0.00  0.00    +0.047 A 
ATOM     30  C   LIG    1      -39.895  73.653  23.950  0.00  0.00    +0.012 A 
ATOM     31  C   LIG    1      -41.104  72.939  23.999  0.00  0.00    -0.014 A 
ATOM     32  C   LIG    1      -41.280  72.109  25.124  0.00  0.00    +0.012 A 
ATOM     33  C   LIG    1      -40.309  71.990  26.139  0.00  0.00    +0.047 A 
BRANCH  31  34
ATOM     34  C   LIG    1      -42.113  73.039  22.901  0.00  0.00    +0.023 A 
ATOM     35  C   LIG    1      -43.092  74.054  22.794  0.00  0.00    +0.124 A 
ATOM     36  N   LIG    1      -44.035  74.101  21.827  0.00  0.00    -0.239 NA
ATOM     37  C   LIG    1      -44.027  73.129  20.891  0.00  0.00    +0.133 A 
ATOM     38  C   LIG    1      -43.108  72.103  20.875  0.00  0.00    +0.060 A 
ATOM     39 CL   LIG    1      -43.151  70.903  19.649  0.00  0.00    -0.082 Cl
ATOM     40  C   LIG    1      -42.151  72.059  21.885  0.00  0.00    +0.033 A 
BRANCH  35  41
ATOM     41  N   LIG    1      -43.181  75.141  23.659  0.00  0.00    -0.343 N 
ATOM     42  H   LIG    1      -42.258  75.519  23.847  0.00  0.00    +0.144 HD
ATOM     43  H   LIG    1      -43.761  75.826  23.180  0.00  0.00    +0.144 HD
ENDBRANCH  35  41
ENDBRANCH  31  34
ENDBRANCH  27  28
ENDBRANCH   4  27
TORSDOF 10
ENDMDL
MODEL 8
REMARK VINA RESULT:      -5.5     11.249     14.191
REMARK  Name = pdb/CHEMBL3892052.pdb
REMARK                            x       y       z     vdW  Elec       q    Type
REMARK                         _______ _______ _______ _____ _____    ______ ____
ROOT
ATOM      1  C   LIG    1      -27.991  75.068  32.511  0.00  0.00    +0.105 A 
ATOM      2  C   LIG    1      -28.140  76.442  32.496  0.00  0.00    +0.145 A 
ATOM      3  N   LIG    1      -27.264  77.303  31.929  0.00  0.00    -0.201 NA
ATOM      4  C   LIG    1      -26.200  76.757  31.308  0.00  0.00    +0.323 A 
ATOM      5  N   LIG    1      -25.893  75.455  31.340  0.00  0.00    -0.201 NA
ATOM      6  C   LIG    1      -26.792  74.655  31.964  0.00  0.00    +0.145 A 
ENDROOT
BRANCH   1   8
ATOM      7  C   LIG    1      -29.864  73.608  32.368  0.00  0.00    +0.285 C 
ATOM      8  N   LIG    1      -29.000  74.263  33.058  0.00  0.00    -0.196 NA
BRANCH   7   9
ATOM      9  N   LIG    1      -30.051  73.395  31.020  0.00  0.00    -0.268 N 
ATOM     10  H   LIG    1      -29.245  73.387  30.405  0.00  0.00    +0.157 HD
BRANCH   9  12
ATOM     11  C   LIG    1      -32.041  74.170  29.745  0.00  0.00    +0.109 A 
ATOM     12  C   LIG    1      -31.259  73.146  30.322  0.00  0.00    +0.060 A 
ATOM     13  C   LIG    1      -31.649  71.823  30.063  0.00  0.00    +0.037 A 
ATOM     14  C   LIG    1      -32.691  71.500  29.183  0.00  0.00    +0.057 A 
ATOM     15  C   LIG    1      -33.406  72.534  28.580  0.00  0.00    +0.014 A 
ATOM     16  C   LIG    1      -33.104  73.860  28.876  0.00  0.00    +0.029 A 
BRANCH  11  18
ATOM     17  C   LIG    1      -32.755  76.753  28.860  0.00  0.00    +0.200 C 
ATOM     18  S   LIG    1      -31.851  75.905  30.122  0.00  0.00    -0.004 S 
ATOM     19  O   LIG    1      -32.472  76.172  31.401  0.00  0.00    -0.170 OA
ATOM     20  O   LIG    1      -30.426  76.201  29.906  0.00  0.00    -0.170 OA
ENDBRANCH  11  18
BRANCH  14  21
ATOM     21  C   LIG    1      -32.976  70.050  28.885  0.00  0.00    +0.417 C 
ATOM     22  F   LIG    1      -33.976  69.543  29.657  0.00  0.00    -0.166 F 
ATOM     23  F   LIG    1      -31.892  69.255  29.103  0.00  0.00    -0.166 F 
ATOM     24  F   LIG    1      -33.347  69.829  27.594  0.00  0.00    -0.166 F 
ENDBRANCH  14  21
ENDBRANCH   9  12
ENDBRANCH   7   9
BRANCH   7  25
ATOM     25  O   LIG    1      -30.752  72.977  33.160  0.00  0.00    -0.481 OA
ATOM     26  H   LIG    1      -30.263  72.622  33.921  0.00  0.00    +0.295 HD
ENDBRANCH   7  25
ENDBRANCH   1   8
BRANCH   4  27
ATOM     27  O   LIG    1      -25.394  77.556  30.492  0.00  0.00    -0.424 OA
BRANCH  27  28
ATOM     28  C   LIG    1      -24.031  77.497  30.704  0.00  0.00    +0.132 A 
ATOM     29  C   LIG    1      -23.454  77.678  31.959  0.00  0.00    +0.047 A 
ATOM     30  C   LIG    1      -22.080  77.534  32.156  0.00  0.00    +0.012 A 
ATOM     31  C   LIG    1      -21.200  77.281  31.090  0.00  0.00    -0.014 A 
ATOM     32  C   LIG    1      -21.797  77.156  29.819  0.00  0.00    +0.012 A 
ATOM     33  C   LIG    1      -23.188  77.270  29.619  0.00  0.00    +0.047 A 
BRANCH  31  34
ATOM     34  C   LIG    1      -19.731  77.122  31.313  0.00  0.00    +0.023 A 
ATOM     35  C   LIG    1      -18.910  78.058  31.984  0.00  0.00    +0.124 A 
ATOM     36  N   LIG    1      -17.572  77.930  32.130  0.00  0.00    -0.239 NA
ATOM     37  C   LIG    1      -16.987  76.826  31.621  0.00  0.00    +0.133 A 
ATOM     38  C   LIG    1      -17.684  75.832  30.969  0.00  0.00    +0.060 A 
ATOM     39 CL   LIG    1      -16.876  74.450  30.353  0.00  0.00    -0.082 Cl
ATOM     40  C   LIG    1      -19.059  75.985  30.814  0.00  0.00    +0.033 A 
BRANCH  35  41
ATOM     41  N   LIG    1      -19.391  79.211  32.599  0.00  0.00    -0.343 N 
ATOM     42  H   LIG    1      -19.769  79.849  31.906  0.00  0.00    +0.144 HD
ATOM     43  H   LIG    1      -20.119  78.899  33.238  0.00  0.00    +0.144 HD
ENDBRANCH  35  41
ENDBRANCH  31  34
ENDBRANCH  27  28
ENDBRANCH   4  27
TORSDOF 10
ENDMDL
MODEL 9
REMARK VINA RESULT:      -5.5      4.089      6.830
REMARK  Name = pdb/CHEMBL3892052.pdb
REMARK                            x       y       z     vdW  Elec       q    Type
REMARK                         _______ _______ _______ _____ _____    ______ ____
ROOT
ATOM      1  C   LIG    1      -39.298  67.971  21.597  0.00  0.00    +0.105 A 
ATOM      2  C   LIG    1      -39.436  66.879  22.433  0.00  0.00    +0.145 A 
ATOM      3  N   LIG    1      -38.453  66.387  23.222  0.00  0.00    -0.201 NA
ATOM      4  C   LIG    1      -37.278  67.049  23.202  0.00  0.00    +0.323 A 
ATOM      5  N   LIG    1      -36.991  68.053  22.365  0.00  0.00    -0.201 NA
ATOM      6  C   LIG    1      -38.009  68.465  21.571  0.00  0.00    +0.145 A 
ENDROOT
BRANCH   1   8
ATOM      7  C   LIG    1      -41.313  69.215  21.368  0.00  0.00    +0.285 C 
ATOM      8  N   LIG    1      -40.406  68.445  20.882  0.00  0.00    -0.196 NA
BRANCH   7   9
ATOM      9  N   LIG    1      -41.477  69.859  22.575  0.00  0.00    -0.268 N 
ATOM     10  H   LIG    1      -41.968  69.384  23.325  0.00  0.00    +0.157 HD
BRANCH   9  12
ATOM     11  C   LIG    1      -41.815  72.305  22.869  0.00  0.00    +0.109 A 
ATOM     12  C   LIG    1      -41.020  71.142  22.963  0.00  0.00    +0.060 A 
ATOM     13  C   LIG    1      -39.775  71.271  23.597  0.00  0.00    +0.037 A 
ATOM     14  C   LIG    1      -39.361  72.457  24.219  0.00  0.00    +0.057 A 
ATOM     15  C   LIG    1      -40.196  73.572  24.163  0.00  0.00    +0.014 A 
ATOM     16  C   LIG    1      -41.403  73.509  23.471  0.00  0.00    +0.029 A 
BRANCH  11  18
ATOM     17  C   LIG    1      -44.073  73.935  22.411  0.00  0.00    +0.200 C 
ATOM     18  S   LIG    1      -43.323  72.410  21.920  0.00  0.00    -0.004 S 
ATOM     19  O   LIG    1      -42.983  72.488  20.516  0.00  0.00    -0.170 OA
ATOM     20  O   LIG    1      -44.181  71.325  22.422  0.00  0.00    -0.170 OA
ENDBRANCH  11  18
BRANCH  14  21
ATOM     21  C   LIG    1      -38.051  72.476  24.964  0.00  0.00    +0.417 C 
ATOM     22  F   LIG    1      -38.175  72.059  26.254  0.00  0.00    -0.166 F 
ATOM     23  F   LIG    1      -37.509  73.724  25.024  0.00  0.00    -0.166 F 
ATOM     24  F   LIG    1      -37.099  71.683  24.400  0.00  0.00    -0.166 F 
ENDBRANCH  14  21
ENDBRANCH   9  12
ENDBRANCH   7   9
BRANCH   7  25
ATOM     25  O   LIG    1      -42.291  69.454  20.473  0.00  0.00    -0.481 OA
ATOM     26  H   LIG    1      -43.065  69.774  20.967  0.00  0.00    +0.295 HD
ENDBRANCH   7  25
ENDBRANCH   1   8
BRANCH   4  27
ATOM     27  O   LIG    1      -36.308  66.758  24.165  0.00  0.00    -0.424 OA
BRANCH  27  28
ATOM     28  C   LIG    1      -35.899  67.797  24.978  0.00  0.00    +0.132 A 
ATOM     29  C   LIG    1      -36.754  68.435  25.875  0.00  0.00    +0.047 A 
ATOM     30  C   LIG    1      -36.291  69.428  26.739  0.00  0.00    +0.012 A 
ATOM     31  C   LIG    1      -34.966  69.891  26.696  0.00  0.00    -0.014 A 
ATOM     32  C   LIG    1      -34.130  69.272  25.745  0.00  0.00    +0.012 A 
ATOM     33  C   LIG    1      -34.584  68.247  24.889  0.00  0.00    +0.047 A 
BRANCH  31  34
ATOM     34  C   LIG    1      -34.479  70.951  27.632  0.00  0.00    +0.023 A 
ATOM     35  C   LIG    1      -33.666  70.716  28.764  0.00  0.00    +0.124 A 
ATOM     36  N   LIG    1      -33.280  71.675  29.635  0.00  0.00    -0.239 NA
ATOM     37  C   LIG    1      -33.679  72.941  29.395  0.00  0.00    +0.133 A 
ATOM     38  C   LIG    1      -34.451  73.298  28.311  0.00  0.00    +0.060 A 
ATOM     39 CL   LIG    1      -34.917  74.930  28.062  0.00  0.00    -0.082 Cl
ATOM     40  C   LIG    1      -34.853  72.298  27.431  0.00  0.00    +0.033 A 
BRANCH  35  41
ATOM     41  N   LIG    1      -33.143  69.470  29.100  0.00  0.00    -0.343 N 
ATOM     42  H   LIG    1      -33.891  68.799  29.240  0.00  0.00    +0.144 HD
ATOM     43  H   LIG    1      -32.556  69.198  28.314  0.00  0.00    +0.144 HD
ENDBRANCH  35  41
ENDBRANCH  31  34
ENDBRANCH  27  28
ENDBRANCH   4  27
TORSDOF 10
ENDMDL
