MODEL 1
REMARK VINA RESULT:      -7.0      0.000      0.000
REMARK  Name = pdb/CHEMBL3914544.pdb
REMARK                            x       y       z     vdW  Elec       q    Type
REMARK                         _______ _______ _______ _____ _____    ______ ____
ROOT
ATOM      1  C   LIG    1      -31.425  74.939  30.331  0.00  0.00    +0.131 C 
ATOM      2  N   LIG    1      -31.837  76.211  30.208  0.00  0.00    -0.141 NA
ATOM      3  N   LIG    1      -32.719  76.182  29.166  0.00  0.00    -0.201 N 
ATOM      4  C   LIG    1      -33.078  74.867  28.838  0.00  0.00    +0.185 C 
ATOM      5  C   LIG    1      -32.210  74.065  29.548  0.00  0.00    +0.056 C 
ENDROOT
BRANCH   3   6
ATOM      6  C   LIG    1      -33.172  77.408  28.598  0.00  0.00    +0.052 A 
ATOM      7  C   LIG    1      -34.352  78.024  29.029  0.00  0.00    +0.025 A 
ATOM      8  C   LIG    1      -34.765  79.234  28.460  0.00  0.00    +0.002 A 
ATOM      9  C   LIG    1      -34.016  79.822  27.444  0.00  0.00    +0.000 A 
ATOM     10  C   LIG    1      -32.863  79.194  26.980  0.00  0.00    +0.002 A 
ATOM     11  C   LIG    1      -32.446  77.984  27.544  0.00  0.00    +0.025 A 
ENDBRANCH   3   6
BRANCH   4  12
ATOM     12  N   LIG    1      -34.111  74.431  28.001  0.00  0.00    -0.282 N 
ATOM     13  H   LIG    1      -33.861  74.166  27.046  0.00  0.00    +0.152 HD
ATOM     14  C   LIG    1      -35.508  74.414  28.372  0.00  0.00    +0.247 C 
ATOM     15  O   LIG    1      -35.884  74.882  29.438  0.00  0.00    -0.270 OA
BRANCH  14  16
ATOM     16  C   LIG    1      -36.474  73.896  27.370  0.00  0.00    +0.056 A 
ATOM     17  C   LIG    1      -36.742  72.535  27.170  0.00  0.00    +0.054 A 
ATOM     18 CL   LIG    1      -36.043  71.278  28.115  0.00  0.00    -0.083 Cl
ATOM     19  C   LIG    1      -37.638  72.142  26.179  0.00  0.00    +0.041 A 
ATOM     20  C   LIG    1      -38.305  73.084  25.384  0.00  0.00    +0.052 A 
ATOM     21 CL   LIG    1      -39.282  72.403  24.128  0.00  0.00    -0.083 Cl
ATOM     22  C   LIG    1      -38.123  74.467  25.589  0.00  0.00    +0.019 A 
ATOM     23  C   LIG    1      -37.187  74.833  26.591  0.00  0.00    +0.026 A 
BRANCH  22  24
ATOM     24  C   LIG    1      -38.811  75.544  24.824  0.00  0.00    +0.072 A 
ATOM     25  N   LIG    1      -38.062  76.659  24.616  0.00  0.00    -0.255 NA
ATOM     26  C   LIG    1      -38.620  77.691  23.937  0.00  0.00    +0.111 A 
ATOM     27  C   LIG    1      -39.904  77.673  23.426  0.00  0.00    +0.020 A 
ATOM     28  C   LIG    1      -40.671  76.542  23.648  0.00  0.00    +0.004 A 
ATOM     29  C   LIG    1      -40.131  75.481  24.376  0.00  0.00    +0.028 A 
ENDBRANCH  22  24
ENDBRANCH  14  16
ENDBRANCH   4  12
BRANCH   1  30
ATOM     30  C   LIG    1      -30.304  74.591  31.193  0.00  0.00    +0.233 C 
ATOM     31  N   LIG    1      -29.387  75.454  31.436  0.00  0.00    -0.243 NA
BRANCH  30  32
ATOM     32  O   LIG    1      -30.345  73.347  31.719  0.00  0.00    -0.491 OA
ATOM     33  H   LIG    1      -29.447  73.093  32.010  0.00  0.00    +0.294 HD
ENDBRANCH  30  32
BRANCH  31  34
ATOM     34  C   LIG    1      -28.327  75.039  32.369  0.00  0.00    +0.202 C 
BRANCH  34  35
ATOM     35  C   LIG    1      -26.935  75.376  31.878  0.00  0.00    +0.085 A 
ATOM     36  N   LIG    1      -26.786  76.537  31.199  0.00  0.00    -0.152 NA
ATOM     37  N   LIG    1      -25.570  76.877  30.673  0.00  0.00    -0.157 NA
ATOM     38  C   LIG    1      -24.524  76.044  30.830  0.00  0.00    +0.135 A 
ATOM     39  C   LIG    1      -24.630  74.845  31.505  0.00  0.00    +0.023 A 
ATOM     40  C   LIG    1      -25.867  74.499  32.032  0.00  0.00    +0.028 A 
ENDBRANCH  34  35
ENDBRANCH  31  34
ENDBRANCH   1  30
TORSDOF 8
ENDMDL
MODEL 2
REMARK VINA RESULT:      -6.9     12.909     16.270
REMARK  Name = pdb/CHEMBL3914544.pdb
REMARK                            x       y       z     vdW  Elec       q    Type
REMARK                         _______ _______ _______ _____ _____    ______ ____
ROOT
ATOM      1  C   LIG    1      -30.907  66.238  19.235  0.00  0.00    +0.131 C 
ATOM      2  N   LIG    1      -29.808  65.514  19.497  0.00  0.00    -0.141 NA
ATOM      3  N   LIG    1      -28.823  66.118  18.770  0.00  0.00    -0.201 N 
ATOM      4  C   LIG    1      -29.232  67.372  18.298  0.00  0.00    +0.185 C 
ATOM      5  C   LIG    1      -30.586  67.430  18.549  0.00  0.00    +0.056 C 
ENDROOT
BRANCH   3   6
ATOM      6  C   LIG    1      -27.564  65.465  18.618  0.00  0.00    +0.052 A 
ATOM      7  C   LIG    1      -26.576  65.539  19.606  0.00  0.00    +0.025 A 
ATOM      8  C   LIG    1      -25.354  64.879  19.433  0.00  0.00    +0.002 A 
ATOM      9  C   LIG    1      -25.106  64.159  18.266  0.00  0.00    +0.000 A 
ATOM     10  C   LIG    1      -26.068  64.116  17.261  0.00  0.00    +0.002 A 
ATOM     11  C   LIG    1      -27.289  64.775  17.427  0.00  0.00    +0.025 A 
ENDBRANCH   3   6
BRANCH   4  12
ATOM     12  N   LIG    1      -28.454  68.382  17.722  0.00  0.00    -0.282 N 
ATOM     13  H   LIG    1      -28.314  68.349  16.710  0.00  0.00    +0.152 HD
ATOM     14  C   LIG    1      -27.769  69.410  18.473  0.00  0.00    +0.247 C 
ATOM     15  O   LIG    1      -27.758  69.397  19.696  0.00  0.00    -0.270 OA
BRANCH  14  16
ATOM     16  C   LIG    1      -27.003  70.422  17.702  0.00  0.00    +0.056 A 
ATOM     17  C   LIG    1      -27.566  71.255  16.727  0.00  0.00    +0.054 A 
ATOM     18 CL   LIG    1      -29.244  71.274  16.343  0.00  0.00    -0.083 Cl
ATOM     19  C   LIG    1      -26.760  72.150  16.028  0.00  0.00    +0.041 A 
ATOM     20  C   LIG    1      -25.388  72.257  16.296  0.00  0.00    +0.052 A 
ATOM     21 CL   LIG    1      -24.531  73.332  15.243  0.00  0.00    -0.083 Cl
ATOM     22  C   LIG    1      -24.784  71.491  17.313  0.00  0.00    +0.019 A 
ATOM     23  C   LIG    1      -25.629  70.574  17.990  0.00  0.00    +0.026 A 
BRANCH  22  24
ATOM     24  C   LIG    1      -23.346  71.558  17.697  0.00  0.00    +0.072 A 
ATOM     25  N   LIG    1      -22.533  70.720  17.001  0.00  0.00    -0.255 NA
ATOM     26  C   LIG    1      -21.211  70.713  17.299  0.00  0.00    +0.111 A 
ATOM     27  C   LIG    1      -20.633  71.520  18.259  0.00  0.00    +0.020 A 
ATOM     28  C   LIG    1      -21.463  72.365  18.978  0.00  0.00    +0.004 A 
ATOM     29  C   LIG    1      -22.833  72.364  18.714  0.00  0.00    +0.028 A 
ENDBRANCH  22  24
ENDBRANCH  14  16
ENDBRANCH   4  12
BRANCH   1  30
ATOM     30  C   LIG    1      -32.227  65.781  19.649  0.00  0.00    +0.233 C 
ATOM     31  N   LIG    1      -32.865  66.408  20.568  0.00  0.00    -0.243 NA
BRANCH  30  32
ATOM     32  O   LIG    1      -32.704  64.712  18.974  0.00  0.00    -0.491 OA
ATOM     33  H   LIG    1      -32.696  63.933  19.565  0.00  0.00    +0.294 HD
ENDBRANCH  30  32
BRANCH  31  34
ATOM     34  C   LIG    1      -34.217  65.917  20.877  0.00  0.00    +0.202 C 
BRANCH  34  35
ATOM     35  C   LIG    1      -35.066  66.931  21.613  0.00  0.00    +0.085 A 
ATOM     36  N   LIG    1      -34.502  67.554  22.674  0.00  0.00    -0.152 NA
ATOM     37  N   LIG    1      -35.231  68.436  23.423  0.00  0.00    -0.157 NA
ATOM     38  C   LIG    1      -36.516  68.675  23.102  0.00  0.00    +0.135 A 
ATOM     39  C   LIG    1      -37.139  68.055  22.037  0.00  0.00    +0.023 A 
ATOM     40  C   LIG    1      -36.398  67.156  21.282  0.00  0.00    +0.028 A 
ENDBRANCH  34  35
ENDBRANCH  31  34
ENDBRANCH   1  30
TORSDOF 8
ENDMDL
MODEL 3
REMARK VINA RESULT:      -6.8     17.228     19.721
REMARK  Name = pdb/CHEMBL3914544.pdb
REMARK                            x       y       z     vdW  Elec       q    Type
REMARK                         _______ _______ _______ _____ _____    ______ ____
ROOT
ATOM      1  C   LIG    1      -26.309  77.792  14.106  0.00  0.00    +0.131 C 
ATOM      2  N   LIG    1      -25.300  77.931  14.981  0.00  0.00    -0.141 NA
ATOM      3  N   LIG    1      -24.697  79.101  14.619  0.00  0.00    -0.201 N 
ATOM      4  C   LIG    1      -25.493  79.831  13.726  0.00  0.00    +0.185 C 
ATOM      5  C   LIG    1      -26.503  78.970  13.353  0.00  0.00    +0.056 C 
ENDROOT
BRANCH   3   6
ATOM      6  C   LIG    1      -23.433  79.440  15.183  0.00  0.00    +0.052 A 
ATOM      7  C   LIG    1      -22.285  78.686  14.915  0.00  0.00    +0.025 A 
ATOM      8  C   LIG    1      -21.055  79.050  15.475  0.00  0.00    +0.002 A 
ATOM      9  C   LIG    1      -20.969  80.155  16.319  0.00  0.00    +0.000 A 
ATOM     10  C   LIG    1      -22.114  80.885  16.625  0.00  0.00    +0.002 A 
ATOM     11  C   LIG    1      -23.346  80.524  16.070  0.00  0.00    +0.025 A 
ENDBRANCH   3   6
BRANCH   4  12
ATOM     12  N   LIG    1      -25.341  81.157  13.309  0.00  0.00    -0.282 N 
ATOM     13  H   LIG    1      -25.960  81.855  13.726  0.00  0.00    +0.152 HD
ATOM     14  C   LIG    1      -24.431  81.585  12.270  0.00  0.00    +0.247 C 
ATOM     15  O   LIG    1      -23.792  80.772  11.616  0.00  0.00    -0.270 OA
BRANCH  14  16
ATOM     16  C   LIG    1      -24.377  83.037  11.966  0.00  0.00    +0.056 A 
ATOM     17  C   LIG    1      -25.214  83.676  11.041  0.00  0.00    +0.054 A 
ATOM     18 CL   LIG    1      -26.475  82.875  10.186  0.00  0.00    -0.083 Cl
ATOM     19  C   LIG    1      -25.066  85.038  10.795  0.00  0.00    +0.041 A 
ATOM     20  C   LIG    1      -24.106  85.801  11.474  0.00  0.00    +0.052 A 
ATOM     21 CL   LIG    1      -23.988  87.446  10.945  0.00  0.00    -0.083 Cl
ATOM     22  C   LIG    1      -23.284  85.224  12.463  0.00  0.00    +0.019 A 
ATOM     23  C   LIG    1      -23.446  83.830  12.673  0.00  0.00    +0.026 A 
BRANCH  22  24
ATOM     24  C   LIG    1      -22.263  85.955  13.263  0.00  0.00    +0.072 A 
ATOM     25  N   LIG    1      -21.006  85.921  12.746  0.00  0.00    -0.255 NA
ATOM     26  C   LIG    1      -20.016  86.553  13.421  0.00  0.00    +0.111 A 
ATOM     27  C   LIG    1      -20.209  87.248  14.600  0.00  0.00    +0.020 A 
ATOM     28  C   LIG    1      -21.487  87.272  15.134  0.00  0.00    +0.004 A 
ATOM     29  C   LIG    1      -22.516  86.598  14.475  0.00  0.00    +0.028 A 
ENDBRANCH  22  24
ENDBRANCH  14  16
ENDBRANCH   4  12
BRANCH   1  30
ATOM     30  C   LIG    1      -27.062  76.548  14.016  0.00  0.00    +0.233 C 
ATOM     31  N   LIG    1      -26.448  75.421  14.040  0.00  0.00    -0.243 NA
BRANCH  30  32
ATOM     32  O   LIG    1      -28.404  76.690  13.951  0.00  0.00    -0.491 OA
ATOM     33  H   LIG    1      -28.673  76.753  13.013  0.00  0.00    +0.294 HD
ENDBRANCH  30  32
BRANCH  31  34
ATOM     34  C   LIG    1      -27.292  74.216  14.010  0.00  0.00    +0.202 C 
BRANCH  34  35
ATOM     35  C   LIG    1      -26.863  73.163  15.009  0.00  0.00    +0.085 A 
ATOM     36  N   LIG    1      -25.620  73.277  15.530  0.00  0.00    -0.152 NA
ATOM     37  N   LIG    1      -25.142  72.328  16.391  0.00  0.00    -0.157 NA
ATOM     38  C   LIG    1      -25.917  71.275  16.711  0.00  0.00    +0.135 A 
ATOM     39  C   LIG    1      -27.187  71.108  16.196  0.00  0.00    +0.023 A 
ATOM     40  C   LIG    1      -27.666  72.070  15.318  0.00  0.00    +0.028 A 
ENDBRANCH  34  35
ENDBRANCH  31  34
ENDBRANCH   1  30
TORSDOF 8
ENDMDL
MODEL 4
REMARK VINA RESULT:      -6.7      5.169      9.059
REMARK  Name = pdb/CHEMBL3914544.pdb
REMARK                            x       y       z     vdW  Elec       q    Type
REMARK                         _______ _______ _______ _____ _____    ______ ____
ROOT
ATOM      1  C   LIG    1      -37.926  75.542  25.713  0.00  0.00    +0.131 C 
ATOM      2  N   LIG    1      -38.082  74.328  25.162  0.00  0.00    -0.141 NA
ATOM      3  N   LIG    1      -39.288  74.398  24.525  0.00  0.00    -0.201 N 
ATOM      4  C   LIG    1      -39.738  75.721  24.427  0.00  0.00    +0.185 C 
ATOM      5  C   LIG    1      -38.892  76.453  25.234  0.00  0.00    +0.056 C 
ENDROOT
BRANCH   3   6
ATOM      6  C   LIG    1      -39.890  73.203  24.033  0.00  0.00    +0.052 A 
ATOM      7  C   LIG    1      -41.159  73.211  23.443  0.00  0.00    +0.025 A 
ATOM      8  C   LIG    1      -41.720  72.024  22.959  0.00  0.00    +0.002 A 
ATOM      9  C   LIG    1      -41.027  70.822  23.080  0.00  0.00    +0.000 A 
ATOM     10  C   LIG    1      -39.782  70.799  23.703  0.00  0.00    +0.002 A 
ATOM     11  C   LIG    1      -39.218  71.981  24.190  0.00  0.00    +0.025 A 
ENDBRANCH   3   6
BRANCH   4  12
ATOM     12  N   LIG    1      -40.791  76.228  23.659  0.00  0.00    -0.282 N 
ATOM     13  H   LIG    1      -40.580  76.515  22.701  0.00  0.00    +0.152 HD
ATOM     14  C   LIG    1      -42.130  76.451  24.159  0.00  0.00    +0.247 C 
ATOM     15  O   LIG    1      -42.397  76.290  25.342  0.00  0.00    -0.270 OA
BRANCH  14  16
ATOM     16  C   LIG    1      -43.137  76.974  23.201  0.00  0.00    +0.056 A 
ATOM     17  C   LIG    1      -43.598  78.297  23.194  0.00  0.00    +0.054 A 
ATOM     18 CL   LIG    1      -43.000  79.520  24.247  0.00  0.00    -0.083 Cl
ATOM     19  C   LIG    1      -44.573  78.687  22.279  0.00  0.00    +0.041 A 
ATOM     20  C   LIG    1      -45.094  77.787  21.340  0.00  0.00    +0.052 A 
ATOM     21 CL   LIG    1      -46.382  78.420  20.372  0.00  0.00    -0.083 Cl
ATOM     22  C   LIG    1      -44.617  76.463  21.259  0.00  0.00    +0.019 A 
ATOM     23  C   LIG    1      -43.640  76.092  22.219  0.00  0.00    +0.026 A 
BRANCH  22  24
ATOM     24  C   LIG    1      -45.078  75.444  20.276  0.00  0.00    +0.072 A 
ATOM     25  N   LIG    1      -45.324  74.216  20.805  0.00  0.00    -0.255 NA
ATOM     26  C   LIG    1      -45.737  73.229  19.973  0.00  0.00    +0.111 A 
ATOM     27  C   LIG    1      -45.940  73.398  18.617  0.00  0.00    +0.020 A 
ATOM     28  C   LIG    1      -45.677  74.646  18.076  0.00  0.00    +0.004 A 
ATOM     29  C   LIG    1      -45.217  75.669  18.906  0.00  0.00    +0.028 A 
ENDBRANCH  22  24
ENDBRANCH  14  16
ENDBRANCH   4  12
BRANCH   1  30
ATOM     30  C   LIG    1      -36.859  75.803  26.671  0.00  0.00    +0.233 C 
ATOM     31  N   LIG    1      -36.735  76.969  27.192  0.00  0.00    -0.243 NA
BRANCH  30  32
ATOM     32  O   LIG    1      -36.082  74.740  26.971  0.00  0.00    -0.491 OA
ATOM     33  H   LIG    1      -36.573  74.145  27.571  0.00  0.00    +0.294 HD
ENDBRANCH  30  32
BRANCH  31  34
ATOM     34  C   LIG    1      -35.671  77.125  28.197  0.00  0.00    +0.202 C 
BRANCH  34  35
ATOM     35  C   LIG    1      -34.416  77.762  27.642  0.00  0.00    +0.085 A 
ATOM     36  N   LIG    1      -34.430  79.104  27.467  0.00  0.00    -0.152 NA
ATOM     37  N   LIG    1      -33.353  79.739  26.912  0.00  0.00    -0.157 NA
ATOM     38  C   LIG    1      -32.281  79.018  26.534  0.00  0.00    +0.135 A 
ATOM     39  C   LIG    1      -32.224  77.646  26.681  0.00  0.00    +0.023 A 
ATOM     40  C   LIG    1      -33.321  77.004  27.240  0.00  0.00    +0.028 A 
ENDBRANCH  34  35
ENDBRANCH  31  34
ENDBRANCH   1  30
TORSDOF 8
ENDMDL
MODEL 5
REMARK VINA RESULT:      -6.7      9.350     12.271
REMARK  Name = pdb/CHEMBL3914544.pdb
REMARK                            x       y       z     vdW  Elec       q    Type
REMARK                         _______ _______ _______ _____ _____    ______ ____
ROOT
ATOM      1  C   LIG    1      -24.330  79.083  34.500  0.00  0.00    +0.131 C 
ATOM      2  N   LIG    1      -23.607  79.162  33.372  0.00  0.00    -0.141 NA
ATOM      3  N   LIG    1      -23.624  77.893  32.869  0.00  0.00    -0.201 N 
ATOM      4  C   LIG    1      -24.587  77.102  33.511  0.00  0.00    +0.185 C 
ATOM      5  C   LIG    1      -25.005  77.846  34.593  0.00  0.00    +0.056 C 
ENDROOT
BRANCH   3   6
ATOM      6  C   LIG    1      -22.748  77.552  31.797  0.00  0.00    +0.052 A 
ATOM      7  C   LIG    1      -23.230  77.304  30.507  0.00  0.00    +0.025 A 
ATOM      8  C   LIG    1      -22.345  76.982  29.473  0.00  0.00    +0.002 A 
ATOM      9  C   LIG    1      -20.979  76.887  29.725  0.00  0.00    +0.000 A 
ATOM     10  C   LIG    1      -20.495  77.091  31.014  0.00  0.00    +0.002 A 
ATOM     11  C   LIG    1      -21.375  77.410  32.052  0.00  0.00    +0.025 A 
ENDBRANCH   3   6
BRANCH   4  12
ATOM     12  N   LIG    1      -25.066  75.841  33.140  0.00  0.00    -0.282 N 
ATOM     13  H   LIG    1      -24.674  75.029  33.622  0.00  0.00    +0.152 HD
ATOM     14  C   LIG    1      -26.007  75.611  32.067  0.00  0.00    +0.247 C 
ATOM     15  O   LIG    1      -26.375  76.526  31.343  0.00  0.00    -0.270 OA
BRANCH  14  16
ATOM     16  C   LIG    1      -26.429  74.209  31.819  0.00  0.00    +0.056 A 
ATOM     17  C   LIG    1      -27.733  73.737  32.022  0.00  0.00    +0.054 A 
ATOM     18 CL   LIG    1      -29.044  74.738  32.512  0.00  0.00    -0.083 Cl
ATOM     19  C   LIG    1      -28.028  72.394  31.798  0.00  0.00    +0.041 A 
ATOM     20  C   LIG    1      -27.049  71.499  31.346  0.00  0.00    +0.052 A 
ATOM     21 CL   LIG    1      -27.572  69.851  31.244  0.00  0.00    -0.083 Cl
ATOM     22  C   LIG    1      -25.739  71.935  31.061  0.00  0.00    +0.019 A 
ATOM     23  C   LIG    1      -25.467  73.303  31.322  0.00  0.00    +0.026 A 
BRANCH  22  24
ATOM     24  C   LIG    1      -24.641  71.072  30.545  0.00  0.00    +0.072 A 
ATOM     25  N   LIG    1      -23.628  70.856  31.425  0.00  0.00    -0.255 NA
ATOM     26  C   LIG    1      -22.584  70.089  31.027  0.00  0.00    +0.111 A 
ATOM     27  C   LIG    1      -22.492  69.497  29.781  0.00  0.00    +0.020 A 
ATOM     28  C   LIG    1      -23.518  69.729  28.880  0.00  0.00    +0.004 A 
ATOM     29  C   LIG    1      -24.587  70.544  29.254  0.00  0.00    +0.028 A 
ENDBRANCH  22  24
ENDBRANCH  14  16
ENDBRANCH   4  12
BRANCH   1  30
ATOM     30  C   LIG    1      -24.365  80.186  35.452  0.00  0.00    +0.233 C 
ATOM     31  N   LIG    1      -25.354  80.308  36.258  0.00  0.00    -0.243 NA
BRANCH  30  32
ATOM     32  O   LIG    1      -23.287  81.000  35.429  0.00  0.00    -0.491 OA
ATOM     33  H   LIG    1      -23.037  81.174  34.500  0.00  0.00    +0.294 HD
ENDBRANCH  30  32
BRANCH  31  34
ATOM     34  C   LIG    1      -25.275  81.412  37.228  0.00  0.00    +0.202 C 
BRANCH  34  35
ATOM     35  C   LIG    1      -26.236  82.542  36.924  0.00  0.00    +0.085 A 
ATOM     36  N   LIG    1      -25.714  83.667  36.386  0.00  0.00    -0.152 NA
ATOM     37  N   LIG    1      -26.513  84.751  36.142  0.00  0.00    -0.157 NA
ATOM     38  C   LIG    1      -27.822  84.691  36.451  0.00  0.00    +0.135 A 
ATOM     39  C   LIG    1      -28.398  83.570  37.013  0.00  0.00    +0.023 A 
ATOM     40  C   LIG    1      -27.583  82.473  37.263  0.00  0.00    +0.028 A 
ENDBRANCH  34  35
ENDBRANCH  31  34
ENDBRANCH   1  30
TORSDOF 8
ENDMDL
MODEL 6
REMARK VINA RESULT:      -6.7      7.065     10.418
REMARK  Name = pdb/CHEMBL3914544.pdb
REMARK                            x       y       z     vdW  Elec       q    Type
REMARK                         _______ _______ _______ _____ _____    ______ ____
ROOT
ATOM      1  C   LIG    1      -35.438  66.948  22.917  0.00  0.00    +0.131 C 
ATOM      2  N   LIG    1      -35.160  67.119  24.219  0.00  0.00    -0.141 NA
ATOM      3  N   LIG    1      -35.642  68.363  24.507  0.00  0.00    -0.201 N 
ATOM      4  C   LIG    1      -36.471  68.840  23.483  0.00  0.00    +0.185 C 
ATOM      5  C   LIG    1      -36.301  67.957  22.437  0.00  0.00    +0.056 C 
ENDROOT
BRANCH   3   6
ATOM      6  C   LIG    1      -35.302  68.976  25.749  0.00  0.00    +0.052 A 
ATOM      7  C   LIG    1      -36.276  69.544  26.577  0.00  0.00    +0.025 A 
ATOM      8  C   LIG    1      -35.913  70.128  27.795  0.00  0.00    +0.002 A 
ATOM      9  C   LIG    1      -34.576  70.168  28.182  0.00  0.00    +0.000 A 
ATOM     10  C   LIG    1      -33.596  69.644  27.344  0.00  0.00    +0.002 A 
ATOM     11  C   LIG    1      -33.952  69.060  26.124  0.00  0.00    +0.025 A 
ENDBRANCH   3   6
BRANCH   4  12
ATOM     12  N   LIG    1      -37.325  69.948  23.498  0.00  0.00    -0.282 N 
ATOM     13  H   LIG    1      -36.927  70.851  23.231  0.00  0.00    +0.152 HD
ATOM     14  C   LIG    1      -38.698  69.912  23.948  0.00  0.00    +0.247 C 
ATOM     15  O   LIG    1      -39.175  68.899  24.441  0.00  0.00    -0.270 OA
BRANCH  14  16
ATOM     16  C   LIG    1      -39.473  71.177  23.876  0.00  0.00    +0.056 A 
ATOM     17  C   LIG    1      -40.698  71.309  23.209  0.00  0.00    +0.054 A 
ATOM     18 CL   LIG    1      -41.513  69.999  22.446  0.00  0.00    -0.083 Cl
ATOM     19  C   LIG    1      -41.334  72.547  23.164  0.00  0.00    +0.041 A 
ATOM     20  C   LIG    1      -40.787  73.672  23.797  0.00  0.00    +0.052 A 
ATOM     21 CL   LIG    1      -41.656  75.144  23.527  0.00  0.00    -0.083 Cl
ATOM     22  C   LIG    1      -39.591  73.579  24.538  0.00  0.00    +0.019 A 
ATOM     23  C   LIG    1      -38.958  72.309  24.545  0.00  0.00    +0.026 A 
BRANCH  22  24
ATOM     24  C   LIG    1      -38.950  74.704  25.273  0.00  0.00    +0.072 A 
ATOM     25  N   LIG    1      -39.590  75.074  26.414  0.00  0.00    -0.255 NA
ATOM     26  C   LIG    1      -39.075  76.099  27.136  0.00  0.00    +0.111 A 
ATOM     27  C   LIG    1      -37.925  76.784  26.792  0.00  0.00    +0.020 A 
ATOM     28  C   LIG    1      -37.281  76.415  25.622  0.00  0.00    +0.004 A 
ATOM     29  C   LIG    1      -37.811  75.386  24.843  0.00  0.00    +0.028 A 
ENDBRANCH  22  24
ENDBRANCH  14  16
ENDBRANCH   4  12
BRANCH   1  30
ATOM     30  C   LIG    1      -34.883  65.827  22.169  0.00  0.00    +0.233 C 
ATOM     31  N   LIG    1      -34.662  65.940  20.911  0.00  0.00    -0.243 NA
BRANCH  30  32
ATOM     32  O   LIG    1      -34.600  64.729  22.903  0.00  0.00    -0.491 OA
ATOM     33  H   LIG    1      -34.133  65.001  23.718  0.00  0.00    +0.294 HD
ENDBRANCH  30  32
BRANCH  31  34
ATOM     34  C   LIG    1      -34.040  64.782  20.250  0.00  0.00    +0.202 C 
BRANCH  34  35
ATOM     35  C   LIG    1      -32.737  65.120  19.557  0.00  0.00    +0.085 A 
ATOM     36  N   LIG    1      -32.204  64.173  18.751  0.00  0.00    -0.152 NA
ATOM     37  N   LIG    1      -30.997  64.385  18.141  0.00  0.00    -0.157 NA
ATOM     38  C   LIG    1      -30.342  65.541  18.356  0.00  0.00    +0.135 A 
ATOM     39  C   LIG    1      -30.839  66.532  19.178  0.00  0.00    +0.023 A 
ATOM     40  C   LIG    1      -32.061  66.311  19.800  0.00  0.00    +0.028 A 
ENDBRANCH  34  35
ENDBRANCH  31  34
ENDBRANCH   1  30
TORSDOF 8
ENDMDL
MODEL 7
REMARK VINA RESULT:      -6.6      5.162      8.751
REMARK  Name = pdb/CHEMBL3914544.pdb
REMARK                            x       y       z     vdW  Elec       q    Type
REMARK                         _______ _______ _______ _____ _____    ______ ____
ROOT
ATOM      1  C   LIG    1      -36.946  79.939  27.571  0.00  0.00    +0.131 C 
ATOM      2  N   LIG    1      -35.864  79.196  27.851  0.00  0.00    -0.141 NA
ATOM      3  N   LIG    1      -36.288  77.908  27.693  0.00  0.00    -0.201 N 
ATOM      4  C   LIG    1      -37.525  77.853  27.039  0.00  0.00    +0.185 C 
ATOM      5  C   LIG    1      -37.976  79.156  27.006  0.00  0.00    +0.056 C 
ENDROOT
BRANCH   3   6
ATOM      6  C   LIG    1      -35.461  76.838  28.147  0.00  0.00    +0.052 A 
ATOM      7  C   LIG    1      -34.437  76.315  27.350  0.00  0.00    +0.025 A 
ATOM      8  C   LIG    1      -33.635  75.272  27.826  0.00  0.00    +0.002 A 
ATOM      9  C   LIG    1      -33.864  74.734  29.090  0.00  0.00    +0.000 A 
ATOM     10  C   LIG    1      -34.908  75.220  29.872  0.00  0.00    +0.002 A 
ATOM     11  C   LIG    1      -35.714  76.260  29.401  0.00  0.00    +0.025 A 
ENDBRANCH   3   6
BRANCH   4  12
ATOM     12  N   LIG    1      -38.174  76.740  26.495  0.00  0.00    -0.282 N 
ATOM     13  H   LIG    1      -38.787  76.204  27.113  0.00  0.00    +0.152 HD
ATOM     14  C   LIG    1      -37.967  76.253  25.149  0.00  0.00    +0.247 C 
ATOM     15  O   LIG    1      -37.117  76.749  24.422  0.00  0.00    -0.270 OA
BRANCH  14  16
ATOM     16  C   LIG    1      -38.756  75.070  24.723  0.00  0.00    +0.056 A 
ATOM     17  C   LIG    1      -40.014  75.146  24.112  0.00  0.00    +0.054 A 
ATOM     18 CL   LIG    1      -40.785  76.629  23.700  0.00  0.00    -0.083 Cl
ATOM     19  C   LIG    1      -40.697  73.978  23.780  0.00  0.00    +0.041 A 
ATOM     20  C   LIG    1      -40.140  72.715  24.021  0.00  0.00    +0.052 A 
ATOM     21 CL   LIG    1      -41.187  71.385  23.655  0.00  0.00    -0.083 Cl
ATOM     22  C   LIG    1      -38.849  72.582  24.571  0.00  0.00    +0.019 A 
ATOM     23  C   LIG    1      -38.191  73.790  24.918  0.00  0.00    +0.026 A 
BRANCH  22  24
ATOM     24  C   LIG    1      -38.158  71.289  24.832  0.00  0.00    +0.072 A 
ATOM     25  N   LIG    1      -37.948  71.013  26.147  0.00  0.00    -0.255 NA
ATOM     26  C   LIG    1      -37.314  69.859  26.467  0.00  0.00    +0.111 A 
ATOM     27  C   LIG    1      -36.879  68.934  25.538  0.00  0.00    +0.020 A 
ATOM     28  C   LIG    1      -37.081  69.221  24.198  0.00  0.00    +0.004 A 
ATOM     29  C   LIG    1      -37.700  70.420  23.841  0.00  0.00    +0.028 A 
ENDBRANCH  22  24
ENDBRANCH  14  16
ENDBRANCH   4  12
BRANCH   1  30
ATOM     30  C   LIG    1      -36.968  81.370  27.842  0.00  0.00    +0.233 C 
ATOM     31  N   LIG    1      -36.145  82.151  27.242  0.00  0.00    -0.243 NA
BRANCH  30  32
ATOM     32  O   LIG    1      -37.918  81.778  28.712  0.00  0.00    -0.491 OA
ATOM     33  H   LIG    1      -37.531  82.436  29.322  0.00  0.00    +0.294 HD
ENDBRANCH  30  32
BRANCH  31  34
ATOM     34  C   LIG    1      -36.281  83.588  27.528  0.00  0.00    +0.202 C 
BRANCH  34  35
ATOM     35  C   LIG    1      -36.710  84.397  26.322  0.00  0.00    +0.085 A 
ATOM     36  N   LIG    1      -35.813  85.276  25.819  0.00  0.00    -0.152 NA
ATOM     37  N   LIG    1      -36.153  86.085  24.769  0.00  0.00    -0.157 NA
ATOM     38  C   LIG    1      -37.391  86.004  24.246  0.00  0.00    +0.135 A 
ATOM     39  C   LIG    1      -38.344  85.132  24.732  0.00  0.00    +0.023 A 
ATOM     40  C   LIG    1      -37.997  84.317  25.802  0.00  0.00    +0.028 A 
ENDBRANCH  34  35
ENDBRANCH  31  34
ENDBRANCH   1  30
TORSDOF 8
ENDMDL
MODEL 8
REMARK VINA RESULT:      -6.6      5.023      8.414
REMARK  Name = pdb/CHEMBL3914544.pdb
REMARK                            x       y       z     vdW  Elec       q    Type
REMARK                         _______ _______ _______ _____ _____    ______ ____
ROOT
ATOM      1  C   LIG    1      -38.226  76.585  26.427  0.00  0.00    +0.131 C 
ATOM      2  N   LIG    1      -39.514  76.952  26.329  0.00  0.00    -0.141 NA
ATOM      3  N   LIG    1      -40.014  76.168  25.330  0.00  0.00    -0.201 N 
ATOM      4  C   LIG    1      -39.136  75.123  25.012  0.00  0.00    +0.185 C 
ATOM      5  C   LIG    1      -37.965  75.418  25.677  0.00  0.00    +0.056 C 
ENDROOT
BRANCH   3   6
ATOM      6  C   LIG    1      -41.300  76.459  24.788  0.00  0.00    +0.052 A 
ATOM      7  C   LIG    1      -41.492  77.504  23.877  0.00  0.00    +0.025 A 
ATOM      8  C   LIG    1      -42.764  77.760  23.354  0.00  0.00    +0.002 A 
ATOM      9  C   LIG    1      -43.853  76.988  23.752  0.00  0.00    +0.000 A 
ATOM     10  C   LIG    1      -43.678  75.974  24.690  0.00  0.00    +0.002 A 
ATOM     11  C   LIG    1      -42.410  75.716  25.218  0.00  0.00    +0.025 A 
ENDBRANCH   3   6
BRANCH   4  12
ATOM     12  N   LIG    1      -39.376  73.994  24.222  0.00  0.00    -0.282 N 
ATOM     13  H   LIG    1      -39.122  74.049  23.234  0.00  0.00    +0.152 HD
ATOM     14  C   LIG    1      -40.034  72.795  24.693  0.00  0.00    +0.247 C 
ATOM     15  O   LIG    1      -40.514  72.739  25.817  0.00  0.00    -0.270 OA
BRANCH  14  16
ATOM     16  C   LIG    1      -40.189  71.678  23.727  0.00  0.00    +0.056 A 
ATOM     17  C   LIG    1      -41.282  71.535  22.862  0.00  0.00    +0.054 A 
ATOM     18 CL   LIG    1      -42.561  72.681  22.747  0.00  0.00    -0.083 Cl
ATOM     19  C   LIG    1      -41.358  70.432  22.016  0.00  0.00    +0.041 A 
ATOM     20  C   LIG    1      -40.346  69.463  21.988  0.00  0.00    +0.052 A 
ATOM     21 CL   LIG    1      -40.676  68.107  20.965  0.00  0.00    -0.083 Cl
ATOM     22  C   LIG    1      -39.193  69.593  22.788  0.00  0.00    +0.019 A 
ATOM     23  C   LIG    1      -39.157  70.716  23.655  0.00  0.00    +0.026 A 
BRANCH  22  24
ATOM     24  C   LIG    1      -38.049  68.640  22.804  0.00  0.00    +0.072 A 
ATOM     25  N   LIG    1      -37.942  67.901  23.941  0.00  0.00    -0.255 NA
ATOM     26  C   LIG    1      -36.920  67.017  24.038  0.00  0.00    +0.111 A 
ATOM     27  C   LIG    1      -35.984  66.807  23.044  0.00  0.00    +0.020 A 
ATOM     28  C   LIG    1      -36.085  67.569  21.892  0.00  0.00    +0.004 A 
ATOM     29  C   LIG    1      -37.108  68.511  21.782  0.00  0.00    +0.028 A 
ENDBRANCH  22  24
ENDBRANCH  14  16
ENDBRANCH   4  12
BRANCH   1  30
ATOM     30  C   LIG    1      -37.285  77.349  27.235  0.00  0.00    +0.233 C 
ATOM     31  N   LIG    1      -36.508  76.747  28.059  0.00  0.00    -0.243 NA
BRANCH  30  32
ATOM     32  O   LIG    1      -37.283  78.682  27.012  0.00  0.00    -0.491 OA
ATOM     33  H   LIG    1      -37.671  79.136  27.787  0.00  0.00    +0.294 HD
ENDBRANCH  30  32
BRANCH  31  34
ATOM     34  C   LIG    1      -35.545  77.590  28.786  0.00  0.00    +0.202 C 
BRANCH  34  35
ATOM     35  C   LIG    1      -34.341  77.973  27.953  0.00  0.00    +0.085 A 
ATOM     36  N   LIG    1      -34.284  79.247  27.502  0.00  0.00    -0.152 NA
ATOM     37  N   LIG    1      -33.256  79.648  26.692  0.00  0.00    -0.157 NA
ATOM     38  C   LIG    1      -32.306  78.761  26.342  0.00  0.00    +0.135 A 
ATOM     39  C   LIG    1      -32.327  77.448  26.767  0.00  0.00    +0.023 A 
ATOM     40  C   LIG    1      -33.374  77.044  27.584  0.00  0.00    +0.028 A 
ENDBRANCH  34  35
ENDBRANCH  31  34
ENDBRANCH   1  30
TORSDOF 8
ENDMDL
MODEL 9
REMARK VINA RESULT:      -6.6      8.208     10.292
REMARK  Name = pdb/CHEMBL3914544.pdb
REMARK                            x       y       z     vdW  Elec       q    Type
REMARK                         _______ _______ _______ _____ _____    ______ ____
ROOT
ATOM      1  C   LIG    1      -31.504  86.938  30.578  0.00  0.00    +0.131 C 
ATOM      2  N   LIG    1      -32.488  87.759  30.180  0.00  0.00    -0.141 NA
ATOM      3  N   LIG    1      -33.270  86.984  29.373  0.00  0.00    -0.201 N 
ATOM      4  C   LIG    1      -32.949  85.626  29.503  0.00  0.00    +0.185 C 
ATOM      5  C   LIG    1      -31.782  85.597  30.236  0.00  0.00    +0.056 C 
ENDROOT
BRANCH   3   6
ATOM      6  C   LIG    1      -34.279  87.598  28.575  0.00  0.00    +0.052 A 
ATOM      7  C   LIG    1      -35.273  86.844  27.941  0.00  0.00    +0.025 A 
ATOM      8  C   LIG    1      -36.257  87.476  27.174  0.00  0.00    +0.002 A 
ATOM      9  C   LIG    1      -36.242  88.860  27.018  0.00  0.00    +0.000 A 
ATOM     10  C   LIG    1      -35.232  89.614  27.610  0.00  0.00    +0.002 A 
ATOM     11  C   LIG    1      -34.245  88.987  28.377  0.00  0.00    +0.025 A 
ENDBRANCH   3   6
BRANCH   4  12
ATOM     12  N   LIG    1      -33.658  84.515  29.032  0.00  0.00    -0.282 N 
ATOM     13  H   LIG    1      -33.526  84.254  28.052  0.00  0.00    +0.152 HD
ATOM     14  C   LIG    1      -34.622  83.773  29.813  0.00  0.00    +0.247 C 
ATOM     15  O   LIG    1      -34.948  84.144  30.932  0.00  0.00    -0.270 OA
BRANCH  14  16
ATOM     16  C   LIG    1      -35.268  82.603  29.166  0.00  0.00    +0.056 A 
ATOM     17  C   LIG    1      -36.591  82.594  28.706  0.00  0.00    +0.054 A 
ATOM     18 CL   LIG    1      -37.627  83.968  28.757  0.00  0.00    -0.083 Cl
ATOM     19  C   LIG    1      -37.124  81.436  28.144  0.00  0.00    +0.041 A 
ATOM     20  C   LIG    1      -36.354  80.274  28.004  0.00  0.00    +0.052 A 
ATOM     21 CL   LIG    1      -37.222  78.904  27.399  0.00  0.00    -0.083 Cl
ATOM     22  C   LIG    1      -34.998  80.249  28.388  0.00  0.00    +0.019 A 
ATOM     23  C   LIG    1      -34.493  81.438  28.976  0.00  0.00    +0.026 A 
BRANCH  22  24
ATOM     24  C   LIG    1      -34.088  79.078  28.247  0.00  0.00    +0.072 A 
ATOM     25  N   LIG    1      -34.232  78.129  29.209  0.00  0.00    -0.255 NA
ATOM     26  C   LIG    1      -33.433  77.036  29.158  0.00  0.00    +0.111 A 
ATOM     27  C   LIG    1      -32.487  76.817  28.174  0.00  0.00    +0.020 A 
ATOM     28  C   LIG    1      -32.331  77.791  27.202  0.00  0.00    +0.004 A 
ATOM     29  C   LIG    1      -33.118  78.942  27.253  0.00  0.00    +0.028 A 
ENDBRANCH  22  24
ENDBRANCH  14  16
ENDBRANCH   4  12
BRANCH   1  30
ATOM     30  C   LIG    1      -30.334  87.450  31.279  0.00  0.00    +0.233 C 
ATOM     31  N   LIG    1      -30.288  87.421  32.561  0.00  0.00    -0.243 NA
BRANCH  30  32
ATOM     32  O   LIG    1      -29.336  87.895  30.485  0.00  0.00    -0.491 OA
ATOM     33  H   LIG    1      -28.632  87.217  30.446  0.00  0.00    +0.294 HD
ENDBRANCH  30  32
BRANCH  31  34
ATOM     34  C   LIG    1      -29.043  87.898  33.182  0.00  0.00    +0.202 C 
BRANCH  34  35
ATOM     35  C   LIG    1      -28.509  86.960  34.244  0.00  0.00    +0.085 A 
ATOM     36  N   LIG    1      -27.238  87.162  34.662  0.00  0.00    -0.152 NA
ATOM     37  N   LIG    1      -26.669  86.315  35.574  0.00  0.00    -0.157 NA
ATOM     38  C   LIG    1      -27.381  85.276  36.047  0.00  0.00    +0.135 A 
ATOM     39  C   LIG    1      -28.677  85.022  35.642  0.00  0.00    +0.023 A 
ATOM     40  C   LIG    1      -29.249  85.880  34.712  0.00  0.00    +0.028 A 
ENDBRANCH  34  35
ENDBRANCH  31  34
ENDBRANCH   1  30
TORSDOF 8
ENDMDL
