MODEL 1
REMARK VINA RESULT:      -7.8      0.000      0.000
REMARK  Name = pdb/CHEMBL3947206.pdb
REMARK                            x       y       z     vdW  Elec       q    Type
REMARK                         _______ _______ _______ _____ _____    ______ ____
ROOT
ATOM      1  C   LIG    1      -29.394  84.739  35.187  0.00  0.00    +0.285 C 
ATOM      2  N   LIG    1      -28.889  84.580  36.369  0.00  0.00    -0.196 NA
ENDROOT
BRANCH   2   3
ATOM      3  C   LIG    1      -27.937  83.641  36.754  0.00  0.00    +0.105 A 
ATOM      4  C   LIG    1      -26.598  83.901  36.553  0.00  0.00    +0.145 A 
ATOM      5  N   LIG    1      -25.610  83.018  36.793  0.00  0.00    -0.201 NA
ATOM      6  C   LIG    1      -25.987  81.774  37.157  0.00  0.00    +0.323 A 
ATOM      7  N   LIG    1      -27.255  81.401  37.402  0.00  0.00    -0.201 NA
ATOM      8  C   LIG    1      -28.196  82.356  37.177  0.00  0.00    +0.145 A 
BRANCH   6   9
ATOM      9  O   LIG    1      -25.028  80.763  37.201  0.00  0.00    -0.424 OA
BRANCH   9  10
ATOM     10  C   LIG    1      -24.843  80.024  36.047  0.00  0.00    +0.132 A 
ATOM     11  C   LIG    1      -25.659  78.944  35.697  0.00  0.00    +0.047 A 
ATOM     12  C   LIG    1      -25.509  78.293  34.475  0.00  0.00    +0.012 A 
ATOM     13  C   LIG    1      -24.474  78.650  33.612  0.00  0.00    -0.013 A 
ATOM     14  C   LIG    1      -23.601  79.679  34.002  0.00  0.00    +0.012 A 
ATOM     15  C   LIG    1      -23.780  80.364  35.213  0.00  0.00    +0.047 A 
BRANCH  13  16
ATOM     16  C   LIG    1      -24.325  77.955  32.344  0.00  0.00    +0.046 A 
ATOM     17  C   LIG    1      -23.128  77.517  31.806  0.00  0.00    +0.163 A 
ATOM     18  N   LIG    1      -21.831  77.591  32.250  0.00  0.00    -0.236 NA
ATOM     19  C   LIG    1      -20.929  77.087  31.465  0.00  0.00    +0.114 A 
ATOM     20  C   LIG    1      -21.170  76.440  30.150  0.00  0.00    +0.039 A 
ATOM     21  C   LIG    1      -22.455  76.378  29.774  0.00  0.00    +0.116 A 
ATOM     22  N   LIG    1      -23.453  76.907  30.587  0.00  0.00    -0.221 N 
ATOM     23  N   LIG    1      -24.787  76.920  30.348  0.00  0.00    -0.173 NA
ATOM     24  C   LIG    1      -25.300  77.550  31.405  0.00  0.00    +0.145 A 
ENDBRANCH  13  16
ENDBRANCH   9  10
ENDBRANCH   6   9
ENDBRANCH   2   3
BRANCH   1  25
ATOM     25  O   LIG    1      -29.116  83.924  34.153  0.00  0.00    -0.481 OA
ATOM     26  H   LIG    1      -28.188  83.654  34.155  0.00  0.00    +0.295 HD
ENDBRANCH   1  25
BRANCH   1  27
ATOM     27  N   LIG    1      -30.257  85.706  34.782  0.00  0.00    -0.269 N 
ATOM     28  H   LIG    1      -30.930  85.994  35.479  0.00  0.00    +0.157 HD
BRANCH  27  29
ATOM     29  C   LIG    1      -30.303  86.383  33.538  0.00  0.00    +0.043 A 
ATOM     30  C   LIG    1      -29.480  87.516  33.265  0.00  0.00    +0.005 A 
ATOM     31  C   LIG    1      -29.644  88.136  32.000  0.00  0.00    +0.011 A 
ATOM     32  C   LIG    1      -30.553  87.676  31.036  0.00  0.00    +0.013 A 
ATOM     33  C   LIG    1      -31.362  86.573  31.299  0.00  0.00    +0.057 A 
ATOM     34  C   LIG    1      -31.232  85.961  32.552  0.00  0.00    +0.036 A 
BRANCH  30  35
ATOM     35  C   LIG    1      -28.465  88.081  34.210  0.00  0.00    +0.002 A 
ATOM     36  C   LIG    1      -27.311  87.370  34.573  0.00  0.00    +0.119 A 
ATOM     37  N   LIG    1      -26.341  87.803  35.422  0.00  0.00    -0.263 NA
ATOM     38  C   LIG    1      -26.524  89.012  35.981  0.00  0.00    +0.111 A 
ATOM     39  C   LIG    1      -27.617  89.811  35.712  0.00  0.00    +0.020 A 
ATOM     40  C   LIG    1      -28.567  89.351  34.797  0.00  0.00    +0.011 A 
ENDBRANCH  30  35
BRANCH  33  41
ATOM     41  C   LIG    1      -32.329  86.037  30.264  0.00  0.00    +0.417 C 
ATOM     42  F   LIG    1      -33.085  87.023  29.700  0.00  0.00    -0.166 F 
ATOM     43  F   LIG    1      -33.216  85.134  30.773  0.00  0.00    -0.166 F 
ATOM     44  F   LIG    1      -31.722  85.406  29.218  0.00  0.00    -0.166 F 
ENDBRANCH  33  41
ENDBRANCH  27  29
ENDBRANCH   1  27
TORSDOF 9
ENDMDL
MODEL 2
REMARK VINA RESULT:      -7.5     18.665     21.737
REMARK  Name = pdb/CHEMBL3947206.pdb
REMARK                            x       y       z     vdW  Elec       q    Type
REMARK                         _______ _______ _______ _____ _____    ______ ____
ROOT
ATOM      1  C   LIG    1      -40.420  69.232  21.759  0.00  0.00    +0.285 C 
ATOM      2  N   LIG    1      -39.254  68.686  21.900  0.00  0.00    -0.196 NA
ENDROOT
BRANCH   2   3
ATOM      3  C   LIG    1      -38.503  68.049  20.918  0.00  0.00    +0.105 A 
ATOM      4  C   LIG    1      -38.384  66.675  20.928  0.00  0.00    +0.145 A 
ATOM      5  N   LIG    1      -37.598  65.976  20.087  0.00  0.00    -0.201 NA
ATOM      6  C   LIG    1      -36.810  66.694  19.259  0.00  0.00    +0.323 A 
ATOM      7  N   LIG    1      -36.844  68.032  19.142  0.00  0.00    -0.201 NA
ATOM      8  C   LIG    1      -37.690  68.669  19.994  0.00  0.00    +0.145 A 
BRANCH   6   9
ATOM      9  O   LIG    1      -35.820  66.037  18.530  0.00  0.00    -0.424 OA
BRANCH   9  10
ATOM     10  C   LIG    1      -34.546  66.570  18.582  0.00  0.00    +0.132 A 
ATOM     11  C   LIG    1      -33.730  66.479  19.715  0.00  0.00    +0.047 A 
ATOM     12  C   LIG    1      -32.413  66.931  19.693  0.00  0.00    +0.012 A 
ATOM     13  C   LIG    1      -31.910  67.574  18.563  0.00  0.00    -0.013 A 
ATOM     14  C   LIG    1      -32.757  67.742  17.454  0.00  0.00    +0.012 A 
ATOM     15  C   LIG    1      -34.069  67.245  17.460  0.00  0.00    +0.047 A 
BRANCH  13  16
ATOM     16  C   LIG    1      -30.537  68.049  18.558  0.00  0.00    +0.046 A 
ATOM     17  C   LIG    1      -30.143  69.362  18.372  0.00  0.00    +0.163 A 
ATOM     18  N   LIG    1      -30.850  70.518  18.150  0.00  0.00    -0.236 NA
ATOM     19  C   LIG    1      -30.146  71.597  17.992  0.00  0.00    +0.114 A 
ATOM     20  C   LIG    1      -28.664  71.693  18.033  0.00  0.00    +0.039 A 
ATOM     21  C   LIG    1      -28.026  70.539  18.269  0.00  0.00    +0.116 A 
ATOM     22  N   LIG    1      -28.744  69.360  18.446  0.00  0.00    -0.221 N 
ATOM     23  N   LIG    1      -28.246  68.124  18.693  0.00  0.00    -0.173 NA
ATOM     24  C   LIG    1      -29.327  67.346  18.758  0.00  0.00    +0.145 A 
ENDBRANCH  13  16
ENDBRANCH   9  10
ENDBRANCH   6   9
ENDBRANCH   2   3
BRANCH   1  25
ATOM     25  O   LIG    1      -41.124  69.175  20.614  0.00  0.00    -0.481 OA
ATOM     26  H   LIG    1      -41.934  68.658  20.722  0.00  0.00    +0.295 HD
ENDBRANCH   1  25
BRANCH   1  27
ATOM     27  N   LIG    1      -41.122  69.931  22.688  0.00  0.00    -0.269 N 
ATOM     28  H   LIG    1      -41.837  69.401  23.167  0.00  0.00    +0.157 HD
BRANCH  27  29
ATOM     29  C   LIG    1      -40.952  71.277  23.094  0.00  0.00    +0.043 A 
ATOM     30  C   LIG    1      -41.902  72.290  22.768  0.00  0.00    +0.005 A 
ATOM     31  C   LIG    1      -41.602  73.609  23.194  0.00  0.00    +0.011 A 
ATOM     32  C   LIG    1      -40.444  73.936  23.915  0.00  0.00    +0.013 A 
ATOM     33  C   LIG    1      -39.511  72.951  24.232  0.00  0.00    +0.057 A 
ATOM     34  C   LIG    1      -39.777  71.646  23.800  0.00  0.00    +0.036 A 
BRANCH  30  35
ATOM     35  C   LIG    1      -43.178  72.053  22.021  0.00  0.00    +0.002 A 
ATOM     36  C   LIG    1      -43.244  72.121  20.621  0.00  0.00    +0.119 A 
ATOM     37  N   LIG    1      -44.356  71.922  19.865  0.00  0.00    -0.263 NA
ATOM     38  C   LIG    1      -45.498  71.662  20.526  0.00  0.00    +0.111 A 
ATOM     39  C   LIG    1      -45.570  71.571  21.901  0.00  0.00    +0.020 A 
ATOM     40  C   LIG    1      -44.396  71.734  22.641  0.00  0.00    +0.011 A 
ENDBRANCH  30  35
BRANCH  33  41
ATOM     41  C   LIG    1      -38.268  73.271  25.035  0.00  0.00    +0.417 C 
ATOM     42  F   LIG    1      -38.517  73.332  26.376  0.00  0.00    -0.166 F 
ATOM     43  F   LIG    1      -37.707  74.470  24.706  0.00  0.00    -0.166 F 
ATOM     44  F   LIG    1      -37.271  72.350  24.897  0.00  0.00    -0.166 F 
ENDBRANCH  33  41
ENDBRANCH  27  29
ENDBRANCH   1  27
TORSDOF 9
ENDMDL
MODEL 3
REMARK VINA RESULT:      -7.0     18.486     21.486
REMARK  Name = pdb/CHEMBL3947206.pdb
REMARK                            x       y       z     vdW  Elec       q    Type
REMARK                         _______ _______ _______ _____ _____    ______ ____
ROOT
ATOM      1  C   LIG    1      -40.440  70.037  22.353  0.00  0.00    +0.285 C 
ATOM      2  N   LIG    1      -39.481  69.414  22.962  0.00  0.00    -0.196 NA
ENDROOT
BRANCH   2   3
ATOM      3  C   LIG    1      -38.463  68.668  22.378  0.00  0.00    +0.105 A 
ATOM      4  C   LIG    1      -38.738  67.420  21.861  0.00  0.00    +0.145 A 
ATOM      5  N   LIG    1      -37.806  66.580  21.371  0.00  0.00    -0.201 NA
ATOM      6  C   LIG    1      -36.518  66.966  21.499  0.00  0.00    +0.323 A 
ATOM      7  N   LIG    1      -36.122  68.161  21.969  0.00  0.00    -0.201 NA
ATOM      8  C   LIG    1      -37.120  68.973  22.408  0.00  0.00    +0.145 A 
BRANCH   6   9
ATOM      9  O   LIG    1      -35.506  66.049  21.219  0.00  0.00    -0.424 OA
BRANCH   9  10
ATOM     10  C   LIG    1      -34.597  66.399  20.238  0.00  0.00    +0.132 A 
ATOM     11  C   LIG    1      -34.977  66.720  18.930  0.00  0.00    +0.047 A 
ATOM     12  C   LIG    1      -34.045  67.173  18.000  0.00  0.00    +0.012 A 
ATOM     13  C   LIG    1      -32.691  67.225  18.330  0.00  0.00    -0.013 A 
ATOM     14  C   LIG    1      -32.299  66.820  19.617  0.00  0.00    +0.012 A 
ATOM     15  C   LIG    1      -33.244  66.408  20.568  0.00  0.00    +0.047 A 
BRANCH  13  16
ATOM     16  C   LIG    1      -31.730  67.691  17.345  0.00  0.00    +0.046 A 
ATOM     17  C   LIG    1      -31.075  68.909  17.378  0.00  0.00    +0.163 A 
ATOM     18  N   LIG    1      -31.121  69.961  18.259  0.00  0.00    -0.236 NA
ATOM     19  C   LIG    1      -30.377  70.984  17.967  0.00  0.00    +0.114 A 
ATOM     20  C   LIG    1      -29.488  71.115  16.784  0.00  0.00    +0.039 A 
ATOM     21  C   LIG    1      -29.468  70.052  15.968  0.00  0.00    +0.116 A 
ATOM     22  N   LIG    1      -30.250  68.936  16.246  0.00  0.00    -0.221 N 
ATOM     23  N   LIG    1      -30.337  67.793  15.523  0.00  0.00    -0.173 NA
ATOM     24  C   LIG    1      -31.225  67.054  16.189  0.00  0.00    +0.145 A 
ENDBRANCH  13  16
ENDBRANCH   9  10
ENDBRANCH   6   9
ENDBRANCH   2   3
BRANCH   1  25
ATOM     25  O   LIG    1      -40.633  69.967  21.024  0.00  0.00    -0.481 OA
ATOM     26  H   LIG    1      -41.453  70.407  20.762  0.00  0.00    +0.295 HD
ENDBRANCH   1  25
BRANCH   1  27
ATOM     27  N   LIG    1      -41.387  70.838  22.907  0.00  0.00    -0.269 N 
ATOM     28  H   LIG    1      -42.236  70.363  23.182  0.00  0.00    +0.157 HD
BRANCH  27  29
ATOM     29  C   LIG    1      -41.318  72.225  23.182  0.00  0.00    +0.043 A 
ATOM     30  C   LIG    1      -42.344  73.128  22.771  0.00  0.00    +0.005 A 
ATOM     31  C   LIG    1      -42.144  74.501  23.067  0.00  0.00    +0.011 A 
ATOM     32  C   LIG    1      -41.012  74.981  23.740  0.00  0.00    +0.013 A 
ATOM     33  C   LIG    1      -40.005  74.105  24.139  0.00  0.00    +0.057 A 
ATOM     34  C   LIG    1      -40.172  72.748  23.836  0.00  0.00    +0.036 A 
BRANCH  30  35
ATOM     35  C   LIG    1      -43.601  72.725  22.064  0.00  0.00    +0.002 A 
ATOM     36  C   LIG    1      -44.795  72.473  22.757  0.00  0.00    +0.119 A 
ATOM     37  N   LIG    1      -45.978  72.102  22.198  0.00  0.00    -0.263 NA
ATOM     38  C   LIG    1      -45.992  71.939  20.864  0.00  0.00    +0.111 A 
ATOM     39  C   LIG    1      -44.885  72.152  20.067  0.00  0.00    +0.020 A 
ATOM     40  C   LIG    1      -43.701  72.579  20.672  0.00  0.00    +0.011 A 
ENDBRANCH  30  35
BRANCH  33  41
ATOM     41  C   LIG    1      -38.787  74.592  24.895  0.00  0.00    +0.417 C 
ATOM     42  F   LIG    1      -38.356  75.810  24.455  0.00  0.00    -0.166 F 
ATOM     43  F   LIG    1      -37.715  73.756  24.786  0.00  0.00    -0.166 F 
ATOM     44  F   LIG    1      -38.996  74.748  26.235  0.00  0.00    -0.166 F 
ENDBRANCH  33  41
ENDBRANCH  27  29
ENDBRANCH   1  27
TORSDOF 9
ENDMDL
MODEL 4
REMARK VINA RESULT:      -7.0      7.795     11.043
REMARK  Name = pdb/CHEMBL3947206.pdb
REMARK                            x       y       z     vdW  Elec       q    Type
REMARK                         _______ _______ _______ _____ _____    ______ ____
ROOT
ATOM      1  C   LIG    1      -24.110  77.910  34.123  0.00  0.00    +0.285 C 
ATOM      2  N   LIG    1      -24.698  76.852  33.664  0.00  0.00    -0.196 NA
ENDROOT
BRANCH   2   3
ATOM      3  C   LIG    1      -26.042  76.718  33.332  0.00  0.00    +0.105 A 
ATOM      4  C   LIG    1      -26.492  77.157  32.105  0.00  0.00    +0.145 A 
ATOM      5  N   LIG    1      -27.786  77.169  31.731  0.00  0.00    -0.201 NA
ATOM      6  C   LIG    1      -28.689  76.817  32.671  0.00  0.00    +0.323 A 
ATOM      7  N   LIG    1      -28.378  76.356  33.895  0.00  0.00    -0.201 NA
ATOM      8  C   LIG    1      -27.051  76.335  34.188  0.00  0.00    +0.145 A 
BRANCH   6   9
ATOM      9  O   LIG    1      -30.044  77.023  32.417  0.00  0.00    -0.424 OA
BRANCH   9  10
ATOM     10  C   LIG    1      -30.708  76.032  31.718  0.00  0.00    +0.132 A 
ATOM     11  C   LIG    1      -31.440  75.020  32.346  0.00  0.00    +0.047 A 
ATOM     12  C   LIG    1      -32.185  74.104  31.607  0.00  0.00    +0.012 A 
ATOM     13  C   LIG    1      -32.138  74.123  30.213  0.00  0.00    -0.013 A 
ATOM     14  C   LIG    1      -31.335  75.088  29.583  0.00  0.00    +0.012 A 
ATOM     15  C   LIG    1      -30.621  76.038  30.327  0.00  0.00    +0.047 A 
BRANCH  13  16
ATOM     16  C   LIG    1      -32.914  73.155  29.456  0.00  0.00    +0.046 A 
ATOM     17  C   LIG    1      -32.643  71.801  29.371  0.00  0.00    +0.163 A 
ATOM     18  N   LIG    1      -31.656  71.018  29.916  0.00  0.00    -0.236 NA
ATOM     19  C   LIG    1      -31.687  69.759  29.604  0.00  0.00    +0.114 A 
ATOM     20  C   LIG    1      -32.684  69.096  28.724  0.00  0.00    +0.039 A 
ATOM     21  C   LIG    1      -33.635  69.903  28.234  0.00  0.00    +0.116 A 
ATOM     22  N   LIG    1      -33.638  71.259  28.546  0.00  0.00    -0.221 N 
ATOM     23  N   LIG    1      -34.526  72.196  28.133  0.00  0.00    -0.173 NA
ATOM     24  C   LIG    1      -34.083  73.327  28.682  0.00  0.00    +0.145 A 
ENDBRANCH  13  16
ENDBRANCH   9  10
ENDBRANCH   6   9
ENDBRANCH   2   3
BRANCH   1  25
ATOM     25  O   LIG    1      -24.769  79.041  34.436  0.00  0.00    -0.481 OA
ATOM     26  H   LIG    1      -25.204  78.971  35.297  0.00  0.00    +0.295 HD
ENDBRANCH   1  25
BRANCH   1  27
ATOM     27  N   LIG    1      -22.784  78.078  34.368  0.00  0.00    -0.269 N 
ATOM     28  H   LIG    1      -22.533  78.101  35.346  0.00  0.00    +0.157 HD
BRANCH  27  29
ATOM     29  C   LIG    1      -21.721  78.180  33.437  0.00  0.00    +0.043 A 
ATOM     30  C   LIG    1      -20.567  78.977  33.695  0.00  0.00    +0.005 A 
ATOM     31  C   LIG    1      -19.587  79.035  32.671  0.00  0.00    +0.011 A 
ATOM     32  C   LIG    1      -19.709  78.344  31.456  0.00  0.00    +0.013 A 
ATOM     33  C   LIG    1      -20.837  77.568  31.198  0.00  0.00    +0.057 A 
ATOM     34  C   LIG    1      -21.826  77.517  32.187  0.00  0.00    +0.036 A 
BRANCH  30  35
ATOM     35  C   LIG    1      -20.323  79.741  34.960  0.00  0.00    +0.002 A 
ATOM     36  C   LIG    1      -19.419  79.293  35.936  0.00  0.00    +0.119 A 
ATOM     37  N   LIG    1      -19.139  79.919  37.109  0.00  0.00    -0.263 NA
ATOM     38  C   LIG    1      -19.810  81.056  37.364  0.00  0.00    +0.111 A 
ATOM     39  C   LIG    1      -20.727  81.602  36.489  0.00  0.00    +0.020 A 
ATOM     40  C   LIG    1      -20.953  80.955  35.272  0.00  0.00    +0.011 A 
ENDBRANCH  30  35
BRANCH  33  41
ATOM     41  C   LIG    1      -20.980  76.787  29.908  0.00  0.00    +0.417 C 
ATOM     42  F   LIG    1      -22.136  77.082  29.247  0.00  0.00    -0.166 F 
ATOM     43  F   LIG    1      -20.993  75.436  30.095  0.00  0.00    -0.166 F 
ATOM     44  F   LIG    1      -19.981  77.022  29.008  0.00  0.00    -0.166 F 
ENDBRANCH  33  41
ENDBRANCH  27  29
ENDBRANCH   1  27
TORSDOF 9
ENDMDL
MODEL 5
REMARK VINA RESULT:      -7.0     19.130     23.385
REMARK  Name = pdb/CHEMBL3947206.pdb
REMARK                            x       y       z     vdW  Elec       q    Type
REMARK                         _______ _______ _______ _____ _____    ______ ____
ROOT
ATOM      1  C   LIG    1      -24.582  80.921  12.273  0.00  0.00    +0.285 C 
ATOM      2  N   LIG    1      -24.855  79.680  12.025  0.00  0.00    -0.196 NA
ENDROOT
BRANCH   2   3
ATOM      3  C   LIG    1      -26.059  79.164  11.560  0.00  0.00    +0.105 A 
ATOM      4  C   LIG    1      -26.390  79.289  10.227  0.00  0.00    +0.145 A 
ATOM      5  N   LIG    1      -27.573  78.918   9.700  0.00  0.00    -0.201 NA
ATOM      6  C   LIG    1      -28.514  78.493  10.570  0.00  0.00    +0.323 A 
ATOM      7  N   LIG    1      -28.311  78.311  11.886  0.00  0.00    -0.201 NA
ATOM      8  C   LIG    1      -27.081  78.669  12.340  0.00  0.00    +0.145 A 
BRANCH   6   9
ATOM      9  O   LIG    1      -29.819  78.311  10.117  0.00  0.00    -0.424 OA
BRANCH   9  10
ATOM     10  C   LIG    1      -30.696  79.366  10.289  0.00  0.00    +0.132 A 
ATOM     11  C   LIG    1      -30.597  80.560   9.568  0.00  0.00    +0.047 A 
ATOM     12  C   LIG    1      -31.562  81.557   9.689  0.00  0.00    +0.012 A 
ATOM     13  C   LIG    1      -32.601  81.421  10.609  0.00  0.00    -0.013 A 
ATOM     14  C   LIG    1      -32.652  80.257  11.395  0.00  0.00    +0.012 A 
ATOM     15  C   LIG    1      -31.706  79.234  11.240  0.00  0.00    +0.047 A 
BRANCH  13  16
ATOM     16  C   LIG    1      -33.595  82.474  10.731  0.00  0.00    +0.046 A 
ATOM     17  C   LIG    1      -33.332  83.790  11.068  0.00  0.00    +0.163 A 
ATOM     18  N   LIG    1      -32.168  84.453  11.368  0.00  0.00    -0.236 NA
ATOM     19  C   LIG    1      -32.288  85.710  11.669  0.00  0.00    +0.114 A 
ATOM     20  C   LIG    1      -33.554  86.486  11.714  0.00  0.00    +0.039 A 
ATOM     21  C   LIG    1      -34.657  85.794  11.396  0.00  0.00    +0.116 A 
ATOM     22  N   LIG    1      -34.571  84.445  11.066  0.00  0.00    -0.221 N 
ATOM     23  N   LIG    1      -35.586  83.616  10.722  0.00  0.00    -0.173 NA
ATOM     24  C   LIG    1      -34.992  82.439  10.524  0.00  0.00    +0.145 A 
ENDBRANCH  13  16
ENDBRANCH   9  10
ENDBRANCH   6   9
ENDBRANCH   2   3
BRANCH   1  25
ATOM     25  O   LIG    1      -25.496  81.905  12.194  0.00  0.00    -0.481 OA
ATOM     26  H   LIG    1      -26.396  81.553  12.192  0.00  0.00    +0.295 HD
ENDBRANCH   1  25
BRANCH   1  27
ATOM     27  N   LIG    1      -23.385  81.446  12.643  0.00  0.00    -0.269 N 
ATOM     28  H   LIG    1      -22.675  81.431  11.924  0.00  0.00    +0.157 HD
BRANCH  27  29
ATOM     29  C   LIG    1      -23.025  82.040  13.877  0.00  0.00    +0.043 A 
ATOM     30  C   LIG    1      -22.858  81.270  15.066  0.00  0.00    +0.005 A 
ATOM     31  C   LIG    1      -22.538  81.981  16.251  0.00  0.00    +0.011 A 
ATOM     32  C   LIG    1      -22.373  83.373  16.285  0.00  0.00    +0.013 A 
ATOM     33  C   LIG    1      -22.540  84.131  15.128  0.00  0.00    +0.057 A 
ATOM     34  C   LIG    1      -22.879  83.450  13.953  0.00  0.00    +0.036 A 
BRANCH  30  35
ATOM     35  C   LIG    1      -22.991  79.780  15.142  0.00  0.00    +0.002 A 
ATOM     36  C   LIG    1      -24.188  79.159  15.530  0.00  0.00    +0.119 A 
ATOM     37  N   LIG    1      -24.396  77.819  15.627  0.00  0.00    -0.263 NA
ATOM     38  C   LIG    1      -23.348  77.022  15.350  0.00  0.00    +0.111 A 
ATOM     39  C   LIG    1      -22.116  77.506  14.961  0.00  0.00    +0.020 A 
ATOM     40  C   LIG    1      -21.955  78.887  14.825  0.00  0.00    +0.011 A 
ENDBRANCH  30  35
BRANCH  33  41
ATOM     41  C   LIG    1      -22.337  85.632  15.130  0.00  0.00    +0.417 C 
ATOM     42  F   LIG    1      -23.242  86.280  14.341  0.00  0.00    -0.166 F 
ATOM     43  F   LIG    1      -21.108  86.010  14.676  0.00  0.00    -0.166 F 
ATOM     44  F   LIG    1      -22.463  86.203  16.364  0.00  0.00    -0.166 F 
ENDBRANCH  33  41
ENDBRANCH  27  29
ENDBRANCH   1  27
TORSDOF 9
ENDMDL
MODEL 6
REMARK VINA RESULT:      -6.9     17.202     20.775
REMARK  Name = pdb/CHEMBL3947206.pdb
REMARK                            x       y       z     vdW  Elec       q    Type
REMARK                         _______ _______ _______ _____ _____    ______ ____
ROOT
ATOM      1  C   LIG    1      -38.320  69.923  24.118  0.00  0.00    +0.285 C 
ATOM      2  N   LIG    1      -37.421  69.959  23.186  0.00  0.00    -0.196 NA
ENDROOT
BRANCH   2   3
ATOM      3  C   LIG    1      -37.147  68.971  22.247  0.00  0.00    +0.105 A 
ATOM      4  C   LIG    1      -36.325  67.915  22.583  0.00  0.00    +0.145 A 
ATOM      5  N   LIG    1      -35.916  66.967  21.719  0.00  0.00    -0.201 NA
ATOM      6  C   LIG    1      -36.264  67.139  20.425  0.00  0.00    +0.323 A 
ATOM      7  N   LIG    1      -37.072  68.114  19.975  0.00  0.00    -0.201 NA
ATOM      8  C   LIG    1      -37.479  69.011  20.911  0.00  0.00    +0.145 A 
BRANCH   6   9
ATOM      9  O   LIG    1      -35.687  66.320  19.456  0.00  0.00    -0.424 OA
BRANCH   9  10
ATOM     10  C   LIG    1      -34.351  66.532  19.171  0.00  0.00    +0.132 A 
ATOM     11  C   LIG    1      -33.915  67.168  18.004  0.00  0.00    +0.047 A 
ATOM     12  C   LIG    1      -32.569  67.461  17.803  0.00  0.00    +0.012 A 
ATOM     13  C   LIG    1      -31.613  67.037  18.725  0.00  0.00    -0.013 A 
ATOM     14  C   LIG    1      -32.042  66.322  19.856  0.00  0.00    +0.012 A 
ATOM     15  C   LIG    1      -33.403  66.068  20.080  0.00  0.00    +0.047 A 
BRANCH  13  16
ATOM     16  C   LIG    1      -30.210  67.342  18.497  0.00  0.00    +0.046 A 
ATOM     17  C   LIG    1      -29.191  66.410  18.405  0.00  0.00    +0.163 A 
ATOM     18  N   LIG    1      -29.180  65.040  18.494  0.00  0.00    -0.236 NA
ATOM     19  C   LIG    1      -28.019  64.469  18.382  0.00  0.00    +0.114 A 
ATOM     20  C   LIG    1      -26.720  65.157  18.165  0.00  0.00    +0.039 A 
ATOM     21  C   LIG    1      -26.792  66.491  18.068  0.00  0.00    +0.116 A 
ATOM     22  N   LIG    1      -28.017  67.141  18.181  0.00  0.00    -0.221 N 
ATOM     23  N   LIG    1      -28.252  68.473  18.105  0.00  0.00    -0.173 NA
ATOM     24  C   LIG    1      -29.567  68.583  18.295  0.00  0.00    +0.145 A 
ENDBRANCH  13  16
ENDBRANCH   9  10
ENDBRANCH   6   9
ENDBRANCH   2   3
BRANCH   1  25
ATOM     25  O   LIG    1      -39.079  68.840  24.365  0.00  0.00    -0.481 OA
ATOM     26  H   LIG    1      -38.826  68.094  23.804  0.00  0.00    +0.295 HD
ENDBRANCH   1  25
BRANCH   1  27
ATOM     27  N   LIG    1      -38.654  70.916  24.982  0.00  0.00    -0.269 N 
ATOM     28  H   LIG    1      -38.518  70.692  25.959  0.00  0.00    +0.157 HD
BRANCH  27  29
ATOM     29  C   LIG    1      -39.121  72.220  24.690  0.00  0.00    +0.043 A 
ATOM     30  C   LIG    1      -40.354  72.445  24.008  0.00  0.00    +0.005 A 
ATOM     31  C   LIG    1      -40.697  73.794  23.734  0.00  0.00    +0.011 A 
ATOM     32  C   LIG    1      -39.893  74.879  24.113  0.00  0.00    +0.013 A 
ATOM     33  C   LIG    1      -38.687  74.665  24.775  0.00  0.00    +0.057 A 
ATOM     34  C   LIG    1      -38.319  73.339  25.034  0.00  0.00    +0.036 A 
BRANCH  30  35
ATOM     35  C   LIG    1      -41.298  71.366  23.574  0.00  0.00    +0.002 A 
ATOM     36  C   LIG    1      -42.230  70.796  24.454  0.00  0.00    +0.119 A 
ATOM     37  N   LIG    1      -43.120  69.816  24.148  0.00  0.00    -0.263 NA
ATOM     38  C   LIG    1      -43.080  69.334  22.893  0.00  0.00    +0.111 A 
ATOM     39  C   LIG    1      -42.210  69.805  21.931  0.00  0.00    +0.020 A 
ATOM     40  C   LIG    1      -41.343  70.847  22.271  0.00  0.00    +0.011 A 
ENDBRANCH  30  35
BRANCH  33  41
ATOM     41  C   LIG    1      -37.815  75.819  25.223  0.00  0.00    +0.417 C 
ATOM     42  F   LIG    1      -37.124  76.380  24.188  0.00  0.00    -0.166 F 
ATOM     43  F   LIG    1      -36.877  75.460  26.146  0.00  0.00    -0.166 F 
ATOM     44  F   LIG    1      -38.511  76.848  25.788  0.00  0.00    -0.166 F 
ENDBRANCH  33  41
ENDBRANCH  27  29
ENDBRANCH   1  27
TORSDOF 9
ENDMDL
MODEL 7
REMARK VINA RESULT:      -6.7     17.674     20.469
REMARK  Name = pdb/CHEMBL3947206.pdb
REMARK                            x       y       z     vdW  Elec       q    Type
REMARK                         _______ _______ _______ _____ _____    ______ ____
ROOT
ATOM      1  C   LIG    1      -37.911  68.403  23.507  0.00  0.00    +0.285 C 
ATOM      2  N   LIG    1      -37.056  67.523  23.921  0.00  0.00    -0.196 NA
ENDROOT
BRANCH   2   3
ATOM      3  C   LIG    1      -36.161  66.796  23.144  0.00  0.00    +0.105 A 
ATOM      4  C   LIG    1      -34.934  67.338  22.823  0.00  0.00    +0.145 A 
ATOM      5  N   LIG    1      -34.043  66.762  21.994  0.00  0.00    -0.201 NA
ATOM      6  C   LIG    1      -34.440  65.632  21.371  0.00  0.00    +0.323 A 
ATOM      7  N   LIG    1      -35.601  64.996  21.610  0.00  0.00    -0.201 NA
ATOM      8  C   LIG    1      -36.433  65.615  22.488  0.00  0.00    +0.145 A 
BRANCH   6   9
ATOM      9  O   LIG    1      -33.657  65.116  20.341  0.00  0.00    -0.424 OA
BRANCH   9  10
ATOM     10  C   LIG    1      -32.972  66.026  19.558  0.00  0.00    +0.132 A 
ATOM     11  C   LIG    1      -31.598  66.255  19.685  0.00  0.00    +0.047 A 
ATOM     12  C   LIG    1      -30.923  67.099  18.807  0.00  0.00    +0.012 A 
ATOM     13  C   LIG    1      -31.628  67.810  17.836  0.00  0.00    -0.013 A 
ATOM     14  C   LIG    1      -33.021  67.646  17.764  0.00  0.00    +0.012 A 
ATOM     15  C   LIG    1      -33.693  66.760  18.619  0.00  0.00    +0.047 A 
BRANCH  13  16
ATOM     16  C   LIG    1      -30.911  68.695  16.932  0.00  0.00    +0.046 A 
ATOM     17  C   LIG    1      -30.052  69.709  17.316  0.00  0.00    +0.163 A 
ATOM     18  N   LIG    1      -29.645  70.160  18.548  0.00  0.00    -0.236 NA
ATOM     19  C   LIG    1      -28.831  71.171  18.545  0.00  0.00    +0.114 A 
ATOM     20  C   LIG    1      -28.303  71.871  17.346  0.00  0.00    +0.039 A 
ATOM     21  C   LIG    1      -28.718  71.378  16.172  0.00  0.00    +0.116 A 
ATOM     22  N   LIG    1      -29.590  70.295  16.131  0.00  0.00    -0.221 N 
ATOM     23  N   LIG    1      -30.094  69.686  15.030  0.00  0.00    -0.173 NA
ATOM     24  C   LIG    1      -30.884  68.730  15.520  0.00  0.00    +0.145 A 
ENDBRANCH  13  16
ENDBRANCH   9  10
ENDBRANCH   6   9
ENDBRANCH   2   3
BRANCH   1  25
ATOM     25  O   LIG    1      -38.114  68.676  22.206  0.00  0.00    -0.481 OA
ATOM     26  H   LIG    1      -37.279  68.810  21.738  0.00  0.00    +0.295 HD
ENDBRANCH   1  25
BRANCH   1  27
ATOM     27  N   LIG    1      -38.728  69.180  24.265  0.00  0.00    -0.269 N 
ATOM     28  H   LIG    1      -39.459  68.679  24.751  0.00  0.00    +0.157 HD
BRANCH  27  29
ATOM     29  C   LIG    1      -38.658  70.576  24.490  0.00  0.00    +0.043 A 
ATOM     30  C   LIG    1      -37.560  71.177  25.176  0.00  0.00    +0.005 A 
ATOM     31  C   LIG    1      -37.621  72.579  25.378  0.00  0.00    +0.011 A 
ATOM     32  C   LIG    1      -38.688  73.370  24.928  0.00  0.00    +0.013 A 
ATOM     33  C   LIG    1      -39.764  72.789  24.262  0.00  0.00    +0.057 A 
ATOM     34  C   LIG    1      -39.734  71.402  24.073  0.00  0.00    +0.036 A 
BRANCH  30  35
ATOM     35  C   LIG    1      -36.363  70.433  25.682  0.00  0.00    +0.002 A 
ATOM     36  C   LIG    1      -35.140  70.438  24.995  0.00  0.00    +0.119 A 
ATOM     37  N   LIG    1      -34.007  69.793  25.380  0.00  0.00    -0.263 NA
ATOM     38  C   LIG    1      -34.078  69.065  26.509  0.00  0.00    +0.111 A 
ATOM     39  C   LIG    1      -35.222  68.975  27.276  0.00  0.00    +0.020 A 
ATOM     40  C   LIG    1      -36.352  69.691  26.874  0.00  0.00    +0.011 A 
ENDBRANCH  30  35
BRANCH  33  41
ATOM     41  C   LIG    1      -40.914  73.624  23.738  0.00  0.00    +0.417 C 
ATOM     42  F   LIG    1      -41.494  73.075  22.633  0.00  0.00    -0.166 F 
ATOM     43  F   LIG    1      -40.542  74.885  23.375  0.00  0.00    -0.166 F 
ATOM     44  F   LIG    1      -41.930  73.787  24.635  0.00  0.00    -0.166 F 
ENDBRANCH  33  41
ENDBRANCH  27  29
ENDBRANCH   1  27
TORSDOF 9
ENDMDL
MODEL 8
REMARK VINA RESULT:      -6.7     10.543     13.117
REMARK  Name = pdb/CHEMBL3947206.pdb
REMARK                            x       y       z     vdW  Elec       q    Type
REMARK                         _______ _______ _______ _____ _____    ______ ____
ROOT
ATOM      1  C   LIG    1      -36.500  76.399  26.831  0.00  0.00    +0.285 C 
ATOM      2  N   LIG    1      -35.334  76.091  27.303  0.00  0.00    -0.196 NA
ENDROOT
BRANCH   2   3
ATOM      3  C   LIG    1      -34.941  76.102  28.636  0.00  0.00    +0.105 A 
ATOM      4  C   LIG    1      -34.158  77.133  29.112  0.00  0.00    +0.145 A 
ATOM      5  N   LIG    1      -33.640  77.182  30.354  0.00  0.00    -0.201 NA
ATOM      6  C   LIG    1      -33.829  76.093  31.130  0.00  0.00    +0.323 A 
ATOM      7  N   LIG    1      -34.585  75.034  30.790  0.00  0.00    -0.201 NA
ATOM      8  C   LIG    1      -35.109  75.073  29.536  0.00  0.00    +0.145 A 
BRANCH   6   9
ATOM      9  O   LIG    1      -33.133  75.991  32.333  0.00  0.00    -0.424 OA
BRANCH   9  10
ATOM     10  C   LIG    1      -31.765  75.810  32.253  0.00  0.00    +0.132 A 
ATOM     11  C   LIG    1      -30.850  76.631  32.918  0.00  0.00    +0.047 A 
ATOM     12  C   LIG    1      -29.486  76.352  32.901  0.00  0.00    +0.012 A 
ATOM     13  C   LIG    1      -28.995  75.294  32.136  0.00  0.00    -0.013 A 
ATOM     14  C   LIG    1      -29.907  74.521  31.399  0.00  0.00    +0.012 A 
ATOM     15  C   LIG    1      -31.285  74.775  31.453  0.00  0.00    +0.047 A 
BRANCH  13  16
ATOM     16  C   LIG    1      -27.568  75.021  32.121  0.00  0.00    +0.046 A 
ATOM     17  C   LIG    1      -26.583  75.916  31.742  0.00  0.00    +0.163 A 
ATOM     18  N   LIG    1      -26.635  77.215  31.301  0.00  0.00    -0.236 NA
ATOM     19  C   LIG    1      -25.496  77.763  31.002  0.00  0.00    +0.114 A 
ATOM     20  C   LIG    1      -24.160  77.121  31.098  0.00  0.00    +0.039 A 
ATOM     21  C   LIG    1      -24.167  75.860  31.551  0.00  0.00    +0.116 A 
ATOM     22  N   LIG    1      -25.366  75.237  31.883  0.00  0.00    -0.221 N 
ATOM     23  N   LIG    1      -25.536  73.977  32.352  0.00  0.00    -0.173 NA
ATOM     24  C   LIG    1      -26.857  73.857  32.491  0.00  0.00    +0.145 A 
ENDBRANCH  13  16
ENDBRANCH   9  10
ENDBRANCH   6   9
ENDBRANCH   2   3
BRANCH   1  25
ATOM     25  O   LIG    1      -37.501  76.874  27.595  0.00  0.00    -0.481 OA
ATOM     26  H   LIG    1      -38.274  77.105  27.062  0.00  0.00    +0.295 HD
ENDBRANCH   1  25
BRANCH   1  27
ATOM     27  N   LIG    1      -36.920  76.308  25.542  0.00  0.00    -0.269 N 
ATOM     28  H   LIG    1      -36.351  76.809  24.874  0.00  0.00    +0.157 HD
BRANCH  27  29
ATOM     29  C   LIG    1      -38.013  75.575  25.019  0.00  0.00    +0.043 A 
ATOM     30  C   LIG    1      -39.211  76.214  24.582  0.00  0.00    +0.005 A 
ATOM     31  C   LIG    1      -40.253  75.372  24.116  0.00  0.00    +0.011 A 
ATOM     32  C   LIG    1      -40.141  73.976  24.063  0.00  0.00    +0.013 A 
ATOM     33  C   LIG    1      -38.976  73.346  24.493  0.00  0.00    +0.057 A 
ATOM     34  C   LIG    1      -37.943  74.158  24.978  0.00  0.00    +0.036 A 
BRANCH  30  35
ATOM     35  C   LIG    1      -39.433  77.696  24.576  0.00  0.00    +0.002 A 
ATOM     36  C   LIG    1      -39.828  78.393  25.728  0.00  0.00    +0.119 A 
ATOM     37  N   LIG    1      -40.052  79.731  25.812  0.00  0.00    -0.263 NA
ATOM     38  C   LIG    1      -39.907  80.441  24.680  0.00  0.00    +0.111 A 
ATOM     39  C   LIG    1      -39.526  79.877  23.480  0.00  0.00    +0.020 A 
ATOM     40  C   LIG    1      -39.257  78.506  23.444  0.00  0.00    +0.011 A 
ENDBRANCH  30  35
BRANCH  33  41
ATOM     41  C   LIG    1      -38.816  71.841  24.417  0.00  0.00    +0.417 C 
ATOM     42  F   LIG    1      -39.613  71.282  23.461  0.00  0.00    -0.166 F 
ATOM     43  F   LIG    1      -39.132  71.207  25.583  0.00  0.00    -0.166 F 
ATOM     44  F   LIG    1      -37.550  71.436  24.112  0.00  0.00    -0.166 F 
ENDBRANCH  33  41
ENDBRANCH  27  29
ENDBRANCH   1  27
TORSDOF 9
ENDMDL
MODEL 9
REMARK VINA RESULT:      -6.7     18.912     20.476
REMARK  Name = pdb/CHEMBL3947206.pdb
REMARK                            x       y       z     vdW  Elec       q    Type
REMARK                         _______ _______ _______ _____ _____    ______ ____
ROOT
ATOM      1  C   LIG    1      -19.333  82.680  13.601  0.00  0.00    +0.285 C 
ATOM      2  N   LIG    1      -19.538  81.417  13.802  0.00  0.00    -0.196 NA
ENDROOT
BRANCH   2   3
ATOM      3  C   LIG    1      -18.767  80.556  14.575  0.00  0.00    +0.105 A 
ATOM      4  C   LIG    1      -17.844  79.730  13.968  0.00  0.00    +0.145 A 
ATOM      5  N   LIG    1      -17.127  78.790  14.614  0.00  0.00    -0.201 NA
ATOM      6  C   LIG    1      -17.420  78.597  15.918  0.00  0.00    +0.323 A 
ATOM      7  N   LIG    1      -18.284  79.345  16.626  0.00  0.00    -0.201 NA
ATOM      8  C   LIG    1      -18.942  80.300  15.917  0.00  0.00    +0.145 A 
BRANCH   6   9
ATOM      9  O   LIG    1      -16.875  77.496  16.577  0.00  0.00    -0.424 OA
BRANCH   9  10
ATOM     10  C   LIG    1      -17.726  76.439  16.841  0.00  0.00    +0.132 A 
ATOM     11  C   LIG    1      -18.816  76.119  16.026  0.00  0.00    +0.047 A 
ATOM     12  C   LIG    1      -19.585  74.983  16.263  0.00  0.00    +0.012 A 
ATOM     13  C   LIG    1      -19.337  74.188  17.382  0.00  0.00    -0.013 A 
ATOM     14  C   LIG    1      -18.295  74.558  18.249  0.00  0.00    +0.012 A 
ATOM     15  C   LIG    1      -17.492  75.677  17.984  0.00  0.00    +0.047 A 
BRANCH  13  16
ATOM     16  C   LIG    1      -20.154  73.010  17.621  0.00  0.00    +0.046 A 
ATOM     17  C   LIG    1      -19.777  71.706  17.357  0.00  0.00    +0.163 A 
ATOM     18  N   LIG    1      -18.629  71.162  16.836  0.00  0.00    -0.236 NA
ATOM     19  C   LIG    1      -18.619  69.871  16.699  0.00  0.00    +0.114 A 
ATOM     20  C   LIG    1      -19.721  68.941  17.054  0.00  0.00    +0.039 A 
ATOM     21  C   LIG    1      -20.810  69.524  17.574  0.00  0.00    +0.116 A 
ATOM     22  N   LIG    1      -20.860  70.904  17.739  0.00  0.00    -0.221 N 
ATOM     23  N   LIG    1      -21.882  71.635  18.248  0.00  0.00    -0.173 NA
ATOM     24  C   LIG    1      -21.449  72.894  18.173  0.00  0.00    +0.145 A 
ENDBRANCH  13  16
ENDBRANCH   9  10
ENDBRANCH   6   9
ENDBRANCH   2   3
BRANCH   1  25
ATOM     25  O   LIG    1      -18.252  83.332  14.064  0.00  0.00    -0.481 OA
ATOM     26  H   LIG    1      -17.885  82.899  14.847  0.00  0.00    +0.295 HD
ENDBRANCH   1  25
BRANCH   1  27
ATOM     27  N   LIG    1      -20.127  83.547  12.920  0.00  0.00    -0.269 N 
ATOM     28  H   LIG    1      -20.251  83.329  11.941  0.00  0.00    +0.157 HD
BRANCH  27  29
ATOM     29  C   LIG    1      -20.826  84.676  13.412  0.00  0.00    +0.043 A 
ATOM     30  C   LIG    1      -21.939  84.548  14.295  0.00  0.00    +0.005 A 
ATOM     31  C   LIG    1      -22.585  85.748  14.688  0.00  0.00    +0.011 A 
ATOM     32  C   LIG    1      -22.169  87.017  14.258  0.00  0.00    +0.013 A 
ATOM     33  C   LIG    1      -21.086  87.146  13.392  0.00  0.00    +0.057 A 
ATOM     34  C   LIG    1      -20.448  85.972  12.974  0.00  0.00    +0.036 A 
BRANCH  30  35
ATOM     35  C   LIG    1      -22.457  83.249  14.832  0.00  0.00    +0.002 A 
ATOM     36  C   LIG    1      -23.371  82.461  14.116  0.00  0.00    +0.119 A 
ATOM     37  N   LIG    1      -23.893  81.275  14.526  0.00  0.00    -0.263 NA
ATOM     38  C   LIG    1      -23.515  80.835  15.739  0.00  0.00    +0.111 A 
ATOM     39  C   LIG    1      -22.625  81.516  16.545  0.00  0.00    +0.020 A 
ATOM     40  C   LIG    1      -22.073  82.708  16.068  0.00  0.00    +0.011 A 
ENDBRANCH  30  35
BRANCH  33  41
ATOM     41  C   LIG    1      -20.596  88.505  12.937  0.00  0.00    +0.417 C 
ATOM     42  F   LIG    1      -20.848  89.482  13.856  0.00  0.00    -0.166 F 
ATOM     43  F   LIG    1      -21.177  88.927  11.777  0.00  0.00    -0.166 F 
ATOM     44  F   LIG    1      -19.251  88.560  12.714  0.00  0.00    -0.166 F 
ENDBRANCH  33  41
ENDBRANCH  27  29
ENDBRANCH   1  27
TORSDOF 9
ENDMDL
