MODEL 1
REMARK VINA RESULT:      -7.1      0.000      0.000
REMARK  Name = pdb/CHEMBL3974941.pdb
REMARK                            x       y       z     vdW  Elec       q    Type
REMARK                         _______ _______ _______ _____ _____    ______ ____
ROOT
ATOM      1  C   LIG    1      -36.011  67.022  19.631  0.00  0.00    +0.323 A 
ATOM      2  N   LIG    1      -36.101  66.628  20.912  0.00  0.00    -0.201 NA
ATOM      3  C   LIG    1      -36.887  67.394  21.724  0.00  0.00    +0.145 A 
ATOM      4  C   LIG    1      -37.576  68.539  21.333  0.00  0.00    +0.105 A 
ATOM      5  C   LIG    1      -37.421  68.793  19.985  0.00  0.00    +0.145 A 
ATOM      6  N   LIG    1      -36.691  68.058  19.124  0.00  0.00    -0.201 NA
ENDROOT
BRANCH   4   7
ATOM      7  N   LIG    1      -38.408  69.276  22.224  0.00  0.00    -0.196 NA
ATOM      8  C   LIG    1      -39.681  69.154  22.192  0.00  0.00    +0.285 C 
BRANCH   8   9
ATOM      9  N   LIG    1      -40.576  69.748  23.069  0.00  0.00    -0.269 N 
ATOM     10  H   LIG    1      -40.720  69.227  23.932  0.00  0.00    +0.157 HD
BRANCH   9  11
ATOM     11  C   LIG    1      -40.858  71.132  23.189  0.00  0.00    +0.043 A 
ATOM     12  C   LIG    1      -41.943  71.759  22.520  0.00  0.00    +0.005 A 
ATOM     13  C   LIG    1      -42.054  73.165  22.680  0.00  0.00    +0.011 A 
ATOM     14  C   LIG    1      -41.158  73.920  23.446  0.00  0.00    +0.013 A 
ATOM     15  C   LIG    1      -40.101  73.301  24.105  0.00  0.00    +0.057 A 
ATOM     16  C   LIG    1      -39.983  71.914  23.986  0.00  0.00    +0.036 A 
BRANCH  12  17
ATOM     17  C   LIG    1      -42.928  71.071  21.625  0.00  0.00    +0.002 A 
ATOM     18  C   LIG    1      -42.695  70.798  20.275  0.00  0.00    +0.119 A 
ATOM     19  N   LIG    1      -43.584  70.226  19.417  0.00  0.00    -0.263 NA
ATOM     20  C   LIG    1      -44.801  69.925  19.905  0.00  0.00    +0.111 A 
ATOM     21  C   LIG    1      -45.164  70.153  21.216  0.00  0.00    +0.020 A 
ATOM     22  C   LIG    1      -44.215  70.712  22.076  0.00  0.00    +0.011 A 
ENDBRANCH  12  17
BRANCH  15  23
ATOM     23  C   LIG    1      -39.111  74.101  24.915  0.00  0.00    +0.417 C 
ATOM     24  F   LIG    1      -39.234  75.439  24.709  0.00  0.00    -0.166 F 
ATOM     25  F   LIG    1      -37.822  73.786  24.613  0.00  0.00    -0.166 F 
ATOM     26  F   LIG    1      -39.234  73.912  26.259  0.00  0.00    -0.166 F 
ENDBRANCH  15  23
ENDBRANCH   9  11
ENDBRANCH   8   9
BRANCH   8  27
ATOM     27  O   LIG    1      -40.291  68.357  21.285  0.00  0.00    -0.481 OA
ATOM     28  H   LIG    1      -41.080  68.778  20.904  0.00  0.00    +0.295 HD
ENDBRANCH   8  27
ENDBRANCH   4   7
BRANCH   1  29
ATOM     29  O   LIG    1      -35.193  66.263  18.796  0.00  0.00    -0.424 OA
BRANCH  29  33
ATOM     30  C   LIG    1      -31.034  66.951  18.575  0.00  0.00    -0.013 A 
ATOM     31  C   LIG    1      -31.554  66.241  19.655  0.00  0.00    +0.012 A 
ATOM     32  C   LIG    1      -32.921  65.977  19.742  0.00  0.00    +0.047 A 
ATOM     33  C   LIG    1      -33.823  66.456  18.789  0.00  0.00    +0.132 A 
ATOM     34  C   LIG    1      -33.304  67.149  17.691  0.00  0.00    +0.047 A 
ATOM     35  C   LIG    1      -31.922  67.386  17.581  0.00  0.00    +0.012 A 
BRANCH  30  40
ATOM     36  C   LIG    1      -29.295  72.114  18.305  0.00  0.00    +0.066 C 
ATOM     37  C   LIG    1      -28.718  70.724  18.352  0.00  0.00    +0.042 A 
ATOM     38  N   LIG    1      -29.557  69.732  18.404  0.00  0.00    -0.232 NA
ATOM     39  C   LIG    1      -29.025  68.470  18.455  0.00  0.00    +0.163 A 
ATOM     40  C   LIG    1      -29.607  67.221  18.531  0.00  0.00    +0.046 A 
ATOM     41  C   LIG    1      -28.513  66.327  18.526  0.00  0.00    +0.145 A 
ATOM     42  N   LIG    1      -27.329  66.939  18.470  0.00  0.00    -0.173 NA
ATOM     43  N   LIG    1      -27.643  68.256  18.434  0.00  0.00    -0.221 N 
ATOM     44  C   LIG    1      -26.763  69.332  18.383  0.00  0.00    +0.116 A 
ATOM     45  C   LIG    1      -27.228  70.588  18.344  0.00  0.00    +0.043 A 
ENDBRANCH  30  40
ENDBRANCH  29  33
ENDBRANCH   1  29
TORSDOF 9
ENDMDL
MODEL 2
REMARK VINA RESULT:      -7.0     15.094     20.066
REMARK  Name = pdb/CHEMBL3974941.pdb
REMARK                            x       y       z     vdW  Elec       q    Type
REMARK                         _______ _______ _______ _____ _____    ______ ____
ROOT
ATOM      1  C   LIG    1      -28.730  75.712  32.227  0.00  0.00    +0.323 A 
ATOM      2  N   LIG    1      -28.756  76.412  33.373  0.00  0.00    -0.201 NA
ATOM      3  C   LIG    1      -27.634  77.133  33.663  0.00  0.00    +0.145 A 
ATOM      4  C   LIG    1      -26.483  77.185  32.882  0.00  0.00    +0.105 A 
ATOM      5  C   LIG    1      -26.622  76.452  31.719  0.00  0.00    +0.145 A 
ATOM      6  N   LIG    1      -27.713  75.749  31.358  0.00  0.00    -0.201 NA
ENDROOT
BRANCH   4   7
ATOM      7  N   LIG    1      -25.356  77.987  33.225  0.00  0.00    -0.196 NA
ATOM      8  C   LIG    1      -24.363  77.492  33.862  0.00  0.00    +0.285 C 
BRANCH   8   9
ATOM      9  N   LIG    1      -23.183  78.153  34.165  0.00  0.00    -0.269 N 
ATOM     10  H   LIG    1      -23.005  78.248  35.164  0.00  0.00    +0.157 HD
BRANCH   9  11
ATOM     11  C   LIG    1      -22.009  78.203  33.374  0.00  0.00    +0.043 A 
ATOM     12  C   LIG    1      -20.866  78.967  33.736  0.00  0.00    +0.005 A 
ATOM     13  C   LIG    1      -19.793  78.977  32.807  0.00  0.00    +0.011 A 
ATOM     14  C   LIG    1      -19.831  78.285  31.590  0.00  0.00    +0.013 A 
ATOM     15  C   LIG    1      -20.947  77.533  31.243  0.00  0.00    +0.057 A 
ATOM     16  C   LIG    1      -22.007  77.484  32.151  0.00  0.00    +0.036 A 
BRANCH  12  17
ATOM     17  C   LIG    1      -20.733  79.798  34.976  0.00  0.00    +0.002 A 
ATOM     18  C   LIG    1      -21.530  80.910  35.258  0.00  0.00    +0.119 A 
ATOM     19  N   LIG    1      -21.404  81.721  36.344  0.00  0.00    -0.263 NA
ATOM     20  C   LIG    1      -20.407  81.445  37.204  0.00  0.00    +0.111 A 
ATOM     21  C   LIG    1      -19.542  80.382  37.038  0.00  0.00    +0.020 A 
ATOM     22  C   LIG    1      -19.722  79.552  35.928  0.00  0.00    +0.011 A 
ENDBRANCH  12  17
BRANCH  15  23
ATOM     23  C   LIG    1      -21.015  76.799  29.926  0.00  0.00    +0.417 C 
ATOM     24  F   LIG    1      -22.182  77.025  29.266  0.00  0.00    -0.166 F 
ATOM     25  F   LIG    1      -20.920  75.451  30.080  0.00  0.00    -0.166 F 
ATOM     26  F   LIG    1      -20.019  77.145  29.062  0.00  0.00    -0.166 F 
ENDBRANCH  15  23
ENDBRANCH   9  11
ENDBRANCH   8   9
BRANCH   8  27
ATOM     27  O   LIG    1      -24.359  76.203  34.272  0.00  0.00    -0.481 OA
ATOM     28  H   LIG    1      -25.238  75.916  34.573  0.00  0.00    +0.295 HD
ENDBRANCH   8  27
ENDBRANCH   4   7
BRANCH   1  29
ATOM     29  O   LIG    1      -29.860  74.952  31.929  0.00  0.00    -0.424 OA
BRANCH  29  33
ATOM     30  C   LIG    1      -32.972  76.664  29.649  0.00  0.00    -0.013 A 
ATOM     31  C   LIG    1      -33.164  76.441  31.010  0.00  0.00    +0.012 A 
ATOM     32  C   LIG    1      -32.145  75.900  31.794  0.00  0.00    +0.047 A 
ATOM     33  C   LIG    1      -30.922  75.511  31.242  0.00  0.00    +0.132 A 
ATOM     34  C   LIG    1      -30.716  75.754  29.880  0.00  0.00    +0.047 A 
ATOM     35  C   LIG    1      -31.727  76.333  29.094  0.00  0.00    +0.012 A 
BRANCH  30  40
ATOM     36  C   LIG    1      -36.700  73.292  27.531  0.00  0.00    +0.066 C 
ATOM     37  C   LIG    1      -36.398  74.767  27.571  0.00  0.00    +0.042 A 
ATOM     38  N   LIG    1      -35.336  75.139  28.223  0.00  0.00    -0.232 NA
ATOM     39  C   LIG    1      -35.072  76.483  28.263  0.00  0.00    +0.163 A 
ATOM     40  C   LIG    1      -34.065  77.212  28.863  0.00  0.00    +0.046 A 
ATOM     41  C   LIG    1      -34.346  78.551  28.508  0.00  0.00    +0.145 A 
ATOM     42  N   LIG    1      -35.444  78.681  27.762  0.00  0.00    -0.173 NA
ATOM     43  N   LIG    1      -35.894  77.412  27.618  0.00  0.00    -0.221 N 
ATOM     44  C   LIG    1      -37.027  76.991  26.929  0.00  0.00    +0.116 A 
ATOM     45  C   LIG    1      -37.341  75.690  26.868  0.00  0.00    +0.043 A 
ENDBRANCH  30  40
ENDBRANCH  29  33
ENDBRANCH   1  29
TORSDOF 9
ENDMDL
MODEL 3
REMARK VINA RESULT:      -7.0     19.011     21.992
REMARK  Name = pdb/CHEMBL3974941.pdb
REMARK                            x       y       z     vdW  Elec       q    Type
REMARK                         _______ _______ _______ _____ _____    ______ ____
ROOT
ATOM      1  C   LIG    1      -26.208  82.312  37.369  0.00  0.00    +0.323 A 
ATOM      2  N   LIG    1      -25.855  83.548  36.976  0.00  0.00    -0.201 NA
ATOM      3  C   LIG    1      -26.868  84.353  36.540  0.00  0.00    +0.145 A 
ATOM      4  C   LIG    1      -28.210  83.991  36.462  0.00  0.00    +0.105 A 
ATOM      5  C   LIG    1      -28.422  82.712  36.938  0.00  0.00    +0.145 A 
ATOM      6  N   LIG    1      -27.475  81.882  37.414  0.00  0.00    -0.201 NA
ENDROOT
BRANCH   4   7
ATOM      7  N   LIG    1      -29.225  84.892  36.029  0.00  0.00    -0.196 NA
ATOM      8  C   LIG    1      -29.643  84.886  34.820  0.00  0.00    +0.285 C 
BRANCH   8   9
ATOM      9  N   LIG    1      -30.684  85.651  34.317  0.00  0.00    -0.269 N 
ATOM     10  H   LIG    1      -31.319  86.007  35.029  0.00  0.00    +0.157 HD
BRANCH   9  11
ATOM     11  C   LIG    1      -30.675  86.423  33.129  0.00  0.00    +0.043 A 
ATOM     12  C   LIG    1      -29.777  87.505  32.919  0.00  0.00    +0.005 A 
ATOM     13  C   LIG    1      -29.938  88.230  31.709  0.00  0.00    +0.011 A 
ATOM     14  C   LIG    1      -30.918  87.923  30.758  0.00  0.00    +0.013 A 
ATOM     15  C   LIG    1      -31.789  86.859  30.965  0.00  0.00    +0.057 A 
ATOM     16  C   LIG    1      -31.637  86.111  32.134  0.00  0.00    +0.036 A 
BRANCH  12  17
ATOM     17  C   LIG    1      -28.732  87.968  33.886  0.00  0.00    +0.002 A 
ATOM     18  C   LIG    1      -27.539  87.283  34.130  0.00  0.00    +0.119 A 
ATOM     19  N   LIG    1      -26.590  87.641  35.039  0.00  0.00    -0.263 NA
ATOM     20  C   LIG    1      -26.838  88.732  35.787  0.00  0.00    +0.111 A 
ATOM     21  C   LIG    1      -27.982  89.493  35.653  0.00  0.00    +0.020 A 
ATOM     22  C   LIG    1      -28.918  89.113  34.688  0.00  0.00    +0.011 A 
ENDBRANCH  12  17
BRANCH  15  23
ATOM     23  C   LIG    1      -32.867  86.527  29.962  0.00  0.00    +0.417 C 
ATOM     24  F   LIG    1      -32.505  85.518  29.126  0.00  0.00    -0.166 F 
ATOM     25  F   LIG    1      -33.178  87.587  29.168  0.00  0.00    -0.166 F 
ATOM     26  F   LIG    1      -34.040  86.139  30.538  0.00  0.00    -0.166 F 
ENDBRANCH  15  23
ENDBRANCH   9  11
ENDBRANCH   8   9
BRANCH   8  27
ATOM     27  O   LIG    1      -29.110  84.057  33.894  0.00  0.00    -0.481 OA
ATOM     28  H   LIG    1      -29.771  83.768  33.242  0.00  0.00    +0.295 HD
ENDBRANCH   8  27
ENDBRANCH   4   7
BRANCH   1  29
ATOM     29  O   LIG    1      -25.181  81.471  37.794  0.00  0.00    -0.424 OA
BRANCH  29  33
ATOM     30  C   LIG    1      -22.670  79.495  35.036  0.00  0.00    -0.013 A 
ATOM     31  C   LIG    1      -22.472  80.850  35.293  0.00  0.00    +0.012 A 
ATOM     32  C   LIG    1      -23.270  81.523  36.217  0.00  0.00    +0.047 A 
ATOM     33  C   LIG    1      -24.326  80.888  36.876  0.00  0.00    +0.132 A 
ATOM     34  C   LIG    1      -24.514  79.523  36.639  0.00  0.00    +0.047 A 
ATOM     35  C   LIG    1      -23.688  78.832  35.735  0.00  0.00    +0.012 A 
BRANCH  30  40
ATOM     36  C   LIG    1      -24.962  77.288  30.606  0.00  0.00    +0.066 C 
ATOM     37  C   LIG    1      -23.593  77.454  31.211  0.00  0.00    +0.042 A 
ATOM     38  N   LIG    1      -23.518  78.073  32.351  0.00  0.00    -0.232 NA
ATOM     39  C   LIG    1      -22.268  78.229  32.892  0.00  0.00    +0.163 A 
ATOM     40  C   LIG    1      -21.829  78.835  34.052  0.00  0.00    +0.046 A 
ATOM     41  C   LIG    1      -20.430  78.630  34.043  0.00  0.00    +0.145 A 
ATOM     42  N   LIG    1      -19.999  77.968  32.968  0.00  0.00    -0.173 NA
ATOM     43  N   LIG    1      -21.127  77.728  32.258  0.00  0.00    -0.221 N 
ATOM     44  C   LIG    1      -21.231  77.071  31.036  0.00  0.00    +0.116 A 
ATOM     45  C   LIG    1      -22.426  76.902  30.455  0.00  0.00    +0.043 A 
ENDBRANCH  30  40
ENDBRANCH  29  33
ENDBRANCH   1  29
TORSDOF 9
ENDMDL
MODEL 4
REMARK VINA RESULT:      -7.0      2.539      3.387
REMARK  Name = pdb/CHEMBL3974941.pdb
REMARK                            x       y       z     vdW  Elec       q    Type
REMARK                         _______ _______ _______ _____ _____    ______ ____
ROOT
ATOM      1  C   LIG    1      -35.352  66.766  22.209  0.00  0.00    +0.323 A 
ATOM      2  N   LIG    1      -36.668  66.980  22.040  0.00  0.00    -0.201 NA
ATOM      3  C   LIG    1      -37.270  67.786  22.962  0.00  0.00    +0.145 A 
ATOM      4  C   LIG    1      -36.638  68.380  24.051  0.00  0.00    +0.105 A 
ATOM      5  C   LIG    1      -35.285  68.105  24.067  0.00  0.00    +0.145 A 
ATOM      6  N   LIG    1      -34.624  67.349  23.170  0.00  0.00    -0.201 NA
ENDROOT
BRANCH   4   7
ATOM      7  N   LIG    1      -37.319  69.241  24.959  0.00  0.00    -0.196 NA
ATOM      8  C   LIG    1      -37.350  70.506  24.773  0.00  0.00    +0.285 C 
BRANCH   8   9
ATOM      9  N   LIG    1      -38.057  71.422  25.537  0.00  0.00    -0.269 N 
ATOM     10  H   LIG    1      -37.729  71.501  26.498  0.00  0.00    +0.157 HD
BRANCH   9  11
ATOM     11  C   LIG    1      -38.729  72.579  25.072  0.00  0.00    +0.043 A 
ATOM     12  C   LIG    1      -39.967  72.524  24.376  0.00  0.00    +0.005 A 
ATOM     13  C   LIG    1      -40.483  73.762  23.908  0.00  0.00    +0.011 A 
ATOM     14  C   LIG    1      -39.830  74.984  24.104  0.00  0.00    +0.013 A 
ATOM     15  C   LIG    1      -38.623  75.034  24.793  0.00  0.00    +0.057 A 
ATOM     16  C   LIG    1      -38.105  73.835  25.286  0.00  0.00    +0.036 A 
BRANCH  12  17
ATOM     17  C   LIG    1      -40.728  71.275  24.050  0.00  0.00    +0.002 A 
ATOM     18  C   LIG    1      -40.512  70.509  22.902  0.00  0.00    +0.119 A 
ATOM     19  N   LIG    1      -41.218  69.402  22.543  0.00  0.00    -0.263 NA
ATOM     20  C   LIG    1      -42.229  69.031  23.350  0.00  0.00    +0.111 A 
ATOM     21  C   LIG    1      -42.554  69.705  24.509  0.00  0.00    +0.020 A 
ATOM     22  C   LIG    1      -41.787  70.819  24.861  0.00  0.00    +0.011 A 
ENDBRANCH  12  17
BRANCH  15  23
ATOM     23  C   LIG    1      -37.892  76.339  24.993  0.00  0.00    +0.417 C 
ATOM     24  F   LIG    1      -36.770  76.195  25.747  0.00  0.00    -0.166 F 
ATOM     25  F   LIG    1      -38.659  77.269  25.625  0.00  0.00    -0.166 F 
ATOM     26  F   LIG    1      -37.492  76.919  23.827  0.00  0.00    -0.166 F 
ENDBRANCH  15  23
ENDBRANCH   9  11
ENDBRANCH   8   9
BRANCH   8  27
ATOM     27  O   LIG    1      -36.703  71.083  23.734  0.00  0.00    -0.481 OA
ATOM     28  H   LIG    1      -35.839  71.442  23.999  0.00  0.00    +0.295 HD
ENDBRANCH   8  27
ENDBRANCH   4   7
BRANCH   1  29
ATOM     29  O   LIG    1      -34.728  65.926  21.289  0.00  0.00    -0.424 OA
BRANCH  29  33
ATOM     30  C   LIG    1      -32.905  67.482  17.815  0.00  0.00    -0.013 A 
ATOM     31  C   LIG    1      -34.289  67.326  17.850  0.00  0.00    +0.012 A 
ATOM     32  C   LIG    1      -34.921  66.838  18.993  0.00  0.00    +0.047 A 
ATOM     33  C   LIG    1      -34.197  66.437  20.118  0.00  0.00    +0.132 A 
ATOM     34  C   LIG    1      -32.810  66.613  20.096  0.00  0.00    +0.047 A 
ATOM     35  C   LIG    1      -32.172  67.140  18.960  0.00  0.00    +0.012 A 
BRANCH  30  40
ATOM     36  C   LIG    1      -29.331  71.593  18.114  0.00  0.00    +0.066 C 
ATOM     37  C   LIG    1      -29.954  70.705  17.068  0.00  0.00    +0.042 A 
ATOM     38  N   LIG    1      -30.814  69.819  17.475  0.00  0.00    -0.232 NA
ATOM     39  C   LIG    1      -31.370  69.009  16.520  0.00  0.00    +0.163 A 
ATOM     40  C   LIG    1      -32.283  67.977  16.598  0.00  0.00    +0.046 A 
ATOM     41  C   LIG    1      -32.462  67.569  15.256  0.00  0.00    +0.145 A 
ATOM     42  N   LIG    1      -31.721  68.262  14.389  0.00  0.00    -0.173 NA
ATOM     43  N   LIG    1      -31.045  69.141  15.167  0.00  0.00    -0.221 N 
ATOM     44  C   LIG    1      -30.120  70.094  14.754  0.00  0.00    +0.116 A 
ATOM     45  C   LIG    1      -29.535  70.905  15.646  0.00  0.00    +0.043 A 
ENDBRANCH  30  40
ENDBRANCH  29  33
ENDBRANCH   1  29
TORSDOF 9
ENDMDL
MODEL 5
REMARK VINA RESULT:      -7.0     15.408     20.344
REMARK  Name = pdb/CHEMBL3974941.pdb
REMARK                            x       y       z     vdW  Elec       q    Type
REMARK                         _______ _______ _______ _____ _____    ______ ____
ROOT
ATOM      1  C   LIG    1      -28.525  75.670  32.239  0.00  0.00    +0.323 A 
ATOM      2  N   LIG    1      -28.579  76.417  33.355  0.00  0.00    -0.201 NA
ATOM      3  C   LIG    1      -27.471  77.163  33.633  0.00  0.00    +0.145 A 
ATOM      4  C   LIG    1      -26.307  77.198  32.869  0.00  0.00    +0.105 A 
ATOM      5  C   LIG    1      -26.418  76.416  31.737  0.00  0.00    +0.145 A 
ATOM      6  N   LIG    1      -27.493  75.685  31.386  0.00  0.00    -0.201 NA
ENDROOT
BRANCH   4   7
ATOM      7  N   LIG    1      -25.197  78.027  33.198  0.00  0.00    -0.196 NA
ATOM      8  C   LIG    1      -24.230  77.585  33.910  0.00  0.00    +0.285 C 
BRANCH   8   9
ATOM      9  N   LIG    1      -23.064  78.271  34.211  0.00  0.00    -0.269 N 
ATOM     10  H   LIG    1      -22.913  78.416  35.208  0.00  0.00    +0.157 HD
BRANCH   9  11
ATOM     11  C   LIG    1      -21.870  78.296  33.449  0.00  0.00    +0.043 A 
ATOM     12  C   LIG    1      -20.730  79.058  33.824  0.00  0.00    +0.005 A 
ATOM     13  C   LIG    1      -19.635  79.039  32.921  0.00  0.00    +0.011 A 
ATOM     14  C   LIG    1      -19.647  78.322  31.719  0.00  0.00    +0.013 A 
ATOM     15  C   LIG    1      -20.761  77.571  31.360  0.00  0.00    +0.057 A 
ATOM     16  C   LIG    1      -21.844  77.550  32.241  0.00  0.00    +0.036 A 
BRANCH  12  17
ATOM     17  C   LIG    1      -20.621  79.913  35.049  0.00  0.00    +0.002 A 
ATOM     18  C   LIG    1      -20.054  79.483  36.251  0.00  0.00    +0.119 A 
ATOM     19  N   LIG    1      -19.985  80.209  37.401  0.00  0.00    -0.263 NA
ATOM     20  C   LIG    1      -20.538  81.435  37.385  0.00  0.00    +0.111 A 
ATOM     21  C   LIG    1      -21.139  81.976  36.267  0.00  0.00    +0.020 A 
ATOM     22  C   LIG    1      -21.162  81.214  35.096  0.00  0.00    +0.011 A 
ENDBRANCH  12  17
BRANCH  15  23
ATOM     23  C   LIG    1      -20.802  76.811  30.057  0.00  0.00    +0.417 C 
ATOM     24  F   LIG    1      -19.719  77.063  29.276  0.00  0.00    -0.166 F 
ATOM     25  F   LIG    1      -21.893  77.128  29.308  0.00  0.00    -0.166 F 
ATOM     26  F   LIG    1      -20.845  75.459  30.221  0.00  0.00    -0.166 F 
ENDBRANCH  15  23
ENDBRANCH   9  11
ENDBRANCH   8   9
BRANCH   8  27
ATOM     27  O   LIG    1      -24.242  76.330  34.415  0.00  0.00    -0.481 OA
ATOM     28  H   LIG    1      -25.127  75.931  34.373  0.00  0.00    +0.295 HD
ENDBRANCH   8  27
ENDBRANCH   4   7
BRANCH   1  29
ATOM     29  O   LIG    1      -29.640  74.885  31.954  0.00  0.00    -0.424 OA
BRANCH  29  33
ATOM     30  C   LIG    1      -32.844  76.227  29.556  0.00  0.00    -0.013 A 
ATOM     31  C   LIG    1      -31.537  76.522  29.179  0.00  0.00    +0.012 A 
ATOM     32  C   LIG    1      -30.457  76.071  29.938  0.00  0.00    +0.047 A 
ATOM     33  C   LIG    1      -30.641  75.359  31.125  0.00  0.00    +0.132 A 
ATOM     34  C   LIG    1      -31.952  75.040  31.497  0.00  0.00    +0.047 A 
ATOM     35  C   LIG    1      -33.041  75.461  30.715  0.00  0.00    +0.012 A 
BRANCH  30  40
ATOM     36  C   LIG    1      -35.248  80.923  30.942  0.00  0.00    +0.066 C 
ATOM     37  C   LIG    1      -35.363  79.860  29.881  0.00  0.00    +0.042 A 
ATOM     38  N   LIG    1      -34.542  78.855  29.955  0.00  0.00    -0.232 NA
ATOM     39  C   LIG    1      -34.646  77.896  28.981  0.00  0.00    +0.163 A 
ATOM     40  C   LIG    1      -33.942  76.732  28.749  0.00  0.00    +0.046 A 
ATOM     41  C   LIG    1      -34.555  76.179  27.600  0.00  0.00    +0.145 A 
ATOM     42  N   LIG    1      -35.552  76.924  27.122  0.00  0.00    -0.173 NA
ATOM     43  N   LIG    1      -35.603  77.983  27.966  0.00  0.00    -0.221 N 
ATOM     44  C   LIG    1      -36.469  79.069  27.904  0.00  0.00    +0.116 A 
ATOM     45  C   LIG    1      -36.404  80.043  28.823  0.00  0.00    +0.043 A 
ENDBRANCH  30  40
ENDBRANCH  29  33
ENDBRANCH   1  29
TORSDOF 9
ENDMDL
MODEL 6
REMARK VINA RESULT:      -6.9     13.262     17.829
REMARK  Name = pdb/CHEMBL3974941.pdb
REMARK                            x       y       z     vdW  Elec       q    Type
REMARK                         _______ _______ _______ _____ _____    ______ ____
ROOT
ATOM      1  C   LIG    1      -33.046  76.421  29.717  0.00  0.00    +0.323 A 
ATOM      2  N   LIG    1      -32.012  76.171  28.896  0.00  0.00    -0.201 NA
ATOM      3  C   LIG    1      -30.813  75.920  29.499  0.00  0.00    +0.145 A 
ATOM      4  C   LIG    1      -30.584  75.917  30.872  0.00  0.00    +0.105 A 
ATOM      5  C   LIG    1      -31.746  76.146  31.583  0.00  0.00    +0.145 A 
ATOM      6  N   LIG    1      -32.964  76.364  31.051  0.00  0.00    -0.201 NA
ENDROOT
BRANCH   4   7
ATOM      7  N   LIG    1      -29.313  75.612  31.438  0.00  0.00    -0.196 NA
ATOM      8  C   LIG    1      -28.455  76.533  31.669  0.00  0.00    +0.285 C 
BRANCH   8   9
ATOM      9  N   LIG    1      -27.232  76.363  32.298  0.00  0.00    -0.269 N 
ATOM     10  H   LIG    1      -27.296  76.259  33.310  0.00  0.00    +0.157 HD
BRANCH   9  11
ATOM     11  C   LIG    1      -26.062  75.786  31.743  0.00  0.00    +0.043 A 
ATOM     12  C   LIG    1      -25.784  74.394  31.806  0.00  0.00    +0.005 A 
ATOM     13  C   LIG    1      -24.538  73.975  31.270  0.00  0.00    +0.011 A 
ATOM     14  C   LIG    1      -23.612  74.862  30.707  0.00  0.00    +0.013 A 
ATOM     15  C   LIG    1      -23.892  76.222  30.640  0.00  0.00    +0.057 A 
ATOM     16  C   LIG    1      -25.122  76.659  31.137  0.00  0.00    +0.036 A 
BRANCH  12  17
ATOM     17  C   LIG    1      -26.663  73.359  32.438  0.00  0.00    +0.002 A 
ATOM     18  C   LIG    1      -27.356  72.381  31.720  0.00  0.00    +0.119 A 
ATOM     19  N   LIG    1      -28.206  71.460  32.250  0.00  0.00    -0.263 NA
ATOM     20  C   LIG    1      -28.420  71.516  33.577  0.00  0.00    +0.111 A 
ATOM     21  C   LIG    1      -27.808  72.438  34.401  0.00  0.00    +0.020 A 
ATOM     22  C   LIG    1      -26.917  73.347  33.825  0.00  0.00    +0.011 A 
ENDBRANCH  12  17
BRANCH  15  23
ATOM     23  C   LIG    1      -22.897  77.196  30.058  0.00  0.00    +0.417 C 
ATOM     24  F   LIG    1      -23.499  78.269  29.479  0.00  0.00    -0.166 F 
ATOM     25  F   LIG    1      -22.122  76.628  29.094  0.00  0.00    -0.166 F 
ATOM     26  F   LIG    1      -22.031  77.700  30.981  0.00  0.00    -0.166 F 
ENDBRANCH  15  23
ENDBRANCH   9  11
ENDBRANCH   8   9
BRANCH   8  27
ATOM     27  O   LIG    1      -28.700  77.823  31.345  0.00  0.00    -0.481 OA
ATOM     28  H   LIG    1      -27.900  78.372  31.410  0.00  0.00    +0.295 HD
ENDBRANCH   8  27
ENDBRANCH   4   7
BRANCH   1  29
ATOM     29  O   LIG    1      -34.271  76.702  29.115  0.00  0.00    -0.424 OA
BRANCH  29  33
ATOM     30  C   LIG    1      -35.469  80.625  28.116  0.00  0.00    -0.013 A 
ATOM     31  C   LIG    1      -34.217  80.167  27.711  0.00  0.00    +0.012 A 
ATOM     32  C   LIG    1      -33.805  78.868  28.005  0.00  0.00    +0.047 A 
ATOM     33  C   LIG    1      -34.597  77.998  28.758  0.00  0.00    +0.132 A 
ATOM     34  C   LIG    1      -35.864  78.445  29.148  0.00  0.00    +0.047 A 
ATOM     35  C   LIG    1      -36.299  79.742  28.821  0.00  0.00    +0.012 A 
BRANCH  30  40
ATOM     36  C   LIG    1      -33.275  84.733  30.957  0.00  0.00    +0.066 C 
ATOM     37  C   LIG    1      -34.259  84.528  29.834  0.00  0.00    +0.042 A 
ATOM     38  N   LIG    1      -34.500  83.303  29.470  0.00  0.00    -0.232 NA
ATOM     39  C   LIG    1      -35.389  83.125  28.443  0.00  0.00    +0.163 A 
ATOM     40  C   LIG    1      -35.854  81.991  27.807  0.00  0.00    +0.046 A 
ATOM     41  C   LIG    1      -36.771  82.482  26.849  0.00  0.00    +0.145 A 
ATOM     42  N   LIG    1      -36.878  83.812  26.852  0.00  0.00    -0.173 NA
ATOM     43  N   LIG    1      -36.023  84.207  27.825  0.00  0.00    -0.221 N 
ATOM     44  C   LIG    1      -35.748  85.509  28.229  0.00  0.00    +0.116 A 
ATOM     45  C   LIG    1      -34.877  85.744  29.220  0.00  0.00    +0.043 A 
ENDBRANCH  30  40
ENDBRANCH  29  33
ENDBRANCH   1  29
TORSDOF 9
ENDMDL
MODEL 7
REMARK VINA RESULT:      -6.8     10.885     15.385
REMARK  Name = pdb/CHEMBL3974941.pdb
REMARK                            x       y       z     vdW  Elec       q    Type
REMARK                         _______ _______ _______ _____ _____    ______ ____
ROOT
ATOM      1  C   LIG    1      -36.100  80.039  29.933  0.00  0.00    +0.323 A 
ATOM      2  N   LIG    1      -35.132  79.108  29.939  0.00  0.00    -0.201 NA
ATOM      3  C   LIG    1      -35.181  78.183  28.936  0.00  0.00    +0.145 A 
ATOM      4  C   LIG    1      -36.149  78.126  27.936  0.00  0.00    +0.105 A 
ATOM      5  C   LIG    1      -37.048  79.170  28.038  0.00  0.00    +0.145 A 
ATOM      6  N   LIG    1      -37.033  80.133  28.979  0.00  0.00    -0.201 NA
ENDROOT
BRANCH   4   7
ATOM      7  N   LIG    1      -36.123  77.153  26.897  0.00  0.00    -0.196 NA
ATOM      8  C   LIG    1      -36.771  76.055  27.003  0.00  0.00    +0.285 C 
BRANCH   8   9
ATOM      9  N   LIG    1      -36.891  75.084  26.021  0.00  0.00    -0.269 N 
ATOM     10  H   LIG    1      -36.195  74.342  26.084  0.00  0.00    +0.157 HD
BRANCH   9  11
ATOM     11  C   LIG    1      -38.076  74.693  25.351  0.00  0.00    +0.043 A 
ATOM     12  C   LIG    1      -38.432  73.333  25.143  0.00  0.00    +0.005 A 
ATOM     13  C   LIG    1      -39.613  73.098  24.391  0.00  0.00    +0.011 A 
ATOM     14  C   LIG    1      -40.403  74.129  23.868  0.00  0.00    +0.013 A 
ATOM     15  C   LIG    1      -40.055  75.458  24.081  0.00  0.00    +0.057 A 
ATOM     16  C   LIG    1      -38.912  75.719  24.839  0.00  0.00    +0.036 A 
BRANCH  12  17
ATOM     17  C   LIG    1      -37.637  72.147  25.597  0.00  0.00    +0.002 A 
ATOM     18  C   LIG    1      -37.343  71.872  26.934  0.00  0.00    +0.119 A 
ATOM     19  N   LIG    1      -36.580  70.838  27.383  0.00  0.00    -0.263 NA
ATOM     20  C   LIG    1      -36.038  70.029  26.455  0.00  0.00    +0.111 A 
ATOM     21  C   LIG    1      -36.240  70.194  25.100  0.00  0.00    +0.020 A 
ATOM     22  C   LIG    1      -37.056  71.248  24.679  0.00  0.00    +0.011 A 
ENDBRANCH  12  17
BRANCH  15  23
ATOM     23  C   LIG    1      -40.881  76.582  23.505  0.00  0.00    +0.417 C 
ATOM     24  F   LIG    1      -41.533  77.291  24.465  0.00  0.00    -0.166 F 
ATOM     25  F   LIG    1      -41.838  76.133  22.648  0.00  0.00    -0.166 F 
ATOM     26  F   LIG    1      -40.146  77.487  22.800  0.00  0.00    -0.166 F 
ENDBRANCH  15  23
ENDBRANCH   9  11
ENDBRANCH   8   9
BRANCH   8  27
ATOM     27  O   LIG    1      -37.470  75.754  28.121  0.00  0.00    -0.481 OA
ATOM     28  H   LIG    1      -38.418  75.637  27.937  0.00  0.00    +0.295 HD
ENDBRANCH   8  27
ENDBRANCH   4   7
BRANCH   1  29
ATOM     29  O   LIG    1      -36.076  80.976  30.964  0.00  0.00    -0.424 OA
BRANCH  29  33
ATOM     30  C   LIG    1      -33.597  84.393  30.955  0.00  0.00    -0.013 A 
ATOM     31  C   LIG    1      -33.769  83.669  29.778  0.00  0.00    +0.012 A 
ATOM     32  C   LIG    1      -34.601  82.550  29.745  0.00  0.00    +0.047 A 
ATOM     33  C   LIG    1      -35.247  82.081  30.891  0.00  0.00    +0.132 A 
ATOM     34  C   LIG    1      -35.096  82.818  32.070  0.00  0.00    +0.047 A 
ATOM     35  C   LIG    1      -34.287  83.968  32.099  0.00  0.00    +0.012 A 
BRANCH  30  40
ATOM     36  C   LIG    1      -34.969  88.840  28.110  0.00  0.00    +0.066 C 
ATOM     37  C   LIG    1      -33.845  88.358  28.989  0.00  0.00    +0.042 A 
ATOM     38  N   LIG    1      -33.940  87.154  29.470  0.00  0.00    -0.232 NA
ATOM     39  C   LIG    1      -32.918  86.726  30.276  0.00  0.00    +0.163 A 
ATOM     40  C   LIG    1      -32.706  85.541  30.952  0.00  0.00    +0.046 A 
ATOM     41  C   LIG    1      -31.453  85.720  31.582  0.00  0.00    +0.145 A 
ATOM     42  N   LIG    1      -30.910  86.916  31.350  0.00  0.00    -0.173 NA
ATOM     43  N   LIG    1      -31.814  87.537  30.555  0.00  0.00    -0.221 N 
ATOM     44  C   LIG    1      -31.734  88.823  30.031  0.00  0.00    +0.116 A 
ATOM     45  C   LIG    1      -32.711  89.299  29.247  0.00  0.00    +0.043 A 
ENDBRANCH  30  40
ENDBRANCH  29  33
ENDBRANCH   1  29
TORSDOF 9
ENDMDL
MODEL 8
REMARK VINA RESULT:      -6.8     13.445     17.461
REMARK  Name = pdb/CHEMBL3974941.pdb
REMARK                            x       y       z     vdW  Elec       q    Type
REMARK                         _______ _______ _______ _____ _____    ______ ____
ROOT
ATOM      1  C   LIG    1      -34.919  82.928  30.109  0.00  0.00    +0.323 A 
ATOM      2  N   LIG    1      -35.192  83.039  28.798  0.00  0.00    -0.201 NA
ATOM      3  C   LIG    1      -35.203  81.875  28.085  0.00  0.00    +0.145 A 
ATOM      4  C   LIG    1      -34.944  80.609  28.602  0.00  0.00    +0.105 A 
ATOM      5  C   LIG    1      -34.724  80.650  29.965  0.00  0.00    +0.145 A 
ATOM      6  N   LIG    1      -34.734  81.757  30.731  0.00  0.00    -0.201 NA
ENDROOT
BRANCH   4   7
ATOM      7  N   LIG    1      -35.006  79.427  27.808  0.00  0.00    -0.196 NA
ATOM      8  C   LIG    1      -33.966  78.709  27.611  0.00  0.00    +0.285 C 
BRANCH   8   9
ATOM      9  N   LIG    1      -33.932  77.499  26.937  0.00  0.00    -0.269 N 
ATOM     10  H   LIG    1      -33.193  77.434  26.238  0.00  0.00    +0.157 HD
BRANCH   9  11
ATOM     11  C   LIG    1      -34.361  76.240  27.425  0.00  0.00    +0.043 A 
ATOM     12  C   LIG    1      -35.695  75.770  27.279  0.00  0.00    +0.005 A 
ATOM     13  C   LIG    1      -35.992  74.521  27.885  0.00  0.00    +0.011 A 
ATOM     14  C   LIG    1      -35.047  73.772  28.596  0.00  0.00    +0.013 A 
ATOM     15  C   LIG    1      -33.742  74.232  28.729  0.00  0.00    +0.057 A 
ATOM     16  C   LIG    1      -33.414  75.446  28.122  0.00  0.00    +0.036 A 
BRANCH  12  17
ATOM     17  C   LIG    1      -36.807  76.506  26.598  0.00  0.00    +0.002 A 
ATOM     18  C   LIG    1      -37.615  77.454  27.230  0.00  0.00    +0.119 A 
ATOM     19  N   LIG    1      -38.669  78.103  26.663  0.00  0.00    -0.263 NA
ATOM     20  C   LIG    1      -38.976  77.782  25.393  0.00  0.00    +0.111 A 
ATOM     21  C   LIG    1      -38.265  76.855  24.658  0.00  0.00    +0.020 A 
ATOM     22  C   LIG    1      -37.170  76.233  25.263  0.00  0.00    +0.011 A 
ENDBRANCH  12  17
BRANCH  15  23
ATOM     23  C   LIG    1      -32.715  73.451  29.512  0.00  0.00    +0.417 C 
ATOM     24  F   LIG    1      -32.781  73.701  30.847  0.00  0.00    -0.166 F 
ATOM     25  F   LIG    1      -31.442  73.744  29.133  0.00  0.00    -0.166 F 
ATOM     26  F   LIG    1      -32.842  72.101  29.373  0.00  0.00    -0.166 F 
ENDBRANCH  15  23
ENDBRANCH   9  11
ENDBRANCH   8   9
BRANCH   8  27
ATOM     27  O   LIG    1      -32.759  79.063  28.108  0.00  0.00    -0.481 OA
ATOM     28  H   LIG    1      -32.827  79.407  29.015  0.00  0.00    +0.295 HD
ENDBRANCH   8  27
ENDBRANCH   4   7
BRANCH   1  29
ATOM     29  O   LIG    1      -34.880  84.111  30.845  0.00  0.00    -0.424 OA
BRANCH  29  33
ATOM     30  C   LIG    1      -31.455  84.995  33.148  0.00  0.00    -0.013 A 
ATOM     31  C   LIG    1      -32.659  84.717  33.791  0.00  0.00    +0.012 A 
ATOM     32  C   LIG    1      -33.801  84.398  33.058  0.00  0.00    +0.047 A 
ATOM     33  C   LIG    1      -33.800  84.396  31.661  0.00  0.00    +0.132 A 
ATOM     34  C   LIG    1      -32.588  84.652  31.011  0.00  0.00    +0.047 A 
ATOM     35  C   LIG    1      -31.426  84.938  31.748  0.00  0.00    +0.012 A 
BRANCH  30  40
ATOM     36  C   LIG    1      -29.679  90.152  33.192  0.00  0.00    +0.066 C 
ATOM     37  C   LIG    1      -29.319  88.823  33.804  0.00  0.00    +0.042 A 
ATOM     38  N   LIG    1      -30.057  87.802  33.484  0.00  0.00    -0.232 NA
ATOM     39  C   LIG    1      -29.730  86.598  34.051  0.00  0.00    +0.163 A 
ATOM     40  C   LIG    1      -30.293  85.342  33.949  0.00  0.00    +0.046 A 
ATOM     41  C   LIG    1      -29.471  84.526  34.759  0.00  0.00    +0.145 A 
ATOM     42  N   LIG    1      -28.477  85.193  35.346  0.00  0.00    -0.173 NA
ATOM     43  N   LIG    1      -28.640  86.467  34.918  0.00  0.00    -0.221 N 
ATOM     44  C   LIG    1      -27.866  87.575  35.248  0.00  0.00    +0.116 A 
ATOM     45  C   LIG    1      -28.148  88.779  34.734  0.00  0.00    +0.043 A 
ENDBRANCH  30  40
ENDBRANCH  29  33
ENDBRANCH   1  29
TORSDOF 9
ENDMDL
MODEL 9
REMARK VINA RESULT:      -6.8     22.708     25.399
REMARK  Name = pdb/CHEMBL3974941.pdb
REMARK                            x       y       z     vdW  Elec       q    Type
REMARK                         _______ _______ _______ _____ _____    ______ ____
ROOT
ATOM      1  C   LIG    1      -32.908  89.256  29.290  0.00  0.00    +0.323 A 
ATOM      2  N   LIG    1      -32.153  90.344  29.520  0.00  0.00    -0.201 NA
ATOM      3  C   LIG    1      -32.305  91.378  28.642  0.00  0.00    +0.145 A 
ATOM      4  C   LIG    1      -33.156  91.384  27.541  0.00  0.00    +0.105 A 
ATOM      5  C   LIG    1      -33.895  90.220  27.460  0.00  0.00    +0.145 A 
ATOM      6  N   LIG    1      -33.819  89.180  28.312  0.00  0.00    -0.201 NA
ENDROOT
BRANCH   4   7
ATOM      7  N   LIG    1      -33.293  92.513  26.681  0.00  0.00    -0.196 NA
ATOM      8  C   LIG    1      -32.688  92.562  25.555  0.00  0.00    +0.285 C 
BRANCH   8   9
ATOM      9  N   LIG    1      -32.822  93.563  24.606  0.00  0.00    -0.269 N 
ATOM     10  H   LIG    1      -33.787  93.824  24.411  0.00  0.00    +0.157 HD
BRANCH   9  11
ATOM     11  C   LIG    1      -31.888  94.587  24.312  0.00  0.00    +0.043 A 
ATOM     12  C   LIG    1      -31.441  94.869  22.992  0.00  0.00    +0.005 A 
ATOM     13  C   LIG    1      -30.449  95.876  22.864  0.00  0.00    +0.011 A 
ATOM     14  C   LIG    1      -29.919  96.570  23.959  0.00  0.00    +0.013 A 
ATOM     15  C   LIG    1      -30.365  96.297  25.247  0.00  0.00    +0.057 A 
ATOM     16  C   LIG    1      -31.359  95.328  25.400  0.00  0.00    +0.036 A 
BRANCH  12  17
ATOM     17  C   LIG    1      -31.885  94.154  21.753  0.00  0.00    +0.002 A 
ATOM     18  C   LIG    1      -33.107  93.488  21.633  0.00  0.00    +0.119 A 
ATOM     19  N   LIG    1      -33.522  92.782  20.546  0.00  0.00    -0.263 NA
ATOM     20  C   LIG    1      -32.670  92.694  19.509  0.00  0.00    +0.111 A 
ATOM     21  C   LIG    1      -31.429  93.297  19.502  0.00  0.00    +0.020 A 
ATOM     22  C   LIG    1      -31.049  94.040  20.623  0.00  0.00    +0.011 A 
ENDBRANCH  12  17
BRANCH  15  23
ATOM     23  C   LIG    1      -29.788  97.017  26.441  0.00  0.00    +0.417 C 
ATOM     24  F   LIG    1      -29.543  96.179  27.483  0.00  0.00    -0.166 F 
ATOM     25  F   LIG    1      -30.623  97.981  26.917  0.00  0.00    -0.166 F 
ATOM     26  F   LIG    1      -28.609  97.646  26.176  0.00  0.00    -0.166 F 
ENDBRANCH  15  23
ENDBRANCH   9  11
ENDBRANCH   8   9
BRANCH   8  27
ATOM     27  O   LIG    1      -31.861  91.570  25.154  0.00  0.00    -0.481 OA
ATOM     28  H   LIG    1      -31.849  90.830  25.785  0.00  0.00    +0.295 HD
ENDBRANCH   8  27
ENDBRANCH   4   7
BRANCH   1  29
ATOM     29  O   LIG    1      -32.747  88.183  30.164  0.00  0.00    -0.424 OA
BRANCH  29  33
ATOM     30  C   LIG    1      -29.595  88.095  32.971  0.00  0.00    -0.013 A 
ATOM     31  C   LIG    1      -29.314  87.906  31.620  0.00  0.00    +0.012 A 
ATOM     32  C   LIG    1      -30.331  87.955  30.667  0.00  0.00    +0.047 A 
ATOM     33  C   LIG    1      -31.668  88.138  31.029  0.00  0.00    +0.132 A 
ATOM     34  C   LIG    1      -31.953  88.351  32.382  0.00  0.00    +0.047 A 
ATOM     35  C   LIG    1      -30.925  88.339  33.341  0.00  0.00    +0.012 A 
BRANCH  30  40
ATOM     36  C   LIG    1      -27.938  92.632  35.507  0.00  0.00    +0.066 C 
ATOM     37  C   LIG    1      -27.601  91.164  35.472  0.00  0.00    +0.042 A 
ATOM     38  N   LIG    1      -28.289  90.414  34.663  0.00  0.00    -0.232 NA
ATOM     39  C   LIG    1      -27.983  89.079  34.643  0.00  0.00    +0.163 A 
ATOM     40  C   LIG    1      -28.509  88.018  33.934  0.00  0.00    +0.046 A 
ATOM     41  C   LIG    1      -27.739  86.907  34.348  0.00  0.00    +0.145 A 
ATOM     42  N   LIG    1      -26.811  87.215  35.254  0.00  0.00    -0.173 NA
ATOM     43  N   LIG    1      -26.966  88.547  35.442  0.00  0.00    -0.221 N 
ATOM     44  C   LIG    1      -26.244  89.368  36.303  0.00  0.00    +0.116 A 
ATOM     45  C   LIG    1      -26.509  90.679  36.373  0.00  0.00    +0.043 A 
ENDBRANCH  30  40
ENDBRANCH  29  33
ENDBRANCH   1  29
TORSDOF 9
ENDMDL
