MODEL 1
REMARK VINA RESULT:      -6.8      0.000      0.000
REMARK  Name = pdb/CHEMBL3942676.pdb
REMARK                            x       y       z     vdW  Elec       q    Type
REMARK                         _______ _______ _______ _____ _____    ______ ____
ROOT
ATOM      1  C   LIG    1      -37.220  79.768  27.585  0.00  0.00    +0.149 A 
ATOM      2  N   LIG    1      -36.110  79.025  27.708  0.00  0.00    -0.160 NA
ATOM      3  N   LIG    1      -36.524  77.741  27.498  0.00  0.00    -0.218 N 
ATOM      4  C   LIG    1      -37.867  77.696  27.093  0.00  0.00    +0.129 A 
ATOM      5  C   LIG    1      -38.339  78.969  27.294  0.00  0.00    +0.078 A 
ENDROOT
BRANCH   3   6
ATOM      6  C   LIG    1      -35.597  76.675  27.648  0.00  0.00    +0.067 A 
ATOM      7  C   LIG    1      -36.044  75.427  28.117  0.00  0.00    +0.028 A 
ATOM      8  C   LIG    1      -35.131  74.395  28.340  0.00  0.00    +0.002 A 
ATOM      9  C   LIG    1      -33.781  74.586  28.050  0.00  0.00    +0.000 A 
ATOM     10  C   LIG    1      -33.346  75.799  27.517  0.00  0.00    +0.002 A 
ATOM     11  C   LIG    1      -34.250  76.843  27.312  0.00  0.00    +0.028 A 
ENDBRANCH   3   6
BRANCH   4  12
ATOM     12  N   LIG    1      -38.577  76.634  26.491  0.00  0.00    -0.266 N 
ATOM     13  H   LIG    1      -39.288  76.166  27.030  0.00  0.00    +0.157 HD
ATOM     14  C   LIG    1      -38.228  76.129  25.178  0.00  0.00    +0.251 C 
ATOM     15  O   LIG    1      -37.362  76.666  24.527  0.00  0.00    -0.270 OA
BRANCH  14  16
ATOM     16  C   LIG    1      -38.874  74.908  24.634  0.00  0.00    +0.056 A 
ATOM     17  C   LIG    1      -40.105  74.856  23.997  0.00  0.00    +0.054 A 
ATOM     18 CL   LIG    1      -40.912  76.240  23.362  0.00  0.00    -0.083 Cl
ATOM     19  C   LIG    1      -40.732  73.620  23.830  0.00  0.00    +0.041 A 
ATOM     20  C   LIG    1      -40.083  72.418  24.162  0.00  0.00    +0.052 A 
ATOM     21 CL   LIG    1      -41.064  70.997  24.088  0.00  0.00    -0.083 Cl
ATOM     22  C   LIG    1      -38.749  72.417  24.597  0.00  0.00    +0.022 A 
ATOM     23  C   LIG    1      -38.196  73.690  24.880  0.00  0.00    +0.026 A 
BRANCH  22  24
ATOM     24  C   LIG    1      -37.890  71.219  24.796  0.00  0.00    +0.107 A 
ATOM     25  C   LIG    1      -37.746  70.178  23.876  0.00  0.00    +0.149 A 
ATOM     26  F   LIG    1      -38.390  70.173  22.701  0.00  0.00    -0.203 F 
ATOM     27  C   LIG    1      -36.847  69.145  24.126  0.00  0.00    +0.042 A 
ATOM     28  C   LIG    1      -36.059  69.190  25.268  0.00  0.00    +0.023 A 
ATOM     29  C   LIG    1      -36.220  70.267  26.122  0.00  0.00    +0.111 A 
ATOM     30  N   LIG    1      -37.115  71.263  25.919  0.00  0.00    -0.252 NA
ENDBRANCH  22  24
ENDBRANCH  14  16
ENDBRANCH   4  12
BRANCH   1  31
ATOM     31  C   LIG    1      -37.167  81.226  27.631  0.00  0.00    +0.236 C 
ATOM     32  N   LIG    1      -36.079  81.864  27.371  0.00  0.00    -0.246 NA
BRANCH  31  33
ATOM     33  O   LIG    1      -38.314  81.809  28.043  0.00  0.00    -0.491 OA
ATOM     34  H   LIG    1      -38.834  81.163  28.558  0.00  0.00    +0.294 HD
ENDBRANCH  31  33
BRANCH  32  35
ATOM     35  C   LIG    1      -36.112  83.307  27.644  0.00  0.00    +0.180 C 
BRANCH  35  36
ATOM     36  C   LIG    1      -36.238  84.123  26.383  0.00  0.00    +0.086 C 
ATOM     37  C   LIG    1      -36.550  85.586  26.540  0.00  0.00    +0.039 C 
ATOM     38  C   LIG    1      -37.559  84.667  25.906  0.00  0.00    +0.039 C 
BRANCH  36  39
ATOM     39  O   LIG    1      -35.319  83.794  25.331  0.00  0.00    -0.387 OA
ATOM     40  H   LIG    1      -35.665  83.040  24.822  0.00  0.00    +0.210 HD
ENDBRANCH  36  39
ENDBRANCH  35  36
ENDBRANCH  32  35
ENDBRANCH   1  31
TORSDOF 9
ENDMDL
MODEL 2
REMARK VINA RESULT:      -6.7     10.324     14.946
REMARK  Name = pdb/CHEMBL3942676.pdb
REMARK                            x       y       z     vdW  Elec       q    Type
REMARK                         _______ _______ _______ _____ _____    ______ ____
ROOT
ATOM      1  C   LIG    1      -28.037  65.672  19.304  0.00  0.00    +0.149 A 
ATOM      2  N   LIG    1      -27.760  66.947  18.987  0.00  0.00    -0.160 NA
ATOM      3  N   LIG    1      -28.980  67.548  18.857  0.00  0.00    -0.218 N 
ATOM      4  C   LIG    1      -30.018  66.686  19.242  0.00  0.00    +0.129 A 
ATOM      5  C   LIG    1      -29.423  65.457  19.382  0.00  0.00    +0.078 A 
ENDROOT
BRANCH   3   6
ATOM      6  C   LIG    1      -29.049  68.901  18.431  0.00  0.00    +0.067 A 
ATOM      7  C   LIG    1      -29.662  69.212  17.204  0.00  0.00    +0.028 A 
ATOM      8  C   LIG    1      -29.670  70.528  16.739  0.00  0.00    +0.002 A 
ATOM      9  C   LIG    1      -29.113  71.542  17.515  0.00  0.00    +0.000 A 
ATOM     10  C   LIG    1      -28.569  71.248  18.764  0.00  0.00    +0.002 A 
ATOM     11  C   LIG    1      -28.537  69.931  19.226  0.00  0.00    +0.028 A 
ENDBRANCH   3   6
BRANCH   4  12
ATOM     12  N   LIG    1      -31.361  66.998  19.550  0.00  0.00    -0.266 N 
ATOM     13  H   LIG    1      -31.584  67.940  19.827  0.00  0.00    +0.157 HD
ATOM     14  C   LIG    1      -32.390  65.978  19.593  0.00  0.00    +0.251 C 
ATOM     15  O   LIG    1      -32.135  64.837  19.285  0.00  0.00    -0.270 OA
BRANCH  14  16
ATOM     16  C   LIG    1      -33.757  66.294  20.080  0.00  0.00    +0.056 A 
ATOM     17  C   LIG    1      -34.894  66.406  19.293  0.00  0.00    +0.054 A 
ATOM     18 CL   LIG    1      -35.003  65.802  17.683  0.00  0.00    -0.083 Cl
ATOM     19  C   LIG    1      -36.030  67.019  19.822  0.00  0.00    +0.041 A 
ATOM     20  C   LIG    1      -36.097  67.395  21.175  0.00  0.00    +0.052 A 
ATOM     21 CL   LIG    1      -37.485  68.321  21.624  0.00  0.00    -0.083 Cl
ATOM     22  C   LIG    1      -35.050  67.091  22.059  0.00  0.00    +0.022 A 
ATOM     23  C   LIG    1      -33.867  66.593  21.459  0.00  0.00    +0.026 A 
BRANCH  22  24
ATOM     24  C   LIG    1      -35.071  67.257  23.537  0.00  0.00    +0.107 A 
ATOM     25  C   LIG    1      -35.233  66.217  24.455  0.00  0.00    +0.149 A 
ATOM     26  F   LIG    1      -35.390  64.944  24.067  0.00  0.00    -0.203 F 
ATOM     27  C   LIG    1      -35.150  66.472  25.821  0.00  0.00    +0.042 A 
ATOM     28  C   LIG    1      -34.848  67.756  26.256  0.00  0.00    +0.023 A 
ATOM     29  C   LIG    1      -34.659  68.735  25.298  0.00  0.00    +0.111 A 
ATOM     30  N   LIG    1      -34.774  68.518  23.966  0.00  0.00    -0.252 NA
ENDBRANCH  22  24
ENDBRANCH  14  16
ENDBRANCH   4  12
BRANCH   1  31
ATOM     31  C   LIG    1      -26.978  64.726  19.638  0.00  0.00    +0.236 C 
ATOM     32  N   LIG    1      -25.822  64.789  19.075  0.00  0.00    -0.246 NA
BRANCH  31  33
ATOM     33  O   LIG    1      -27.353  63.760  20.507  0.00  0.00    -0.491 OA
ATOM     34  H   LIG    1      -27.683  64.177  21.325  0.00  0.00    +0.294 HD
ENDBRANCH  31  33
BRANCH  32  35
ATOM     35  C   LIG    1      -24.919  63.665  19.356  0.00  0.00    +0.180 C 
BRANCH  35  36
ATOM     36  C   LIG    1      -23.950  63.976  20.468  0.00  0.00    +0.086 C 
ATOM     37  C   LIG    1      -22.841  64.946  20.160  0.00  0.00    +0.039 C 
ATOM     38  C   LIG    1      -22.521  63.503  20.444  0.00  0.00    +0.039 C 
BRANCH  36  39
ATOM     39  O   LIG    1      -24.518  64.080  21.782  0.00  0.00    -0.387 OA
ATOM     40  H   LIG    1      -25.487  64.130  21.712  0.00  0.00    +0.210 HD
ENDBRANCH  36  39
ENDBRANCH  35  36
ENDBRANCH  32  35
ENDBRANCH   1  31
TORSDOF 9
ENDMDL
MODEL 3
REMARK VINA RESULT:      -6.6      4.293     10.036
REMARK  Name = pdb/CHEMBL3942676.pdb
REMARK                            x       y       z     vdW  Elec       q    Type
REMARK                         _______ _______ _______ _____ _____    ______ ____
ROOT
ATOM      1  C   LIG    1      -38.077  70.955  24.295  0.00  0.00    +0.149 A 
ATOM      2  N   LIG    1      -39.126  71.564  23.721  0.00  0.00    -0.160 NA
ATOM      3  N   LIG    1      -39.144  72.816  24.266  0.00  0.00    -0.218 N 
ATOM      4  C   LIG    1      -38.015  73.042  25.068  0.00  0.00    +0.129 A 
ATOM      5  C   LIG    1      -37.423  71.810  25.198  0.00  0.00    +0.078 A 
ENDROOT
BRANCH   3   6
ATOM      6  C   LIG    1      -40.201  73.706  23.936  0.00  0.00    +0.067 A 
ATOM      7  C   LIG    1      -41.421  73.189  23.463  0.00  0.00    +0.028 A 
ATOM      8  C   LIG    1      -42.440  74.056  23.065  0.00  0.00    +0.002 A 
ATOM      9  C   LIG    1      -42.267  75.433  23.182  0.00  0.00    +0.000 A 
ATOM     10  C   LIG    1      -41.086  75.946  23.718  0.00  0.00    +0.002 A 
ATOM     11  C   LIG    1      -40.054  75.087  24.098  0.00  0.00    +0.028 A 
ENDBRANCH   3   6
BRANCH   4  12
ATOM     12  N   LIG    1      -37.499  74.265  25.550  0.00  0.00    -0.266 N 
ATOM     13  H   LIG    1      -36.882  74.794  24.954  0.00  0.00    +0.157 HD
ATOM     14  C   LIG    1      -37.735  74.711  26.908  0.00  0.00    +0.251 C 
ATOM     15  O   LIG    1      -38.455  74.077  27.644  0.00  0.00    -0.270 OA
BRANCH  14  16
ATOM     16  C   LIG    1      -37.049  75.913  27.447  0.00  0.00    +0.056 A 
ATOM     17  C   LIG    1      -37.510  77.218  27.359  0.00  0.00    +0.054 A 
ATOM     18 CL   LIG    1      -39.138  77.634  26.977  0.00  0.00    -0.083 Cl
ATOM     19  C   LIG    1      -36.626  78.269  27.612  0.00  0.00    +0.041 A 
ATOM     20  C   LIG    1      -35.326  78.034  28.092  0.00  0.00    +0.052 A 
ATOM     21 CL   LIG    1      -34.295  79.419  28.161  0.00  0.00    -0.083 Cl
ATOM     22  C   LIG    1      -34.900  76.735  28.411  0.00  0.00    +0.022 A 
ATOM     23  C   LIG    1      -35.772  75.691  28.015  0.00  0.00    +0.026 A 
BRANCH  22  24
ATOM     24  C   LIG    1      -33.634  76.370  29.098  0.00  0.00    +0.107 A 
ATOM     25  C   LIG    1      -32.358  76.500  28.545  0.00  0.00    +0.149 A 
ATOM     26  F   LIG    1      -32.165  76.980  27.308  0.00  0.00    -0.203 F 
ATOM     27  C   LIG    1      -31.232  76.209  29.309  0.00  0.00    +0.042 A 
ATOM     28  C   LIG    1      -31.388  75.844  30.639  0.00  0.00    +0.023 A 
ATOM     29  C   LIG    1      -32.675  75.771  31.142  0.00  0.00    +0.111 A 
ATOM     30  N   LIG    1      -33.786  76.011  30.406  0.00  0.00    -0.252 NA
ENDBRANCH  22  24
ENDBRANCH  14  16
ENDBRANCH   4  12
BRANCH   1  31
ATOM     31  C   LIG    1      -37.655  69.621  23.883  0.00  0.00    +0.236 C 
ATOM     32  N   LIG    1      -36.840  69.449  22.902  0.00  0.00    -0.246 NA
BRANCH  31  33
ATOM     33  O   LIG    1      -38.257  68.616  24.560  0.00  0.00    -0.491 OA
ATOM     34  H   LIG    1      -39.035  68.970  25.031  0.00  0.00    +0.294 HD
ENDBRANCH  31  33
BRANCH  32  35
ATOM     35  C   LIG    1      -36.654  68.058  22.468  0.00  0.00    +0.180 C 
BRANCH  35  36
ATOM     36  C   LIG    1      -35.307  67.512  22.867  0.00  0.00    +0.086 C 
ATOM     37  C   LIG    1      -34.458  66.916  21.776  0.00  0.00    +0.039 C 
ATOM     38  C   LIG    1      -35.006  66.037  22.868  0.00  0.00    +0.039 C 
BRANCH  36  39
ATOM     39  O   LIG    1      -34.599  68.262  23.865  0.00  0.00    -0.387 OA
ATOM     40  H   LIG    1      -34.002  68.895  23.430  0.00  0.00    +0.210 HD
ENDBRANCH  36  39
ENDBRANCH  35  36
ENDBRANCH  32  35
ENDBRANCH   1  31
TORSDOF 9
ENDMDL
MODEL 4
REMARK VINA RESULT:      -6.6     17.865     19.214
REMARK  Name = pdb/CHEMBL3942676.pdb
REMARK                            x       y       z     vdW  Elec       q    Type
REMARK                         _______ _______ _______ _____ _____    ______ ____
ROOT
ATOM      1  C   LIG    1      -22.124  82.817  15.800  0.00  0.00    +0.149 A 
ATOM      2  N   LIG    1      -20.861  82.374  15.705  0.00  0.00    -0.160 NA
ATOM      3  N   LIG    1      -20.954  81.018  15.842  0.00  0.00    -0.218 N 
ATOM      4  C   LIG    1      -22.294  80.598  15.871  0.00  0.00    +0.129 A 
ATOM      5  C   LIG    1      -23.023  81.755  15.993  0.00  0.00    +0.078 A 
ENDROOT
BRANCH   3   6
ATOM      6  C   LIG    1      -19.769  80.237  15.880  0.00  0.00    +0.067 A 
ATOM      7  C   LIG    1      -18.651  80.634  15.124  0.00  0.00    +0.028 A 
ATOM      8  C   LIG    1      -17.508  79.835  15.094  0.00  0.00    +0.002 A 
ATOM      9  C   LIG    1      -17.455  78.667  15.852  0.00  0.00    +0.000 A 
ATOM     10  C   LIG    1      -18.534  78.308  16.658  0.00  0.00    +0.002 A 
ATOM     11  C   LIG    1      -19.690  79.090  16.677  0.00  0.00    +0.028 A 
ENDBRANCH   3   6
BRANCH   4  12
ATOM     12  N   LIG    1      -22.820  79.300  15.693  0.00  0.00    -0.266 N 
ATOM     13  H   LIG    1      -23.234  78.837  16.486  0.00  0.00    +0.157 HD
ATOM     14  C   LIG    1      -22.673  78.582  14.443  0.00  0.00    +0.251 C 
ATOM     15  O   LIG    1      -22.159  79.115  13.487  0.00  0.00    -0.270 OA
BRANCH  14  16
ATOM     16  C   LIG    1      -23.083  77.160  14.327  0.00  0.00    +0.056 A 
ATOM     17  C   LIG    1      -24.111  76.674  13.532  0.00  0.00    +0.054 A 
ATOM     18 CL   LIG    1      -24.820  77.564  12.238  0.00  0.00    -0.083 Cl
ATOM     19  C   LIG    1      -24.598  75.386  13.762  0.00  0.00    +0.041 A 
ATOM     20  C   LIG    1      -23.977  74.521  14.681  0.00  0.00    +0.052 A 
ATOM     21 CL   LIG    1      -24.817  73.044  14.998  0.00  0.00    -0.083 Cl
ATOM     22  C   LIG    1      -22.796  74.897  15.338  0.00  0.00    +0.022 A 
ATOM     23  C   LIG    1      -22.413  76.252  15.182  0.00  0.00    +0.026 A 
BRANCH  22  24
ATOM     24  C   LIG    1      -21.941  74.019  16.180  0.00  0.00    +0.107 A 
ATOM     25  C   LIG    1      -22.188  73.709  17.520  0.00  0.00    +0.149 A 
ATOM     26  F   LIG    1      -23.250  74.195  18.177  0.00  0.00    -0.203 F 
ATOM     27  C   LIG    1      -21.369  72.805  18.189  0.00  0.00    +0.042 A 
ATOM     28  C   LIG    1      -20.343  72.175  17.499  0.00  0.00    +0.023 A 
ATOM     29  C   LIG    1      -20.172  72.493  16.164  0.00  0.00    +0.111 A 
ATOM     30  N   LIG    1      -20.932  73.399  15.502  0.00  0.00    -0.252 NA
ENDBRANCH  22  24
ENDBRANCH  14  16
ENDBRANCH   4  12
BRANCH   1  31
ATOM     31  C   LIG    1      -22.453  84.222  15.588  0.00  0.00    +0.236 C 
ATOM     32  N   LIG    1      -22.250  84.793  14.453  0.00  0.00    -0.246 NA
BRANCH  31  33
ATOM     33  O   LIG    1      -22.896  84.860  16.695  0.00  0.00    -0.491 OA
ATOM     34  H   LIG    1      -22.458  84.480  17.480  0.00  0.00    +0.294 HD
ENDBRANCH  31  33
BRANCH  32  35
ATOM     35  C   LIG    1      -22.440  86.250  14.433  0.00  0.00    +0.180 C 
BRANCH  35  36
ATOM     36  C   LIG    1      -21.186  86.993  14.817  0.00  0.00    +0.086 C 
ATOM     37  C   LIG    1      -20.683  88.034  13.854  0.00  0.00    +0.039 C 
ATOM     38  C   LIG    1      -19.878  86.787  14.101  0.00  0.00    +0.039 C 
BRANCH  36  39
ATOM     39  O   LIG    1      -21.054  87.320  16.208  0.00  0.00    -0.387 OA
ATOM     40  H   LIG    1      -20.450  86.687  16.633  0.00  0.00    +0.210 HD
ENDBRANCH  36  39
ENDBRANCH  35  36
ENDBRANCH  32  35
ENDBRANCH   1  31
TORSDOF 9
ENDMDL
MODEL 5
REMARK VINA RESULT:      -6.5     15.846     18.562
REMARK  Name = pdb/CHEMBL3942676.pdb
REMARK                            x       y       z     vdW  Elec       q    Type
REMARK                         _______ _______ _______ _____ _____    ______ ____
ROOT
ATOM      1  C   LIG    1      -25.217  83.058  37.486  0.00  0.00    +0.149 A 
ATOM      2  N   LIG    1      -24.135  83.576  38.087  0.00  0.00    -0.160 NA
ATOM      3  N   LIG    1      -23.180  82.604  37.986  0.00  0.00    -0.218 N 
ATOM      4  C   LIG    1      -23.619  81.537  37.187  0.00  0.00    +0.129 A 
ATOM      5  C   LIG    1      -24.959  81.766  36.997  0.00  0.00    +0.078 A 
ENDROOT
BRANCH   3   6
ATOM      6  C   LIG    1      -21.919  82.797  38.611  0.00  0.00    +0.067 A 
ATOM      7  C   LIG    1      -21.727  82.361  39.934  0.00  0.00    +0.028 A 
ATOM      8  C   LIG    1      -20.517  82.612  40.584  0.00  0.00    +0.002 A 
ATOM      9  C   LIG    1      -19.482  83.251  39.905  0.00  0.00    +0.000 A 
ATOM     10  C   LIG    1      -19.646  83.620  38.570  0.00  0.00    +0.002 A 
ATOM     11  C   LIG    1      -20.860  83.392  37.920  0.00  0.00    +0.028 A 
ENDBRANCH   3   6
BRANCH   4  12
ATOM     12  N   LIG    1      -22.861  80.508  36.587  0.00  0.00    -0.266 N 
ATOM     13  H   LIG    1      -22.857  79.599  37.021  0.00  0.00    +0.157 HD
ATOM     14  C   LIG    1      -22.004  80.757  35.445  0.00  0.00    +0.251 C 
ATOM     15  O   LIG    1      -21.980  81.848  34.924  0.00  0.00    -0.270 OA
BRANCH  14  16
ATOM     16  C   LIG    1      -21.089  79.706  34.933  0.00  0.00    +0.056 A 
ATOM     17  C   LIG    1      -19.799  79.463  35.382  0.00  0.00    +0.054 A 
ATOM     18 CL   LIG    1      -19.179  80.060  36.875  0.00  0.00    -0.083 Cl
ATOM     19  C   LIG    1      -18.946  78.677  34.606  0.00  0.00    +0.041 A 
ATOM     20  C   LIG    1      -19.407  78.009  33.458  0.00  0.00    +0.052 A 
ATOM     21 CL   LIG    1      -18.188  77.245  32.500  0.00  0.00    -0.083 Cl
ATOM     22  C   LIG    1      -20.763  78.047  33.099  0.00  0.00    +0.022 A 
ATOM     23  C   LIG    1      -21.564  78.959  33.829  0.00  0.00    +0.026 A 
BRANCH  22  24
ATOM     24  C   LIG    1      -21.413  77.240  32.032  0.00  0.00    +0.107 A 
ATOM     25  C   LIG    1      -21.226  77.432  30.660  0.00  0.00    +0.149 A 
ATOM     26  F   LIG    1      -20.420  78.389  30.180  0.00  0.00    -0.203 F 
ATOM     27  C   LIG    1      -21.815  76.562  29.748  0.00  0.00    +0.042 A 
ATOM     28  C   LIG    1      -22.541  75.475  30.214  0.00  0.00    +0.023 A 
ATOM     29  C   LIG    1      -22.658  75.316  31.583  0.00  0.00    +0.111 A 
ATOM     30  N   LIG    1      -22.126  76.171  32.489  0.00  0.00    -0.252 NA
ENDBRANCH  22  24
ENDBRANCH  14  16
ENDBRANCH   4  12
BRANCH   1  31
ATOM     31  C   LIG    1      -26.427  83.850  37.288  0.00  0.00    +0.236 C 
ATOM     32  N   LIG    1      -26.498  84.744  36.365  0.00  0.00    -0.246 NA
BRANCH  31  33
ATOM     33  O   LIG    1      -27.398  83.613  38.198  0.00  0.00    -0.491 OA
ATOM     34  H   LIG    1      -27.679  84.460  38.593  0.00  0.00    +0.294 HD
ENDBRANCH  31  33
BRANCH  32  35
ATOM     35  C   LIG    1      -27.692  85.598  36.402  0.00  0.00    +0.180 C 
BRANCH  35  36
ATOM     36  C   LIG    1      -28.251  85.857  35.026  0.00  0.00    +0.086 C 
ATOM     37  C   LIG    1      -27.650  86.994  34.244  0.00  0.00    +0.039 C 
ATOM     38  C   LIG    1      -29.079  87.073  34.710  0.00  0.00    +0.039 C 
BRANCH  36  39
ATOM     39  O   LIG    1      -28.595  84.692  34.261  0.00  0.00    -0.387 OA
ATOM     40  H   LIG    1      -29.552  84.687  34.092  0.00  0.00    +0.210 HD
ENDBRANCH  36  39
ENDBRANCH  35  36
ENDBRANCH  32  35
ENDBRANCH   1  31
TORSDOF 9
ENDMDL
MODEL 6
REMARK VINA RESULT:      -6.4      5.451     11.021
REMARK  Name = pdb/CHEMBL3942676.pdb
REMARK                            x       y       z     vdW  Elec       q    Type
REMARK                         _______ _______ _______ _____ _____    ______ ____
ROOT
ATOM      1  C   LIG    1      -37.207  68.456  23.426  0.00  0.00    +0.149 A 
ATOM      2  N   LIG    1      -37.798  69.631  23.156  0.00  0.00    -0.160 NA
ATOM      3  N   LIG    1      -37.726  70.335  24.324  0.00  0.00    -0.218 N 
ATOM      4  C   LIG    1      -36.953  69.660  25.281  0.00  0.00    +0.129 A 
ATOM      5  C   LIG    1      -36.754  68.408  24.755  0.00  0.00    +0.078 A 
ENDROOT
BRANCH   3   6
ATOM      6  C   LIG    1      -38.349  71.608  24.410  0.00  0.00    +0.067 A 
ATOM      7  C   LIG    1      -39.686  71.756  23.999  0.00  0.00    +0.028 A 
ATOM      8  C   LIG    1      -40.285  73.016  24.008  0.00  0.00    +0.002 A 
ATOM      9  C   LIG    1      -39.575  74.121  24.473  0.00  0.00    +0.000 A 
ATOM     10  C   LIG    1      -38.273  73.965  24.949  0.00  0.00    +0.002 A 
ATOM     11  C   LIG    1      -37.659  72.712  24.922  0.00  0.00    +0.028 A 
ENDBRANCH   3   6
BRANCH   4  12
ATOM     12  N   LIG    1      -36.383  70.159  26.473  0.00  0.00    -0.266 N 
ATOM     13  H   LIG    1      -36.958  70.202  27.299  0.00  0.00    +0.157 HD
ATOM     14  C   LIG    1      -35.045  70.714  26.505  0.00  0.00    +0.251 C 
ATOM     15  O   LIG    1      -34.349  70.690  25.517  0.00  0.00    -0.270 OA
BRANCH  14  16
ATOM     16  C   LIG    1      -34.526  71.385  27.724  0.00  0.00    +0.056 A 
ATOM     17  C   LIG    1      -34.328  70.784  28.959  0.00  0.00    +0.054 A 
ATOM     18 CL   LIG    1      -34.258  69.079  29.191  0.00  0.00    -0.083 Cl
ATOM     19  C   LIG    1      -34.150  71.589  30.086  0.00  0.00    +0.041 A 
ATOM     20  C   LIG    1      -34.025  72.985  29.976  0.00  0.00    +0.052 A 
ATOM     21 CL   LIG    1      -34.016  73.851  31.472  0.00  0.00    -0.083 Cl
ATOM     22  C   LIG    1      -33.993  73.609  28.720  0.00  0.00    +0.022 A 
ATOM     23  C   LIG    1      -34.309  72.780  27.616  0.00  0.00    +0.026 A 
BRANCH  22  24
ATOM     24  C   LIG    1      -33.678  75.038  28.456  0.00  0.00    +0.107 A 
ATOM     25  C   LIG    1      -32.479  75.668  28.799  0.00  0.00    +0.149 A 
ATOM     26  F   LIG    1      -31.484  75.015  29.415  0.00  0.00    -0.203 F 
ATOM     27  C   LIG    1      -32.253  76.990  28.427  0.00  0.00    +0.042 A 
ATOM     28  C   LIG    1      -33.205  77.654  27.665  0.00  0.00    +0.023 A 
ATOM     29  C   LIG    1      -34.354  76.965  27.322  0.00  0.00    +0.111 A 
ATOM     30  N   LIG    1      -34.612  75.692  27.706  0.00  0.00    -0.252 NA
ENDBRANCH  22  24
ENDBRANCH  14  16
ENDBRANCH   4  12
BRANCH   1  31
ATOM     31  C   LIG    1      -36.985  67.461  22.382  0.00  0.00    +0.236 C 
ATOM     32  N   LIG    1      -36.479  67.786  21.244  0.00  0.00    -0.246 NA
BRANCH  31  33
ATOM     33  O   LIG    1      -37.429  66.223  22.694  0.00  0.00    -0.491 OA
ATOM     34  H   LIG    1      -36.974  65.914  23.500  0.00  0.00    +0.294 HD
ENDBRANCH  31  33
BRANCH  32  35
ATOM     35  C   LIG    1      -36.492  66.732  20.221  0.00  0.00    +0.180 C 
BRANCH  35  36
ATOM     36  C   LIG    1      -36.882  67.259  18.864  0.00  0.00    +0.086 C 
ATOM     37  C   LIG    1      -37.272  66.248  17.821  0.00  0.00    +0.039 C 
ATOM     38  C   LIG    1      -36.019  67.063  17.647  0.00  0.00    +0.039 C 
BRANCH  36  39
ATOM     39  O   LIG    1      -37.641  68.477  18.861  0.00  0.00    -0.387 OA
ATOM     40  H   LIG    1      -37.867  68.720  19.776  0.00  0.00    +0.210 HD
ENDBRANCH  36  39
ENDBRANCH  35  36
ENDBRANCH  32  35
ENDBRANCH   1  31
TORSDOF 9
ENDMDL
MODEL 7
REMARK VINA RESULT:      -6.4      3.077      5.430
REMARK  Name = pdb/CHEMBL3942676.pdb
REMARK                            x       y       z     vdW  Elec       q    Type
REMARK                         _______ _______ _______ _____ _____    ______ ____
ROOT
ATOM      1  C   LIG    1      -38.138  77.178  25.847  0.00  0.00    +0.149 A 
ATOM      2  N   LIG    1      -39.367  76.872  25.405  0.00  0.00    -0.160 NA
ATOM      3  N   LIG    1      -39.223  75.668  24.776  0.00  0.00    -0.218 N 
ATOM      4  C   LIG    1      -37.931  75.148  24.957  0.00  0.00    +0.129 A 
ATOM      5  C   LIG    1      -37.211  76.178  25.510  0.00  0.00    +0.078 A 
ENDROOT
BRANCH   3   6
ATOM      6  C   LIG    1      -40.334  75.093  24.105  0.00  0.00    +0.067 A 
ATOM      7  C   LIG    1      -41.340  75.928  23.587  0.00  0.00    +0.028 A 
ATOM      8  C   LIG    1      -42.474  75.372  22.993  0.00  0.00    +0.002 A 
ATOM      9  C   LIG    1      -42.586  73.989  22.869  0.00  0.00    +0.000 A 
ATOM     10  C   LIG    1      -41.558  73.161  23.317  0.00  0.00    +0.002 A 
ATOM     11  C   LIG    1      -40.431  73.709  23.933  0.00  0.00    +0.028 A 
ENDBRANCH   3   6
BRANCH   4  12
ATOM     12  N   LIG    1      -37.468  73.831  24.748  0.00  0.00    -0.266 N 
ATOM     13  H   LIG    1      -37.094  73.592  23.844  0.00  0.00    +0.157 HD
ATOM     14  C   LIG    1      -37.629  72.797  25.751  0.00  0.00    +0.251 C 
ATOM     15  O   LIG    1      -38.097  73.062  26.834  0.00  0.00    -0.270 OA
BRANCH  14  16
ATOM     16  C   LIG    1      -37.289  71.383  25.451  0.00  0.00    +0.056 A 
ATOM     17  C   LIG    1      -36.270  70.650  26.040  0.00  0.00    +0.054 A 
ATOM     18 CL   LIG    1      -35.485  71.111  27.504  0.00  0.00    -0.083 Cl
ATOM     19  C   LIG    1      -35.855  69.459  25.443  0.00  0.00    +0.041 A 
ATOM     20  C   LIG    1      -36.541  68.914  24.343  0.00  0.00    +0.052 A 
ATOM     21 CL   LIG    1      -35.786  67.550  23.596  0.00  0.00    -0.083 Cl
ATOM     22  C   LIG    1      -37.716  69.509  23.860  0.00  0.00    +0.022 A 
ATOM     23  C   LIG    1      -38.025  70.781  24.402  0.00  0.00    +0.026 A 
BRANCH  22  24
ATOM     24  C   LIG    1      -38.635  68.939  22.840  0.00  0.00    +0.107 A 
ATOM     25  C   LIG    1      -38.367  68.876  21.470  0.00  0.00    +0.149 A 
ATOM     26  F   LIG    1      -37.224  69.340  20.947  0.00  0.00    -0.203 F 
ATOM     27  C   LIG    1      -39.261  68.242  20.612  0.00  0.00    +0.042 A 
ATOM     28  C   LIG    1      -40.388  67.626  21.138  0.00  0.00    +0.023 A 
ATOM     29  C   LIG    1      -40.579  67.688  22.507  0.00  0.00    +0.111 A 
ATOM     30  N   LIG    1      -39.744  68.333  23.356  0.00  0.00    -0.252 NA
ENDBRANCH  22  24
ENDBRANCH  14  16
ENDBRANCH   4  12
BRANCH   1  31
ATOM     31  C   LIG    1      -37.902  78.354  26.679  0.00  0.00    +0.236 C 
ATOM     32  N   LIG    1      -36.745  78.590  27.192  0.00  0.00    -0.246 NA
BRANCH  31  33
ATOM     33  O   LIG    1      -39.007  79.096  26.915  0.00  0.00    -0.491 OA
ATOM     34  H   LIG    1      -38.748  79.920  27.370  0.00  0.00    +0.294 HD
ENDBRANCH  31  33
BRANCH  32  35
ATOM     35  C   LIG    1      -36.695  79.692  28.162  0.00  0.00    +0.180 C 
BRANCH  35  36
ATOM     36  C   LIG    1      -35.359  80.390  28.162  0.00  0.00    +0.086 C 
ATOM     37  C   LIG    1      -34.131  79.522  28.174  0.00  0.00    +0.039 C 
ATOM     38  C   LIG    1      -34.451  80.387  29.363  0.00  0.00    +0.039 C 
BRANCH  36  39
ATOM     39  O   LIG    1      -35.273  81.576  27.358  0.00  0.00    -0.387 OA
ATOM     40  H   LIG    1      -34.657  82.204  27.773  0.00  0.00    +0.210 HD
ENDBRANCH  36  39
ENDBRANCH  35  36
ENDBRANCH  32  35
ENDBRANCH   1  31
TORSDOF 9
ENDMDL
MODEL 8
REMARK VINA RESULT:      -6.3     17.158     18.212
REMARK  Name = pdb/CHEMBL3942676.pdb
REMARK                            x       y       z     vdW  Elec       q    Type
REMARK                         _______ _______ _______ _____ _____    ______ ____
ROOT
ATOM      1  C   LIG    1      -23.037  81.396  15.487  0.00  0.00    +0.149 A 
ATOM      2  N   LIG    1      -22.141  80.401  15.595  0.00  0.00    -0.160 NA
ATOM      3  N   LIG    1      -22.786  79.297  15.117  0.00  0.00    -0.218 N 
ATOM      4  C   LIG    1      -24.033  79.631  14.566  0.00  0.00    +0.129 A 
ATOM      5  C   LIG    1      -24.245  80.935  14.938  0.00  0.00    +0.078 A 
ENDROOT
BRANCH   3   6
ATOM      6  C   LIG    1      -22.141  78.033  15.174  0.00  0.00    +0.067 A 
ATOM      7  C   LIG    1      -22.913  76.864  15.301  0.00  0.00    +0.028 A 
ATOM      8  C   LIG    1      -22.289  75.624  15.434  0.00  0.00    +0.002 A 
ATOM      9  C   LIG    1      -20.899  75.537  15.392  0.00  0.00    +0.000 A 
ATOM     10  C   LIG    1      -20.133  76.685  15.194  0.00  0.00    +0.002 A 
ATOM     11  C   LIG    1      -20.749  77.932  15.082  0.00  0.00    +0.028 A 
ENDBRANCH   3   6
BRANCH   4  12
ATOM     12  N   LIG    1      -24.859  78.867  13.712  0.00  0.00    -0.266 N 
ATOM     13  H   LIG    1      -24.680  78.896  12.721  0.00  0.00    +0.157 HD
ATOM     14  C   LIG    1      -26.015  78.149  14.209  0.00  0.00    +0.251 C 
ATOM     15  O   LIG    1      -26.256  78.122  15.393  0.00  0.00    -0.270 OA
BRANCH  14  16
ATOM     16  C   LIG    1      -26.964  77.491  13.276  0.00  0.00    +0.056 A 
ATOM     17  C   LIG    1      -26.962  76.148  12.928  0.00  0.00    +0.054 A 
ATOM     18 CL   LIG    1      -26.129  74.932  13.820  0.00  0.00    -0.083 Cl
ATOM     19  C   LIG    1      -27.688  75.734  11.810  0.00  0.00    +0.041 A 
ATOM     20  C   LIG    1      -28.532  76.618  11.115  0.00  0.00    +0.052 A 
ATOM     21 CL   LIG    1      -29.198  76.009   9.642  0.00  0.00    -0.083 Cl
ATOM     22  C   LIG    1      -28.736  77.928  11.574  0.00  0.00    +0.022 A 
ATOM     23  C   LIG    1      -27.884  78.348  12.625  0.00  0.00    +0.026 A 
BRANCH  22  24
ATOM     24  C   LIG    1      -29.737  78.896  11.052  0.00  0.00    +0.107 A 
ATOM     25  C   LIG    1      -29.660  79.533   9.811  0.00  0.00    +0.149 A 
ATOM     26  F   LIG    1      -28.645  79.317   8.963  0.00  0.00    -0.203 F 
ATOM     27  C   LIG    1      -30.698  80.356   9.384  0.00  0.00    +0.042 A 
ATOM     28  C   LIG    1      -31.829  80.491  10.176  0.00  0.00    +0.023 A 
ATOM     29  C   LIG    1      -31.864  79.805  11.376  0.00  0.00    +0.111 A 
ATOM     30  N   LIG    1      -30.850  79.030  11.830  0.00  0.00    -0.252 NA
ENDBRANCH  22  24
ENDBRANCH  14  16
ENDBRANCH   4  12
BRANCH   1  31
ATOM     31  C   LIG    1      -22.679  82.776  15.797  0.00  0.00    +0.236 C 
ATOM     32  N   LIG    1      -22.867  83.723  14.947  0.00  0.00    -0.246 NA
BRANCH  31  33
ATOM     33  O   LIG    1      -22.074  82.934  16.996  0.00  0.00    -0.491 OA
ATOM     34  H   LIG    1      -22.166  82.111  17.512  0.00  0.00    +0.294 HD
ENDBRANCH  31  33
BRANCH  32  35
ATOM     35  C   LIG    1      -22.286  85.023  15.308  0.00  0.00    +0.180 C 
BRANCH  35  36
ATOM     36  C   LIG    1      -22.594  86.089  14.288  0.00  0.00    +0.086 C 
ATOM     37  C   LIG    1      -21.427  86.835  13.701  0.00  0.00    +0.039 C 
ATOM     38  C   LIG    1      -22.416  87.555  14.578  0.00  0.00    +0.039 C 
BRANCH  36  39
ATOM     39  O   LIG    1      -23.662  85.791  13.376  0.00  0.00    -0.387 OA
ATOM     40  H   LIG    1      -23.384  86.008  12.470  0.00  0.00    +0.210 HD
ENDBRANCH  36  39
ENDBRANCH  35  36
ENDBRANCH  32  35
ENDBRANCH   1  31
TORSDOF 9
ENDMDL
MODEL 9
REMARK VINA RESULT:      -6.2      5.253     11.252
REMARK  Name = pdb/CHEMBL3942676.pdb
REMARK                            x       y       z     vdW  Elec       q    Type
REMARK                         _______ _______ _______ _____ _____    ______ ____
ROOT
ATOM      1  C   LIG    1      -37.060  69.097  25.237  0.00  0.00    +0.149 A 
ATOM      2  N   LIG    1      -37.857  70.090  24.811  0.00  0.00    -0.160 NA
ATOM      3  N   LIG    1      -37.339  71.221  25.376  0.00  0.00    -0.218 N 
ATOM      4  C   LIG    1      -36.127  70.955  26.032  0.00  0.00    +0.129 A 
ATOM      5  C   LIG    1      -36.035  69.586  26.064  0.00  0.00    +0.078 A 
ENDROOT
BRANCH   3   6
ATOM      6  C   LIG    1      -38.009  72.460  25.198  0.00  0.00    +0.067 A 
ATOM      7  C   LIG    1      -39.138  72.525  24.361  0.00  0.00    +0.028 A 
ATOM      8  C   LIG    1      -39.760  73.751  24.119  0.00  0.00    +0.002 A 
ATOM      9  C   LIG    1      -39.291  74.904  24.746  0.00  0.00    +0.000 A 
ATOM     10  C   LIG    1      -38.217  74.830  25.631  0.00  0.00    +0.002 A 
ATOM     11  C   LIG    1      -37.576  73.612  25.862  0.00  0.00    +0.028 A 
ENDBRANCH   3   6
BRANCH   4  12
ATOM     12  N   LIG    1      -35.135  71.863  26.465  0.00  0.00    -0.266 N 
ATOM     13  H   LIG    1      -34.459  72.191  25.795  0.00  0.00    +0.157 HD
ATOM     14  C   LIG    1      -34.998  72.235  27.859  0.00  0.00    +0.251 C 
ATOM     15  O   LIG    1      -35.789  71.833  28.681  0.00  0.00    -0.270 OA
BRANCH  14  16
ATOM     16  C   LIG    1      -33.851  73.056  28.321  0.00  0.00    +0.056 A 
ATOM     17  C   LIG    1      -32.790  72.608  29.094  0.00  0.00    +0.054 A 
ATOM     18 CL   LIG    1      -32.403  70.943  29.311  0.00  0.00    -0.083 Cl
ATOM     19  C   LIG    1      -31.963  73.542  29.722  0.00  0.00    +0.041 A 
ATOM     20  C   LIG    1      -32.094  74.919  29.474  0.00  0.00    +0.052 A 
ATOM     21 CL   LIG    1      -31.137  75.951  30.477  0.00  0.00    -0.083 Cl
ATOM     22  C   LIG    1      -33.008  75.396  28.522  0.00  0.00    +0.022 A 
ATOM     23  C   LIG    1      -33.914  74.436  28.009  0.00  0.00    +0.026 A 
BRANCH  22  24
ATOM     24  C   LIG    1      -33.114  76.795  28.028  0.00  0.00    +0.107 A 
ATOM     25  C   LIG    1      -33.747  77.837  28.710  0.00  0.00    +0.149 A 
ATOM     26  F   LIG    1      -34.330  77.655  29.902  0.00  0.00    -0.203 F 
ATOM     27  C   LIG    1      -33.712  79.130  28.196  0.00  0.00    +0.042 A 
ATOM     28  C   LIG    1      -32.996  79.381  27.034  0.00  0.00    +0.023 A 
ATOM     29  C   LIG    1      -32.357  78.316  26.425  0.00  0.00    +0.111 A 
ATOM     30  N   LIG    1      -32.410  77.043  26.885  0.00  0.00    -0.252 NA
ENDBRANCH  22  24
ENDBRANCH  14  16
ENDBRANCH   4  12
BRANCH   1  31
ATOM     31  C   LIG    1      -37.225  67.732  24.751  0.00  0.00    +0.236 C 
ATOM     32  N   LIG    1      -37.089  66.721  25.537  0.00  0.00    -0.246 NA
BRANCH  31  33
ATOM     33  O   LIG    1      -37.443  67.640  23.420  0.00  0.00    -0.491 OA
ATOM     34  H   LIG    1      -36.862  66.949  23.048  0.00  0.00    +0.294 HD
ENDBRANCH  31  33
BRANCH  32  35
ATOM     35  C   LIG    1      -37.087  65.406  24.882  0.00  0.00    +0.180 C 
BRANCH  35  36
ATOM     36  C   LIG    1      -35.691  64.917  24.591  0.00  0.00    +0.086 C 
ATOM     37  C   LIG    1      -35.331  64.691  23.147  0.00  0.00    +0.039 C 
ATOM     38  C   LIG    1      -35.415  63.523  24.093  0.00  0.00    +0.039 C 
BRANCH  36  39
ATOM     39  O   LIG    1      -34.651  65.470  25.410  0.00  0.00    -0.387 OA
ATOM     40  H   LIG    1      -34.311  64.782  26.009  0.00  0.00    +0.210 HD
ENDBRANCH  36  39
ENDBRANCH  35  36
ENDBRANCH  32  35
ENDBRANCH   1  31
TORSDOF 9
ENDMDL
