MODEL 1
REMARK VINA RESULT:      -6.3      0.000      0.000
REMARK  Name = pdb/CHEMBL3671470.pdb
REMARK                            x       y       z     vdW  Elec       q    Type
REMARK                         _______ _______ _______ _____ _____    ______ ____
ROOT
ATOM      1  C   LIG    1      -25.965  76.472  31.519  0.00  0.00    +0.042 A 
ATOM      2  C   LIG    1      -25.574  75.121  31.532  0.00  0.00    +0.038 A 
ATOM      3  C   LIG    1      -26.449  74.136  31.992  0.00  0.00    +0.052 A 
ATOM      4  C   LIG    1      -27.685  74.560  32.471  0.00  0.00    +0.134 A 
ATOM      5  N   LIG    1      -28.094  75.856  32.474  0.00  0.00    -0.261 NA
ATOM      6  C   LIG    1      -27.228  76.781  32.000  0.00  0.00    +0.122 A 
ENDROOT
BRANCH   3   7
ATOM      7  N   LIG    1      -26.032  72.787  31.914  0.00  0.00    -0.283 N 
ATOM      8  H   LIG    1      -26.300  72.276  31.077  0.00  0.00    +0.155 HD
ATOM      9  C   LIG    1      -25.162  72.162  32.794  0.00  0.00    +0.239 C 
ATOM     10  O   LIG    1      -24.628  72.697  33.763  0.00  0.00    -0.273 OA
BRANCH   9  11
ATOM     11  C   LIG    1      -24.861  70.722  32.449  0.00  0.00    +0.241 C 
BRANCH  11  12
ATOM     12  N   LIG    1      -24.870  70.529  31.018  0.00  0.00    -0.242 N 
ATOM     13  N   LIG    1      -25.988  70.091  30.413  0.00  0.00    -0.065 NA
ATOM     14  N   LIG    1      -25.710  69.938  29.125  0.00  0.00    -0.125 NA
ATOM     15  C   LIG    1      -24.393  70.283  28.917  0.00  0.00    +0.185 A 
ATOM     16  C   LIG    1      -23.846  70.663  30.131  0.00  0.00    +0.143 A 
BRANCH  15  17
ATOM     17  C   LIG    1      -23.775  70.206  27.564  0.00  0.00    +0.437 C 
ATOM     18  F   LIG    1      -24.518  69.475  26.695  0.00  0.00    -0.164 F 
ATOM     19  F   LIG    1      -22.537  69.649  27.595  0.00  0.00    -0.164 F 
ATOM     20  F   LIG    1      -23.625  71.439  27.005  0.00  0.00    -0.164 F 
ENDBRANCH  15  17
ENDBRANCH  11  12
ENDBRANCH   9  11
ENDBRANCH   3   7
BRANCH   1  21
ATOM     21  C   LIG    1      -25.077  77.565  31.042  0.00  0.00    +0.197 C 
ATOM     22  O   LIG    1      -25.507  78.381  30.220  0.00  0.00    -0.287 OA
BRANCH  21  28
ATOM     23  C   LIG    1      -19.901  76.820  30.391  0.00  0.00    +0.214 A 
ATOM     24  N   LIG    1      -20.144  77.389  31.576  0.00  0.00    -0.197 NA
ATOM     25  C   LIG    1      -21.454  77.570  31.813  0.00  0.00    +0.147 A 
ATOM     26  N   LIG    1      -22.010  78.118  32.937  0.00  0.00    -0.325 N 
ATOM     27  C   LIG    1      -23.371  78.138  32.829  0.00  0.00    +0.100 A 
ATOM     28  C   LIG    1      -23.722  77.653  31.572  0.00  0.00    +0.051 A 
ATOM     29  C   LIG    1      -22.498  77.251  30.952  0.00  0.00    +0.048 A 
ATOM     30  C   LIG    1      -22.126  76.680  29.737  0.00  0.00    +0.126 A 
ATOM     31  N   LIG    1      -20.814  76.474  29.471  0.00  0.00    -0.222 NA
BRANCH  26  32
ATOM     32  C   LIG    1      -21.332  78.596  34.060  0.00  0.00    +0.048 C 
ATOM     33  C   LIG    1      -20.250  79.717  34.162  0.00  0.00    +0.032 C 
ATOM     34  C   LIG    1      -20.710  79.348  35.665  0.00  0.00    -0.004 C 
ATOM     35  C   LIG    1      -20.965  77.787  35.355  0.00  0.00    +0.032 C 
ATOM     36  C   LIG    1      -22.149  79.507  35.055  0.00  0.00    +0.032 C 
ENDBRANCH  26  32
BRANCH  23  37
ATOM     37  N   LIG    1      -18.579  76.638  30.033  0.00  0.00    -0.327 N 
ATOM     38  H   LIG    1      -18.511  76.561  29.029  0.00  0.00    +0.145 HD
ATOM     39  H   LIG    1      -18.207  75.870  30.577  0.00  0.00    +0.145 HD
ENDBRANCH  23  37
ENDBRANCH  21  28
ENDBRANCH   1  21
TORSDOF 8
ENDMDL
MODEL 2
REMARK VINA RESULT:      -6.2      7.167     11.013
REMARK  Name = pdb/CHEMBL3671470.pdb
REMARK                            x       y       z     vdW  Elec       q    Type
REMARK                         _______ _______ _______ _____ _____    ______ ____
ROOT
ATOM      1  C   LIG    1      -23.333  79.830  35.844  0.00  0.00    +0.042 A 
ATOM      2  C   LIG    1      -24.446  80.557  36.302  0.00  0.00    +0.038 A 
ATOM      3  C   LIG    1      -24.357  81.936  36.500  0.00  0.00    +0.052 A 
ATOM      4  C   LIG    1      -23.120  82.531  36.271  0.00  0.00    +0.134 A 
ATOM      5  N   LIG    1      -22.024  81.858  35.830  0.00  0.00    -0.261 NA
ATOM      6  C   LIG    1      -22.153  80.527  35.627  0.00  0.00    +0.122 A 
ENDROOT
BRANCH   3   7
ATOM      7  N   LIG    1      -25.527  82.628  36.891  0.00  0.00    -0.283 N 
ATOM      8  H   LIG    1      -26.398  82.322  36.466  0.00  0.00    +0.155 HD
ATOM      9  C   LIG    1      -25.605  83.564  37.911  0.00  0.00    +0.239 C 
ATOM     10  O   LIG    1      -24.668  83.918  38.621  0.00  0.00    -0.273 OA
BRANCH   9  11
ATOM     11  C   LIG    1      -26.993  84.119  38.135  0.00  0.00    +0.241 C 
BRANCH  11  12
ATOM     12  N   LIG    1      -27.521  84.680  36.915  0.00  0.00    -0.242 N 
ATOM     13  N   LIG    1      -28.056  83.869  35.986  0.00  0.00    -0.065 NA
ATOM     14  N   LIG    1      -28.401  84.622  34.950  0.00  0.00    -0.125 NA
ATOM     15  C   LIG    1      -28.075  85.931  35.231  0.00  0.00    +0.185 A 
ATOM     16  C   LIG    1      -27.507  85.975  36.494  0.00  0.00    +0.143 A 
BRANCH  15  17
ATOM     17  C   LIG    1      -28.331  87.023  34.252  0.00  0.00    +0.437 C 
ATOM     18  F   LIG    1      -29.465  86.819  33.533  0.00  0.00    -0.164 F 
ATOM     19  F   LIG    1      -27.316  87.164  33.362  0.00  0.00    -0.164 F 
ATOM     20  F   LIG    1      -28.473  88.231  34.865  0.00  0.00    -0.164 F 
ENDBRANCH  15  17
ENDBRANCH  11  12
ENDBRANCH   9  11
ENDBRANCH   3   7
BRANCH   1  21
ATOM     21  C   LIG    1      -23.366  78.361  35.615  0.00  0.00    +0.197 C 
ATOM     22  O   LIG    1      -23.086  77.596  36.543  0.00  0.00    -0.287 OA
BRANCH  21  28
ATOM     23  C   LIG    1      -27.131  76.910  32.226  0.00  0.00    +0.214 A 
ATOM     24  N   LIG    1      -25.930  76.839  31.645  0.00  0.00    -0.197 NA
ATOM     25  C   LIG    1      -24.924  77.164  32.476  0.00  0.00    +0.147 A 
ATOM     26  N   LIG    1      -23.590  77.177  32.173  0.00  0.00    -0.325 N 
ATOM     27  C   LIG    1      -22.861  77.552  33.265  0.00  0.00    +0.100 A 
ATOM     28  C   LIG    1      -23.742  77.863  34.298  0.00  0.00    +0.051 A 
ATOM     29  C   LIG    1      -25.049  77.567  33.800  0.00  0.00    +0.048 A 
ATOM     30  C   LIG    1      -26.351  77.622  34.295  0.00  0.00    +0.126 A 
ATOM     31  N   LIG    1      -27.386  77.291  33.487  0.00  0.00    -0.222 NA
BRANCH  26  32
ATOM     32  C   LIG    1      -23.006  76.855  30.946  0.00  0.00    +0.048 C 
ATOM     33  C   LIG    1      -23.107  77.596  29.576  0.00  0.00    +0.032 C 
ATOM     34  C   LIG    1      -21.939  76.488  29.444  0.00  0.00    -0.004 C 
ATOM     35  C   LIG    1      -22.648  75.420  30.419  0.00  0.00    +0.032 C 
ATOM     36  C   LIG    1      -21.457  77.118  30.801  0.00  0.00    +0.032 C 
ENDBRANCH  26  32
BRANCH  23  37
ATOM     37  N   LIG    1      -28.234  76.642  31.438  0.00  0.00    -0.327 N 
ATOM     38  H   LIG    1      -28.989  76.308  32.020  0.00  0.00    +0.145 HD
ATOM     39  H   LIG    1      -27.942  76.041  30.679  0.00  0.00    +0.145 HD
ENDBRANCH  23  37
ENDBRANCH  21  28
ENDBRANCH   1  21
TORSDOF 8
ENDMDL
MODEL 3
REMARK VINA RESULT:      -6.2      1.874      3.500
REMARK  Name = pdb/CHEMBL3671470.pdb
REMARK                            x       y       z     vdW  Elec       q    Type
REMARK                         _______ _______ _______ _____ _____    ______ ____
ROOT
ATOM      1  C   LIG    1      -27.077  75.772  32.639  0.00  0.00    +0.042 A 
ATOM      2  C   LIG    1      -26.823  74.459  32.203  0.00  0.00    +0.038 A 
ATOM      3  C   LIG    1      -27.352  73.369  32.894  0.00  0.00    +0.052 A 
ATOM      4  C   LIG    1      -28.090  73.644  34.042  0.00  0.00    +0.134 A 
ATOM      5  N   LIG    1      -28.353  74.899  34.492  0.00  0.00    -0.261 NA
ATOM      6  C   LIG    1      -27.843  75.933  33.784  0.00  0.00    +0.122 A 
ENDROOT
BRANCH   3   7
ATOM      7  N   LIG    1      -27.126  72.076  32.369  0.00  0.00    -0.283 N 
ATOM      8  H   LIG    1      -26.432  71.507  32.847  0.00  0.00    +0.155 HD
ATOM      9  C   LIG    1      -27.876  71.469  31.373  0.00  0.00    +0.239 C 
ATOM     10  O   LIG    1      -28.846  71.971  30.813  0.00  0.00    -0.273 OA
BRANCH   9  11
ATOM     11  C   LIG    1      -27.431  70.066  31.032  0.00  0.00    +0.241 C 
BRANCH  11  12
ATOM     12  N   LIG    1      -26.166  70.087  30.337  0.00  0.00    -0.242 N 
ATOM     13  N   LIG    1      -25.063  70.516  30.975  0.00  0.00    -0.065 NA
ATOM     14  N   LIG    1      -24.065  70.495  30.101  0.00  0.00    -0.125 NA
ATOM     15  C   LIG    1      -24.550  70.049  28.891  0.00  0.00    +0.185 A 
ATOM     16  C   LIG    1      -25.901  69.786  29.036  0.00  0.00    +0.143 A 
BRANCH  15  17
ATOM     17  C   LIG    1      -23.666  69.926  27.699  0.00  0.00    +0.437 C 
ATOM     18  F   LIG    1      -22.370  69.704  28.035  0.00  0.00    -0.164 F 
ATOM     19  F   LIG    1      -23.691  71.040  26.923  0.00  0.00    -0.164 F 
ATOM     20  F   LIG    1      -24.041  68.892  26.895  0.00  0.00    -0.164 F 
ENDBRANCH  15  17
ENDBRANCH  11  12
ENDBRANCH   9  11
ENDBRANCH   3   7
BRANCH   1  21
ATOM     21  C   LIG    1      -26.541  76.973  31.945  0.00  0.00    +0.197 C 
ATOM     22  O   LIG    1      -27.312  77.708  31.320  0.00  0.00    -0.287 OA
BRANCH  21  28
ATOM     23  C   LIG    1      -22.516  79.184  34.529  0.00  0.00    +0.214 A 
ATOM     24  N   LIG    1      -22.073  78.532  33.450  0.00  0.00    -0.197 NA
ATOM     25  C   LIG    1      -23.063  77.977  32.729  0.00  0.00    +0.147 A 
ATOM     26  N   LIG    1      -22.923  77.257  31.574  0.00  0.00    -0.325 N 
ATOM     27  C   LIG    1      -24.146  76.853  31.119  0.00  0.00    +0.100 A 
ATOM     28  C   LIG    1      -25.114  77.258  32.034  0.00  0.00    +0.051 A 
ATOM     29  C   LIG    1      -24.419  78.012  33.030  0.00  0.00    +0.048 A 
ATOM     30  C   LIG    1      -24.763  78.705  34.190  0.00  0.00    +0.126 A 
ATOM     31  N   LIG    1      -23.791  79.285  34.933  0.00  0.00    -0.222 NA
BRANCH  26  32
ATOM     32  C   LIG    1      -21.731  76.957  30.912  0.00  0.00    +0.048 C 
ATOM     33  C   LIG    1      -20.808  75.706  31.052  0.00  0.00    +0.032 C 
ATOM     34  C   LIG    1      -20.313  76.532  29.756  0.00  0.00    -0.004 C 
ATOM     35  C   LIG    1      -20.672  77.979  30.367  0.00  0.00    +0.032 C 
ATOM     36  C   LIG    1      -21.844  76.514  29.402  0.00  0.00    +0.032 C 
ENDBRANCH  26  32
BRANCH  23  37
ATOM     37  N   LIG    1      -21.568  79.748  35.363  0.00  0.00    -0.327 N 
ATOM     38  H   LIG    1      -20.705  79.873  34.853  0.00  0.00    +0.145 HD
ATOM     39  H   LIG    1      -21.523  79.196  36.209  0.00  0.00    +0.145 HD
ENDBRANCH  23  37
ENDBRANCH  21  28
ENDBRANCH   1  21
TORSDOF 8
ENDMDL
MODEL 4
REMARK VINA RESULT:      -6.1     13.775     16.881
REMARK  Name = pdb/CHEMBL3671470.pdb
REMARK                            x       y       z     vdW  Elec       q    Type
REMARK                         _______ _______ _______ _____ _____    ______ ____
ROOT
ATOM      1  C   LIG    1      -19.448  77.235  15.618  0.00  0.00    +0.042 A 
ATOM      2  C   LIG    1      -20.662  77.831  15.228  0.00  0.00    +0.038 A 
ATOM      3  C   LIG    1      -20.898  79.184  15.476  0.00  0.00    +0.052 A 
ATOM      4  C   LIG    1      -19.908  79.885  16.158  0.00  0.00    +0.134 A 
ATOM      5  N   LIG    1      -18.726  79.341  16.550  0.00  0.00    -0.261 NA
ATOM      6  C   LIG    1      -18.522  78.033  16.273  0.00  0.00    +0.122 A 
ENDROOT
BRANCH   3   7
ATOM      7  N   LIG    1      -22.103  79.746  14.996  0.00  0.00    -0.283 N 
ATOM      8  H   LIG    1      -22.463  79.373  14.122  0.00  0.00    +0.155 HD
ATOM      9  C   LIG    1      -22.908  80.636  15.692  0.00  0.00    +0.239 C 
ATOM     10  O   LIG    1      -22.687  81.054  16.825  0.00  0.00    -0.273 OA
BRANCH   9  11
ATOM     11  C   LIG    1      -24.159  81.047  14.951  0.00  0.00    +0.241 C 
BRANCH  11  12
ATOM     12  N   LIG    1      -25.037  79.916  14.767  0.00  0.00    -0.242 N 
ATOM     13  N   LIG    1      -25.157  79.000  15.743  0.00  0.00    -0.065 NA
ATOM     14  N   LIG    1      -25.964  78.046  15.298  0.00  0.00    -0.125 NA
ATOM     15  C   LIG    1      -26.355  78.365  14.016  0.00  0.00    +0.185 A 
ATOM     16  C   LIG    1      -25.762  79.567  13.668  0.00  0.00    +0.143 A 
BRANCH  15  17
ATOM     17  C   LIG    1      -27.261  77.477  13.236  0.00  0.00    +0.437 C 
ATOM     18  F   LIG    1      -27.511  76.304  13.873  0.00  0.00    -0.164 F 
ATOM     19  F   LIG    1      -26.752  77.167  12.016  0.00  0.00    -0.164 F 
ATOM     20  F   LIG    1      -28.471  78.060  13.009  0.00  0.00    -0.164 F 
ENDBRANCH  15  17
ENDBRANCH  11  12
ENDBRANCH   9  11
ENDBRANCH   3   7
BRANCH   1  21
ATOM     21  C   LIG    1      -19.139  75.801  15.382  0.00  0.00    +0.197 C 
ATOM     22  O   LIG    1      -18.534  75.470  14.357  0.00  0.00    -0.287 OA
BRANCH  21  28
ATOM     23  C   LIG    1      -18.060  73.050  19.745  0.00  0.00    +0.214 A 
ATOM     24  N   LIG    1      -19.302  72.788  19.326  0.00  0.00    -0.197 NA
ATOM     25  C   LIG    1      -19.620  73.436  18.192  0.00  0.00    +0.147 A 
ATOM     26  N   LIG    1      -20.810  73.364  17.520  0.00  0.00    -0.325 N 
ATOM     27  C   LIG    1      -20.773  74.153  16.407  0.00  0.00    +0.100 A 
ATOM     28  C   LIG    1      -19.550  74.819  16.378  0.00  0.00    +0.051 A 
ATOM     29  C   LIG    1      -18.807  74.320  17.493  0.00  0.00    +0.048 A 
ATOM     30  C   LIG    1      -17.539  74.530  18.033  0.00  0.00    +0.126 A 
ATOM     31  N   LIG    1      -17.183  73.886  19.168  0.00  0.00    -0.222 NA
BRANCH  26  32
ATOM     32  C   LIG    1      -21.927  72.604  17.873  0.00  0.00    +0.048 C 
ATOM     33  C   LIG    1      -22.776  72.640  19.183  0.00  0.00    +0.032 C 
ATOM     34  C   LIG    1      -23.579  71.741  18.108  0.00  0.00    -0.004 C 
ATOM     35  C   LIG    1      -22.257  71.140  17.412  0.00  0.00    +0.032 C 
ATOM     36  C   LIG    1      -23.289  72.963  17.163  0.00  0.00    +0.032 C 
ENDBRANCH  26  32
BRANCH  23  37
ATOM     37  N   LIG    1      -17.655  72.469  20.932  0.00  0.00    -0.327 N 
ATOM     38  H   LIG    1      -16.870  71.859  20.756  0.00  0.00    +0.145 HD
ATOM     39  H   LIG    1      -18.465  72.054  21.373  0.00  0.00    +0.145 HD
ENDBRANCH  23  37
ENDBRANCH  21  28
ENDBRANCH   1  21
TORSDOF 8
ENDMDL
MODEL 5
REMARK VINA RESULT:      -6.1     13.745     17.901
REMARK  Name = pdb/CHEMBL3671470.pdb
REMARK                            x       y       z     vdW  Elec       q    Type
REMARK                         _______ _______ _______ _____ _____    ______ ____
ROOT
ATOM      1  C   LIG    1      -40.158  78.041  25.441  0.00  0.00    +0.042 A 
ATOM      2  C   LIG    1      -39.015  78.434  26.159  0.00  0.00    +0.038 A 
ATOM      3  C   LIG    1      -39.136  78.996  27.431  0.00  0.00    +0.052 A 
ATOM      4  C   LIG    1      -40.425  79.184  27.920  0.00  0.00    +0.134 A 
ATOM      5  N   LIG    1      -41.551  78.818  27.253  0.00  0.00    -0.261 NA
ATOM      6  C   LIG    1      -41.395  78.256  26.032  0.00  0.00    +0.122 A 
ENDROOT
BRANCH   3   7
ATOM      7  N   LIG    1      -37.950  79.305  28.136  0.00  0.00    -0.283 N 
ATOM      8  H   LIG    1      -37.544  78.557  28.692  0.00  0.00    +0.155 HD
ATOM      9  C   LIG    1      -37.218  80.475  28.005  0.00  0.00    +0.239 C 
ATOM     10  O   LIG    1      -37.496  81.404  27.252  0.00  0.00    -0.273 OA
BRANCH   9  11
ATOM     11  C   LIG    1      -35.970  80.522  28.856  0.00  0.00    +0.241 C 
BRANCH  11  12
ATOM     12  N   LIG    1      -34.881  79.834  28.204  0.00  0.00    -0.242 N 
ATOM     13  N   LIG    1      -34.237  80.425  27.182  0.00  0.00    -0.065 NA
ATOM     14  N   LIG    1      -33.337  79.564  26.727  0.00  0.00    -0.125 NA
ATOM     15  C   LIG    1      -33.419  78.408  27.474  0.00  0.00    +0.185 A 
ATOM     16  C   LIG    1      -34.412  78.576  28.425  0.00  0.00    +0.143 A 
BRANCH  15  17
ATOM     17  C   LIG    1      -32.538  77.241  27.197  0.00  0.00    +0.437 C 
ATOM     18  F   LIG    1      -33.240  76.095  27.003  0.00  0.00    -0.164 F 
ATOM     19  F   LIG    1      -31.664  77.005  28.209  0.00  0.00    -0.164 F 
ATOM     20  F   LIG    1      -31.785  77.428  26.077  0.00  0.00    -0.164 F 
ENDBRANCH  15  17
ENDBRANCH  11  12
ENDBRANCH   9  11
ENDBRANCH   3   7
BRANCH   1  21
ATOM     21  C   LIG    1      -40.093  77.438  24.084  0.00  0.00    +0.197 C 
ATOM     22  O   LIG    1      -39.767  78.142  23.122  0.00  0.00    -0.287 OA
BRANCH  21  28
ATOM     23  C   LIG    1      -38.727  72.396  24.774  0.00  0.00    +0.214 A 
ATOM     24  N   LIG    1      -39.945  72.477  24.229  0.00  0.00    -0.197 NA
ATOM     25  C   LIG    1      -40.331  73.743  23.995  0.00  0.00    +0.147 A 
ATOM     26  N   LIG    1      -41.516  74.142  23.439  0.00  0.00    -0.325 N 
ATOM     27  C   LIG    1      -41.561  75.504  23.350  0.00  0.00    +0.100 A 
ATOM     28  C   LIG    1      -40.404  76.023  23.926  0.00  0.00    +0.051 A 
ATOM     29  C   LIG    1      -39.608  74.893  24.290  0.00  0.00    +0.048 A 
ATOM     30  C   LIG    1      -38.359  74.687  24.874  0.00  0.00    +0.126 A 
ATOM     31  N   LIG    1      -37.935  73.424  25.114  0.00  0.00    -0.222 NA
BRANCH  26  32
ATOM     32  C   LIG    1      -42.557  73.320  23.003  0.00  0.00    +0.048 C 
ATOM     33  C   LIG    1      -43.740  72.705  23.814  0.00  0.00    +0.032 C 
ATOM     34  C   LIG    1      -44.054  72.473  22.246  0.00  0.00    -0.004 C 
ATOM     35  C   LIG    1      -42.511  72.287  21.821  0.00  0.00    +0.032 C 
ATOM     36  C   LIG    1      -43.696  74.001  22.150  0.00  0.00    +0.032 C 
ENDBRANCH  26  32
BRANCH  23  37
ATOM     37  N   LIG    1      -38.260  71.136  25.099  0.00  0.00    -0.327 N 
ATOM     38  H   LIG    1      -37.257  71.111  24.988  0.00  0.00    +0.145 HD
ATOM     39  H   LIG    1      -38.795  70.456  24.574  0.00  0.00    +0.145 HD
ENDBRANCH  23  37
ENDBRANCH  21  28
ENDBRANCH   1  21
TORSDOF 8
ENDMDL
MODEL 6
REMARK VINA RESULT:      -6.0     13.881     16.915
REMARK  Name = pdb/CHEMBL3671470.pdb
REMARK                            x       y       z     vdW  Elec       q    Type
REMARK                         _______ _______ _______ _____ _____    ______ ____
ROOT
ATOM      1  C   LIG    1      -40.286  79.041  24.939  0.00  0.00    +0.042 A 
ATOM      2  C   LIG    1      -39.227  78.387  25.593  0.00  0.00    +0.038 A 
ATOM      3  C   LIG    1      -38.829  77.110  25.192  0.00  0.00    +0.052 A 
ATOM      4  C   LIG    1      -39.555  76.514  24.165  0.00  0.00    +0.134 A 
ATOM      5  N   LIG    1      -40.584  77.117  23.514  0.00  0.00    -0.261 NA
ATOM      6  C   LIG    1      -40.927  78.363  23.913  0.00  0.00    +0.122 A 
ENDROOT
BRANCH   3   7
ATOM      7  N   LIG    1      -37.711  76.530  25.836  0.00  0.00    -0.283 N 
ATOM      8  H   LIG    1      -36.800  76.732  25.432  0.00  0.00    +0.155 HD
ATOM      9  C   LIG    1      -37.741  75.855  27.046  0.00  0.00    +0.239 C 
ATOM     10  O   LIG    1      -38.743  75.673  27.732  0.00  0.00    -0.273 OA
BRANCH   9  11
ATOM     11  C   LIG    1      -36.389  75.371  27.517  0.00  0.00    +0.241 C 
BRANCH  11  12
ATOM     12  N   LIG    1      -35.418  76.438  27.464  0.00  0.00    -0.242 N 
ATOM     13  N   LIG    1      -35.808  77.704  27.695  0.00  0.00    -0.065 NA
ATOM     14  N   LIG    1      -34.748  78.484  27.523  0.00  0.00    -0.125 NA
ATOM     15  C   LIG    1      -33.674  77.695  27.174  0.00  0.00    +0.185 A 
ATOM     16  C   LIG    1      -34.099  76.377  27.134  0.00  0.00    +0.143 A 
BRANCH  15  17
ATOM     17  C   LIG    1      -32.334  78.284  26.901  0.00  0.00    +0.437 C 
ATOM     18  F   LIG    1      -32.405  79.399  26.131  0.00  0.00    -0.164 F 
ATOM     19  F   LIG    1      -31.510  77.412  26.264  0.00  0.00    -0.164 F 
ATOM     20  F   LIG    1      -31.696  78.645  28.049  0.00  0.00    -0.164 F 
ENDBRANCH  15  17
ENDBRANCH  11  12
ENDBRANCH   9  11
ENDBRANCH   3   7
BRANCH   1  21
ATOM     21  C   LIG    1      -40.755  80.400  25.320  0.00  0.00    +0.197 C 
ATOM     22  O   LIG    1      -41.773  80.520  26.010  0.00  0.00    -0.287 OA
BRANCH  21  28
ATOM     23  C   LIG    1      -39.773  84.054  21.652  0.00  0.00    +0.214 A 
ATOM     24  N   LIG    1      -39.005  84.256  22.728  0.00  0.00    -0.197 NA
ATOM     25  C   LIG    1      -39.187  83.329  23.684  0.00  0.00    +0.147 A 
ATOM     26  N   LIG    1      -38.541  83.266  24.889  0.00  0.00    -0.325 N 
ATOM     27  C   LIG    1      -38.977  82.187  25.602  0.00  0.00    +0.100 A 
ATOM     28  C   LIG    1      -39.988  81.558  24.879  0.00  0.00    +0.051 A 
ATOM     29  C   LIG    1      -40.080  82.265  23.640  0.00  0.00    +0.048 A 
ATOM     30  C   LIG    1      -40.842  82.164  22.478  0.00  0.00    +0.126 A 
ATOM     31  N   LIG    1      -40.676  83.075  21.490  0.00  0.00    -0.222 NA
BRANCH  26  32
ATOM     32  C   LIG    1      -37.567  84.146  25.365  0.00  0.00    +0.048 C 
ATOM     33  C   LIG    1      -37.592  85.704  25.443  0.00  0.00    +0.032 C 
ATOM     34  C   LIG    1      -36.318  85.196  26.295  0.00  0.00    -0.004 C 
ATOM     35  C   LIG    1      -36.012  83.930  25.348  0.00  0.00    +0.032 C 
ATOM     36  C   LIG    1      -37.377  84.223  26.929  0.00  0.00    +0.032 C 
ENDBRANCH  26  32
BRANCH  23  37
ATOM     37  N   LIG    1      -39.694  84.984  20.633  0.00  0.00    -0.327 N 
ATOM     38  H   LIG    1      -40.082  84.588  19.788  0.00  0.00    +0.145 HD
ATOM     39  H   LIG    1      -38.742  85.320  20.585  0.00  0.00    +0.145 HD
ENDBRANCH  23  37
ENDBRANCH  21  28
ENDBRANCH   1  21
TORSDOF 8
ENDMDL
MODEL 7
REMARK VINA RESULT:      -5.9      4.010      7.621
REMARK  Name = pdb/CHEMBL3671470.pdb
REMARK                            x       y       z     vdW  Elec       q    Type
REMARK                         _______ _______ _______ _____ _____    ______ ____
ROOT
ATOM      1  C   LIG    1      -27.277  77.195  33.534  0.00  0.00    +0.042 A 
ATOM      2  C   LIG    1      -26.158  77.652  34.253  0.00  0.00    +0.038 A 
ATOM      3  C   LIG    1      -26.286  78.045  35.586  0.00  0.00    +0.052 A 
ATOM      4  C   LIG    1      -27.562  78.006  36.138  0.00  0.00    +0.134 A 
ATOM      5  N   LIG    1      -28.665  77.572  35.472  0.00  0.00    -0.261 NA
ATOM      6  C   LIG    1      -28.499  77.177  34.189  0.00  0.00    +0.122 A 
ENDROOT
BRANCH   3   7
ATOM      7  N   LIG    1      -25.115  78.425  36.282  0.00  0.00    -0.283 N 
ATOM      8  H   LIG    1      -24.537  77.671  36.644  0.00  0.00    +0.155 HD
ATOM      9  C   LIG    1      -24.614  79.715  36.368  0.00  0.00    +0.239 C 
ATOM     10  O   LIG    1      -25.116  80.706  35.845  0.00  0.00    -0.273 OA
BRANCH   9  11
ATOM     11  C   LIG    1      -23.323  79.826  37.146  0.00  0.00    +0.241 C 
BRANCH  11  12
ATOM     12  N   LIG    1      -22.191  79.881  36.252  0.00  0.00    -0.242 N 
ATOM     13  N   LIG    1      -21.602  81.062  35.995  0.00  0.00    -0.065 NA
ATOM     14  N   LIG    1      -20.643  80.843  35.105  0.00  0.00    -0.125 NA
ATOM     15  C   LIG    1      -20.631  79.501  34.794  0.00  0.00    +0.185 A 
ATOM     16  C   LIG    1      -21.626  78.876  35.528  0.00  0.00    +0.143 A 
BRANCH  15  17
ATOM     17  C   LIG    1      -19.667  78.941  33.808  0.00  0.00    +0.437 C 
ATOM     18  F   LIG    1      -20.125  77.806  33.220  0.00  0.00    -0.164 F 
ATOM     19  F   LIG    1      -18.469  78.640  34.374  0.00  0.00    -0.164 F 
ATOM     20  F   LIG    1      -19.404  79.820  32.801  0.00  0.00    -0.164 F 
ENDBRANCH  15  17
ENDBRANCH  11  12
ENDBRANCH   9  11
ENDBRANCH   3   7
BRANCH   1  21
ATOM     21  C   LIG    1      -27.203  76.764  32.113  0.00  0.00    +0.197 C 
ATOM     22  O   LIG    1      -28.130  77.044  31.345  0.00  0.00    -0.287 OA
BRANCH  21  28
ATOM     23  C   LIG    1      -22.495  76.768  29.746  0.00  0.00    +0.214 A 
ATOM     24  N   LIG    1      -22.789  75.544  30.195  0.00  0.00    -0.197 NA
ATOM     25  C   LIG    1      -23.999  75.475  30.776  0.00  0.00    +0.147 A 
ATOM     26  N   LIG    1      -24.577  74.360  31.321  0.00  0.00    -0.325 N 
ATOM     27  C   LIG    1      -25.812  74.664  31.817  0.00  0.00    +0.100 A 
ATOM     28  C   LIG    1      -26.028  76.031  31.660  0.00  0.00    +0.051 A 
ATOM     29  C   LIG    1      -24.888  76.528  30.954  0.00  0.00    +0.048 A 
ATOM     30  C   LIG    1      -24.468  77.762  30.463  0.00  0.00    +0.126 A 
ATOM     31  N   LIG    1      -23.259  77.865  29.862  0.00  0.00    -0.222 NA
BRANCH  26  32
ATOM     32  C   LIG    1      -24.032  73.076  31.379  0.00  0.00    +0.048 C 
ATOM     33  C   LIG    1      -22.736  72.581  32.096  0.00  0.00    +0.032 C 
ATOM     34  C   LIG    1      -23.563  71.274  31.630  0.00  0.00    -0.004 C 
ATOM     35  C   LIG    1      -24.151  71.950  30.291  0.00  0.00    +0.032 C 
ATOM     36  C   LIG    1      -24.762  72.031  32.308  0.00  0.00    +0.032 C 
ENDBRANCH  26  32
BRANCH  23  37
ATOM     37  N   LIG    1      -21.250  76.953  29.175  0.00  0.00    -0.327 N 
ATOM     38  H   LIG    1      -21.197  76.431  28.312  0.00  0.00    +0.145 HD
ATOM     39  H   LIG    1      -20.548  76.752  29.875  0.00  0.00    +0.145 HD
ENDBRANCH  23  37
ENDBRANCH  21  28
ENDBRANCH   1  21
TORSDOF 8
ENDMDL
MODEL 8
REMARK VINA RESULT:      -5.8     13.516     16.771
REMARK  Name = pdb/CHEMBL3671470.pdb
REMARK                            x       y       z     vdW  Elec       q    Type
REMARK                         _______ _______ _______ _____ _____    ______ ____
ROOT
ATOM      1  C   LIG    1      -35.636  82.012  28.200  0.00  0.00    +0.042 A 
ATOM      2  C   LIG    1      -35.606  80.750  27.580  0.00  0.00    +0.038 A 
ATOM      3  C   LIG    1      -35.061  79.649  28.242  0.00  0.00    +0.052 A 
ATOM      4  C   LIG    1      -34.517  79.874  29.503  0.00  0.00    +0.134 A 
ATOM      5  N   LIG    1      -34.527  81.080  30.131  0.00  0.00    -0.261 NA
ATOM      6  C   LIG    1      -35.084  82.120  29.468  0.00  0.00    +0.122 A 
ENDROOT
BRANCH   3   7
ATOM      7  N   LIG    1      -35.124  78.390  27.601  0.00  0.00    -0.283 N 
ATOM      8  H   LIG    1      -34.290  78.094  27.101  0.00  0.00    +0.155 HD
ATOM      9  C   LIG    1      -36.153  77.471  27.734  0.00  0.00    +0.239 C 
ATOM     10  O   LIG    1      -37.152  77.622  28.433  0.00  0.00    -0.273 OA
BRANCH   9  11
ATOM     11  C   LIG    1      -35.941  76.190  26.962  0.00  0.00    +0.241 C 
BRANCH  11  12
ATOM     12  N   LIG    1      -37.003  75.989  26.004  0.00  0.00    -0.242 N 
ATOM     13  N   LIG    1      -37.202  76.896  25.032  0.00  0.00    -0.065 NA
ATOM     14  N   LIG    1      -38.266  76.509  24.339  0.00  0.00    -0.125 NA
ATOM     15  C   LIG    1      -38.747  75.341  24.889  0.00  0.00    +0.185 A 
ATOM     16  C   LIG    1      -37.939  75.002  25.962  0.00  0.00    +0.143 A 
BRANCH  15  17
ATOM     17  C   LIG    1      -39.949  74.660  24.336  0.00  0.00    +0.437 C 
ATOM     18  F   LIG    1      -40.871  74.378  25.292  0.00  0.00    -0.164 F 
ATOM     19  F   LIG    1      -39.641  73.488  23.723  0.00  0.00    -0.164 F 
ATOM     20  F   LIG    1      -40.580  75.425  23.402  0.00  0.00    -0.164 F 
ENDBRANCH  15  17
ENDBRANCH  11  12
ENDBRANCH   9  11
ENDBRANCH   3   7
BRANCH   1  21
ATOM     21  C   LIG    1      -36.202  83.221  27.545  0.00  0.00    +0.197 C 
ATOM     22  O   LIG    1      -35.834  84.341  27.916  0.00  0.00    -0.287 OA
BRANCH  21  28
ATOM     23  C   LIG    1      -38.493  85.071  23.175  0.00  0.00    +0.214 A 
ATOM     24  N   LIG    1      -38.960  83.853  23.465  0.00  0.00    -0.197 NA
ATOM     25  C   LIG    1      -38.436  83.345  24.594  0.00  0.00    +0.147 A 
ATOM     26  N   LIG    1      -38.724  82.128  25.149  0.00  0.00    -0.325 N 
ATOM     27  C   LIG    1      -38.007  81.951  26.297  0.00  0.00    +0.100 A 
ATOM     28  C   LIG    1      -37.170  83.051  26.470  0.00  0.00    +0.051 A 
ATOM     29  C   LIG    1      -37.486  83.952  25.406  0.00  0.00    +0.048 A 
ATOM     30  C   LIG    1      -37.058  85.214  24.996  0.00  0.00    +0.126 A 
ATOM     31  N   LIG    1      -37.573  85.759  23.869  0.00  0.00    -0.222 NA
BRANCH  26  32
ATOM     32  C   LIG    1      -39.617  81.173  24.658  0.00  0.00    +0.048 C 
ATOM     33  C   LIG    1      -39.517  80.290  23.375  0.00  0.00    +0.032 C 
ATOM     34  C   LIG    1      -40.740  79.719  24.263  0.00  0.00    -0.004 C 
ATOM     35  C   LIG    1      -41.177  81.159  24.840  0.00  0.00    +0.032 C 
ATOM     36  C   LIG    1      -39.677  79.793  25.419  0.00  0.00    +0.032 C 
ENDBRANCH  26  32
BRANCH  23  37
ATOM     37  N   LIG    1      -38.935  85.659  22.004  0.00  0.00    -0.327 N 
ATOM     38  H   LIG    1      -38.206  85.604  21.307  0.00  0.00    +0.145 HD
ATOM     39  H   LIG    1      -39.287  86.580  22.226  0.00  0.00    +0.145 HD
ENDBRANCH  23  37
ENDBRANCH  21  28
ENDBRANCH   1  21
TORSDOF 8
ENDMDL
MODEL 9
REMARK VINA RESULT:      -5.6     15.737     18.333
REMARK  Name = pdb/CHEMBL3671470.pdb
REMARK                            x       y       z     vdW  Elec       q    Type
REMARK                         _______ _______ _______ _____ _____    ______ ____
ROOT
ATOM      1  C   LIG    1      -42.413  72.297  22.291  0.00  0.00    +0.042 A 
ATOM      2  C   LIG    1      -41.527  71.253  21.972  0.00  0.00    +0.038 A 
ATOM      3  C   LIG    1      -41.870  70.303  21.008  0.00  0.00    +0.052 A 
ATOM      4  C   LIG    1      -43.130  70.417  20.428  0.00  0.00    +0.134 A 
ATOM      5  N   LIG    1      -44.011  71.412  20.713  0.00  0.00    -0.261 NA
ATOM      6  C   LIG    1      -43.635  72.328  21.636  0.00  0.00    +0.122 A 
ENDROOT
BRANCH   3   7
ATOM      7  N   LIG    1      -40.912  69.318  20.674  0.00  0.00    -0.283 N 
ATOM      8  H   LIG    1      -40.196  69.590  20.006  0.00  0.00    +0.155 HD
ATOM      9  C   LIG    1      -40.774  68.087  21.297  0.00  0.00    +0.239 C 
ATOM     10  O   LIG    1      -41.463  67.684  22.230  0.00  0.00    -0.273 OA
BRANCH   9  11
ATOM     11  C   LIG    1      -39.639  67.247  20.759  0.00  0.00    +0.241 C 
BRANCH  11  12
ATOM     12  N   LIG    1      -38.400  67.578  21.423  0.00  0.00    -0.242 N 
ATOM     13  N   LIG    1      -38.018  68.863  21.516  0.00  0.00    -0.065 NA
ATOM     14  N   LIG    1      -36.829  68.883  22.106  0.00  0.00    -0.125 NA
ATOM     15  C   LIG    1      -36.456  67.586  22.384  0.00  0.00    +0.185 A 
ATOM     16  C   LIG    1      -37.462  66.741  21.946  0.00  0.00    +0.143 A 
BRANCH  15  17
ATOM     17  C   LIG    1      -35.156  67.276  23.041  0.00  0.00    +0.437 C 
ATOM     18  F   LIG    1      -34.131  67.207  22.153  0.00  0.00    -0.164 F 
ATOM     19  F   LIG    1      -35.185  66.094  23.708  0.00  0.00    -0.164 F 
ATOM     20  F   LIG    1      -34.812  68.224  23.956  0.00  0.00    -0.164 F 
ENDBRANCH  15  17
ENDBRANCH  11  12
ENDBRANCH   9  11
ENDBRANCH   3   7
BRANCH   1  21
ATOM     21  C   LIG    1      -42.103  73.336  23.308  0.00  0.00    +0.197 C 
ATOM     22  O   LIG    1      -42.963  74.174  23.601  0.00  0.00    -0.287 OA
BRANCH  21  28
ATOM     23  C   LIG    1      -37.933  75.998  25.122  0.00  0.00    +0.214 A 
ATOM     24  N   LIG    1      -37.792  74.691  25.365  0.00  0.00    -0.197 NA
ATOM     25  C   LIG    1      -38.812  73.957  24.890  0.00  0.00    +0.147 A 
ATOM     26  N   LIG    1      -38.946  72.597  24.977  0.00  0.00    -0.325 N 
ATOM     27  C   LIG    1      -40.106  72.198  24.379  0.00  0.00    +0.100 A 
ATOM     28  C   LIG    1      -40.793  73.329  23.946  0.00  0.00    +0.051 A 
ATOM     29  C   LIG    1      -39.939  74.439  24.234  0.00  0.00    +0.048 A 
ATOM     30  C   LIG    1      -39.987  75.820  24.052  0.00  0.00    +0.126 A 
ATOM     31  N   LIG    1      -38.970  76.589  24.510  0.00  0.00    -0.222 NA
BRANCH  26  32
ATOM     32  C   LIG    1      -38.053  71.704  25.572  0.00  0.00    +0.048 C 
ATOM     33  C   LIG    1      -37.746  71.469  27.085  0.00  0.00    +0.032 C 
ATOM     34  C   LIG    1      -37.048  70.271  26.256  0.00  0.00    -0.004 C 
ATOM     35  C   LIG    1      -36.705  71.174  24.967  0.00  0.00    +0.032 C 
ATOM     36  C   LIG    1      -38.463  70.181  25.576  0.00  0.00    +0.032 C 
ENDBRANCH  26  32
BRANCH  23  37
ATOM     37  N   LIG    1      -36.958  76.844  25.616  0.00  0.00    -0.327 N 
ATOM     38  H   LIG    1      -36.749  77.553  24.928  0.00  0.00    +0.145 HD
ATOM     39  H   LIG    1      -36.184  76.279  25.940  0.00  0.00    +0.145 HD
ENDBRANCH  23  37
ENDBRANCH  21  28
ENDBRANCH   1  21
TORSDOF 8
ENDMDL
