MODEL 1
REMARK VINA RESULT:      -5.7      0.000      0.000
REMARK  Name = pdb/CHEMBL3675968.pdb
REMARK                            x       y       z     vdW  Elec       q    Type
REMARK                         _______ _______ _______ _____ _____    ______ ____
ROOT
ATOM      1  C   LIG    1      -20.269  77.084  30.507  0.00  0.00    +0.100 A 
ATOM      2  C   LIG    1      -19.908  77.732  31.682  0.00  0.00    +0.170 A 
ATOM      3  N   LIG    1      -20.641  78.364  32.652  0.00  0.00    -0.212 NA
ATOM      4  C   LIG    1      -20.003  78.848  33.699  0.00  0.00    +0.126 A 
ATOM      5  C   LIG    1      -18.503  78.731  33.840  0.00  0.00    +0.063 A 
ATOM      6  C   LIG    1      -17.836  78.141  32.846  0.00  0.00    +0.118 A 
ATOM      7  N   LIG    1      -18.517  77.631  31.756  0.00  0.00    -0.221 N 
ATOM      8  N   LIG    1      -17.984  76.998  30.684  0.00  0.00    -0.173 NA
ATOM      9  C   LIG    1      -19.043  76.665  29.952  0.00  0.00    +0.150 A 
ENDROOT
BRANCH   4  10
ATOM     10  N   LIG    1      -20.734  79.483  34.692  0.00  0.00    -0.308 N 
ATOM     11  C   LIG    1      -22.108  79.959  34.484  0.00  0.00    +0.107 C 
ATOM     12  C   LIG    1      -22.163  81.209  35.382  0.00  0.00    +0.029 C 
ATOM     13  C   LIG    1      -21.280  80.844  36.563  0.00  0.00    +0.021 C 
ATOM     14  C   LIG    1      -20.170  80.020  35.930  0.00  0.00    +0.107 C 
BRANCH  11  15
ATOM     15  C   LIG    1      -23.158  78.920  34.827  0.00  0.00    -0.006 A 
ATOM     16  C   LIG    1      -24.329  78.809  34.062  0.00  0.00    +0.046 A 
ATOM     17  C   LIG    1      -25.268  77.834  34.372  0.00  0.00    +0.142 A 
ATOM     18  F   LIG    1      -26.381  77.713  33.639  0.00  0.00    -0.204 F 
ATOM     19  C   LIG    1      -25.029  76.984  35.434  0.00  0.00    +0.149 A 
ATOM     20  N   LIG    1      -23.911  77.041  36.190  0.00  0.00    -0.260 NA
ATOM     21  C   LIG    1      -23.003  77.994  35.860  0.00  0.00    +0.116 A 
ENDBRANCH  11  15
ENDBRANCH   4  10
BRANCH   1  24
ATOM     22  N   LIG    1      -22.638  77.129  30.784  0.00  0.00    -0.309 N 
ATOM     23  H   LIG    1      -22.420  77.526  31.699  0.00  0.00    +0.149 HD
ATOM     24  C   LIG    1      -21.583  76.858  29.949  0.00  0.00    +0.249 C 
ATOM     25  O   LIG    1      -21.728  76.437  28.796  0.00  0.00    -0.270 OA
BRANCH  22  27
ATOM     26  C   LIG    1      -24.681  75.857  31.209  0.00  0.00    +0.027 C 
ATOM     27  C   LIG    1      -24.019  76.945  30.375  0.00  0.00    +0.067 C 
ATOM     28  C   LIG    1      -24.798  78.255  30.475  0.00  0.00    +0.027 C 
ENDBRANCH  22  27
ENDBRANCH   1  24
TORSDOF 4
ENDMDL
MODEL 2
REMARK VINA RESULT:      -5.6      2.686      4.232
REMARK  Name = pdb/CHEMBL3675968.pdb
REMARK                            x       y       z     vdW  Elec       q    Type
REMARK                         _______ _______ _______ _____ _____    ______ ____
ROOT
ATOM      1  C   LIG    1      -24.313  77.438  31.140  0.00  0.00    +0.100 A 
ATOM      2  C   LIG    1      -23.017  77.632  31.601  0.00  0.00    +0.170 A 
ATOM      3  N   LIG    1      -22.507  77.886  32.847  0.00  0.00    -0.212 NA
ATOM      4  C   LIG    1      -21.198  77.970  32.980  0.00  0.00    +0.126 A 
ATOM      5  C   LIG    1      -20.267  77.805  31.801  0.00  0.00    +0.063 A 
ATOM      6  C   LIG    1      -20.821  77.600  30.605  0.00  0.00    +0.118 A 
ATOM      7  N   LIG    1      -22.196  77.506  30.478  0.00  0.00    -0.221 N 
ATOM      8  N   LIG    1      -22.898  77.288  29.343  0.00  0.00    -0.173 NA
ATOM      9  C   LIG    1      -24.162  77.237  29.754  0.00  0.00    +0.150 A 
ENDROOT
BRANCH   4  10
ATOM     10  N   LIG    1      -20.668  78.218  34.237  0.00  0.00    -0.308 N 
ATOM     11  C   LIG    1      -20.138  79.531  34.629  0.00  0.00    +0.107 C 
ATOM     12  C   LIG    1      -19.002  79.152  35.598  0.00  0.00    +0.029 C 
ATOM     13  C   LIG    1      -19.525  77.909  36.298  0.00  0.00    +0.021 C 
ATOM     14  C   LIG    1      -20.294  77.187  35.204  0.00  0.00    +0.107 C 
BRANCH  11  15
ATOM     15  C   LIG    1      -21.185  80.436  35.249  0.00  0.00    -0.006 A 
ATOM     16  C   LIG    1      -20.805  81.559  35.999  0.00  0.00    +0.046 A 
ATOM     17  C   LIG    1      -21.776  82.394  36.537  0.00  0.00    +0.142 A 
ATOM     18  F   LIG    1      -21.421  83.475  37.241  0.00  0.00    -0.204 F 
ATOM     19  C   LIG    1      -23.108  82.101  36.320  0.00  0.00    +0.149 A 
ATOM     20  N   LIG    1      -23.525  81.041  35.593  0.00  0.00    -0.260 NA
ATOM     21  C   LIG    1      -22.557  80.248  35.068  0.00  0.00    +0.116 A 
ENDBRANCH  11  15
ENDBRANCH   4  10
BRANCH   1  24
ATOM     22  N   LIG    1      -25.443  77.275  33.235  0.00  0.00    -0.309 N 
ATOM     23  H   LIG    1      -24.500  77.249  33.625  0.00  0.00    +0.149 HD
ATOM     24  C   LIG    1      -25.558  77.427  31.876  0.00  0.00    +0.249 C 
ATOM     25  O   LIG    1      -26.645  77.536  31.300  0.00  0.00    -0.270 OA
BRANCH  22  27
ATOM     26  C   LIG    1      -26.940  75.798  34.480  0.00  0.00    +0.027 C 
ATOM     27  C   LIG    1      -26.600  77.235  34.112  0.00  0.00    +0.067 C 
ATOM     28  C   LIG    1      -26.365  78.075  35.366  0.00  0.00    +0.027 C 
ENDBRANCH  22  27
ENDBRANCH   1  24
TORSDOF 4
ENDMDL
MODEL 3
REMARK VINA RESULT:      -5.5      2.335      5.348
REMARK  Name = pdb/CHEMBL3675968.pdb
REMARK                            x       y       z     vdW  Elec       q    Type
REMARK                         _______ _______ _______ _____ _____    ______ ____
ROOT
ATOM      1  C   LIG    1      -24.648  77.648  32.154  0.00  0.00    +0.100 A 
ATOM      2  C   LIG    1      -23.385  77.354  31.657  0.00  0.00    +0.170 A 
ATOM      3  N   LIG    1      -22.150  77.297  32.248  0.00  0.00    -0.212 NA
ATOM      4  C   LIG    1      -21.122  76.930  31.509  0.00  0.00    +0.126 A 
ATOM      5  C   LIG    1      -21.276  76.590  30.045  0.00  0.00    +0.063 A 
ATOM      6  C   LIG    1      -22.495  76.703  29.513  0.00  0.00    +0.118 A 
ATOM      7  N   LIG    1      -23.568  77.081  30.300  0.00  0.00    -0.221 N 
ATOM      8  N   LIG    1      -24.856  77.224  29.911  0.00  0.00    -0.173 NA
ATOM      9  C   LIG    1      -25.494  77.551  31.031  0.00  0.00    +0.150 A 
ENDROOT
BRANCH   4  10
ATOM     10  N   LIG    1      -19.867  76.859  32.096  0.00  0.00    -0.308 N 
ATOM     11  C   LIG    1      -19.029  78.045  32.322  0.00  0.00    +0.107 C 
ATOM     12  C   LIG    1      -17.607  77.480  32.153  0.00  0.00    +0.029 C 
ATOM     13  C   LIG    1      -17.710  76.069  32.708  0.00  0.00    +0.021 C 
ATOM     14  C   LIG    1      -19.103  75.628  32.286  0.00  0.00    +0.107 C 
BRANCH  11  15
ATOM     15  C   LIG    1      -19.266  78.695  33.671  0.00  0.00    -0.006 A 
ATOM     16  C   LIG    1      -20.262  79.671  33.828  0.00  0.00    +0.046 A 
ATOM     17  C   LIG    1      -20.485  80.237  35.077  0.00  0.00    +0.142 A 
ATOM     18  F   LIG    1      -21.442  81.159  35.239  0.00  0.00    -0.204 F 
ATOM     19  C   LIG    1      -19.719  79.823  36.149  0.00  0.00    +0.149 A 
ATOM     20  N   LIG    1      -18.760  78.876  36.052  0.00  0.00    -0.260 NA
ATOM     21  C   LIG    1      -18.569  78.330  34.824  0.00  0.00    +0.116 A 
ENDBRANCH  11  15
ENDBRANCH   4  10
BRANCH   1  24
ATOM     22  N   LIG    1      -24.056  78.428  34.330  0.00  0.00    -0.309 N 
ATOM     23  H   LIG    1      -23.132  78.564  33.916  0.00  0.00    +0.149 HD
ATOM     24  C   LIG    1      -25.052  77.972  33.505  0.00  0.00    +0.249 C 
ATOM     25  O   LIG    1      -26.222  77.830  33.876  0.00  0.00    -0.270 OA
BRANCH  22  27
ATOM     26  C   LIG    1      -23.167  78.287  36.602  0.00  0.00    +0.027 C 
ATOM     27  C   LIG    1      -24.299  78.787  35.716  0.00  0.00    +0.067 C 
ATOM     28  C   LIG    1      -24.479  80.296  35.866  0.00  0.00    +0.027 C 
ENDBRANCH  22  27
ENDBRANCH   1  24
TORSDOF 4
ENDMDL
MODEL 4
REMARK VINA RESULT:      -5.4      2.193      4.937
REMARK  Name = pdb/CHEMBL3675968.pdb
REMARK                            x       y       z     vdW  Elec       q    Type
REMARK                         _______ _______ _______ _____ _____    ______ ____
ROOT
ATOM      1  C   LIG    1      -20.794  76.932  30.711  0.00  0.00    +0.100 A 
ATOM      2  C   LIG    1      -22.020  77.256  31.280  0.00  0.00    +0.170 A 
ATOM      3  N   LIG    1      -22.393  77.550  32.565  0.00  0.00    -0.212 NA
ATOM      4  C   LIG    1      -23.651  77.876  32.789  0.00  0.00    +0.126 A 
ATOM      5  C   LIG    1      -24.672  77.919  31.676  0.00  0.00    +0.063 A 
ATOM      6  C   LIG    1      -24.260  77.583  30.451  0.00  0.00    +0.118 A 
ATOM      7  N   LIG    1      -22.937  77.250  30.227  0.00  0.00    -0.221 N 
ATOM      8  N   LIG    1      -22.371  76.904  29.047  0.00  0.00    -0.173 NA
ATOM      9  C   LIG    1      -21.088  76.729  29.347  0.00  0.00    +0.150 A 
ENDROOT
BRANCH   4  10
ATOM     10  N   LIG    1      -24.041  78.185  34.083  0.00  0.00    -0.308 N 
ATOM     11  C   LIG    1      -23.120  78.119  35.226  0.00  0.00    +0.107 C 
ATOM     12  C   LIG    1      -24.053  77.701  36.378  0.00  0.00    +0.029 C 
ATOM     13  C   LIG    1      -25.366  78.389  36.046  0.00  0.00    +0.021 C 
ATOM     14  C   LIG    1      -25.427  78.316  34.529  0.00  0.00    +0.107 C 
BRANCH  11  15
ATOM     15  C   LIG    1      -22.391  79.424  35.481  0.00  0.00    -0.006 A 
ATOM     16  C   LIG    1      -21.120  79.428  36.075  0.00  0.00    +0.046 A 
ATOM     17  C   LIG    1      -20.454  80.631  36.277  0.00  0.00    +0.142 A 
ATOM     18  F   LIG    1      -19.235  80.642  36.831  0.00  0.00    -0.204 F 
ATOM     19  C   LIG    1      -21.059  81.808  35.882  0.00  0.00    +0.149 A 
ATOM     20  N   LIG    1      -22.273  81.855  35.292  0.00  0.00    -0.260 NA
ATOM     21  C   LIG    1      -22.899  80.667  35.096  0.00  0.00    +0.116 A 
ENDBRANCH  11  15
ENDBRANCH   4  10
BRANCH   1  24
ATOM     22  N   LIG    1      -19.153  77.849  32.180  0.00  0.00    -0.309 N 
ATOM     23  H   LIG    1      -19.861  78.564  32.357  0.00  0.00    +0.149 HD
ATOM     24  C   LIG    1      -19.492  76.826  31.332  0.00  0.00    +0.249 C 
ATOM     25  O   LIG    1      -18.743  75.873  31.093  0.00  0.00    -0.270 OA
BRANCH  22  27
ATOM     26  C   LIG    1      -16.875  78.729  32.090  0.00  0.00    +0.027 C 
ATOM     27  C   LIG    1      -17.878  77.894  32.873  0.00  0.00    +0.067 C 
ATOM     28  C   LIG    1      -18.045  78.435  34.291  0.00  0.00    +0.027 C 
ENDBRANCH  22  27
ENDBRANCH   1  24
TORSDOF 4
ENDMDL
MODEL 5
REMARK VINA RESULT:      -5.4      2.408      5.309
REMARK  Name = pdb/CHEMBL3675968.pdb
REMARK                            x       y       z     vdW  Elec       q    Type
REMARK                         _______ _______ _______ _____ _____    ______ ____
ROOT
ATOM      1  C   LIG    1      -25.961  77.193  33.094  0.00  0.00    +0.100 A 
ATOM      2  C   LIG    1      -25.391  77.990  34.078  0.00  0.00    +0.170 A 
ATOM      3  N   LIG    1      -24.167  78.598  34.181  0.00  0.00    -0.212 NA
ATOM      4  C   LIG    1      -23.933  79.352  35.237  0.00  0.00    +0.126 A 
ATOM      5  C   LIG    1      -24.966  79.544  36.323  0.00  0.00    +0.063 A 
ATOM      6  C   LIG    1      -26.125  78.894  36.190  0.00  0.00    +0.118 A 
ATOM      7  N   LIG    1      -26.363  78.113  35.074  0.00  0.00    -0.221 N 
ATOM      8  N   LIG    1      -27.485  77.411  34.793  0.00  0.00    -0.173 NA
ATOM      9  C   LIG    1      -27.237  76.876  33.601  0.00  0.00    +0.150 A 
ENDROOT
BRANCH   4  10
ATOM     10  N   LIG    1      -22.701  79.980  35.350  0.00  0.00    -0.308 N 
ATOM     11  C   LIG    1      -21.520  79.315  35.916  0.00  0.00    +0.107 C 
ATOM     12  C   LIG    1      -20.776  80.482  36.591  0.00  0.00    +0.029 C 
ATOM     13  C   LIG    1      -21.056  81.664  35.679  0.00  0.00    +0.021 C 
ATOM     14  C   LIG    1      -22.484  81.419  35.216  0.00  0.00    +0.107 C 
BRANCH  11  15
ATOM     15  C   LIG    1      -20.690  78.588  34.877  0.00  0.00    -0.006 A 
ATOM     16  C   LIG    1      -20.853  78.865  33.511  0.00  0.00    +0.046 A 
ATOM     17  C   LIG    1      -20.064  78.211  32.573  0.00  0.00    +0.142 A 
ATOM     18  F   LIG    1      -20.204  78.480  31.269  0.00  0.00    -0.204 F 
ATOM     19  C   LIG    1      -19.126  77.295  33.006  0.00  0.00    +0.149 A 
ATOM     20  N   LIG    1      -18.920  77.005  34.309  0.00  0.00    -0.260 NA
ATOM     21  C   LIG    1      -19.695  77.666  35.207  0.00  0.00    +0.116 A 
ENDBRANCH  11  15
ENDBRANCH   4  10
BRANCH   1  24
ATOM     22  N   LIG    1      -24.045  76.745  31.744  0.00  0.00    -0.309 N 
ATOM     23  H   LIG    1      -23.523  76.963  32.595  0.00  0.00    +0.149 HD
ATOM     24  C   LIG    1      -25.415  76.768  31.824  0.00  0.00    +0.249 C 
ATOM     25  O   LIG    1      -26.149  76.461  30.879  0.00  0.00    -0.270 OA
BRANCH  22  27
ATOM     26  C   LIG    1      -23.015  77.573  29.688  0.00  0.00    +0.027 C 
ATOM     27  C   LIG    1      -23.344  76.351  30.535  0.00  0.00    +0.067 C 
ATOM     28  C   LIG    1      -22.078  75.565  30.868  0.00  0.00    +0.027 C 
ENDBRANCH  22  27
ENDBRANCH   1  24
TORSDOF 4
ENDMDL
MODEL 6
REMARK VINA RESULT:      -5.1      2.422      5.340
REMARK  Name = pdb/CHEMBL3675968.pdb
REMARK                            x       y       z     vdW  Elec       q    Type
REMARK                         _______ _______ _______ _____ _____    ______ ____
ROOT
ATOM      1  C   LIG    1      -24.061  79.531  35.003  0.00  0.00    +0.100 A 
ATOM      2  C   LIG    1      -22.673  79.543  34.941  0.00  0.00    +0.170 A 
ATOM      3  N   LIG    1      -21.773  78.787  34.237  0.00  0.00    -0.212 NA
ATOM      4  C   LIG    1      -20.492  79.077  34.350  0.00  0.00    +0.126 A 
ATOM      5  C   LIG    1      -20.007  80.201  35.235  0.00  0.00    +0.063 A 
ATOM      6  C   LIG    1      -20.925  80.877  35.929  0.00  0.00    +0.118 A 
ATOM      7  N   LIG    1      -22.267  80.569  35.797  0.00  0.00    -0.221 N 
ATOM      8  N   LIG    1      -23.308  81.170  36.418  0.00  0.00    -0.173 NA
ATOM      9  C   LIG    1      -24.375  80.550  35.925  0.00  0.00    +0.150 A 
ENDROOT
BRANCH   4  10
ATOM     10  N   LIG    1      -19.570  78.326  33.636  0.00  0.00    -0.308 N 
ATOM     11  C   LIG    1      -19.812  76.927  33.258  0.00  0.00    +0.107 C 
ATOM     12  C   LIG    1      -18.395  76.324  33.304  0.00  0.00    +0.029 C 
ATOM     13  C   LIG    1      -17.503  77.464  32.840  0.00  0.00    +0.021 C 
ATOM     14  C   LIG    1      -18.171  78.695  33.433  0.00  0.00    +0.107 C 
BRANCH  11  15
ATOM     15  C   LIG    1      -20.488  76.781  31.909  0.00  0.00    -0.006 A 
ATOM     16  C   LIG    1      -21.467  75.798  31.704  0.00  0.00    +0.046 A 
ATOM     17  C   LIG    1      -22.097  75.695  30.470  0.00  0.00    +0.142 A 
ATOM     18  F   LIG    1      -23.043  74.769  30.270  0.00  0.00    -0.204 F 
ATOM     19  C   LIG    1      -21.747  76.573  29.462  0.00  0.00    +0.149 A 
ATOM     20  N   LIG    1      -20.822  77.545  29.615  0.00  0.00    -0.260 NA
ATOM     21  C   LIG    1      -20.230  77.633  30.833  0.00  0.00    +0.116 A 
ENDBRANCH  11  15
ENDBRANCH   4  10
BRANCH   1  24
ATOM     22  N   LIG    1      -24.546  78.132  33.132  0.00  0.00    -0.309 N 
ATOM     23  H   LIG    1      -23.566  78.290  32.891  0.00  0.00    +0.149 HD
ATOM     24  C   LIG    1      -25.006  78.695  34.295  0.00  0.00    +0.249 C 
ATOM     25  O   LIG    1      -26.152  78.520  34.721  0.00  0.00    -0.270 OA
BRANCH  22  27
ATOM     26  C   LIG    1      -25.123  77.556  30.828  0.00  0.00    +0.027 C 
ATOM     27  C   LIG    1      -25.374  77.275  32.303  0.00  0.00    +0.067 C 
ATOM     28  C   LIG    1      -25.131  75.802  32.624  0.00  0.00    +0.027 C 
ENDBRANCH  22  27
ENDBRANCH   1  24
TORSDOF 4
ENDMDL
MODEL 7
REMARK VINA RESULT:      -5.1     14.782     18.651
REMARK  Name = pdb/CHEMBL3675968.pdb
REMARK                            x       y       z     vdW  Elec       q    Type
REMARK                         _______ _______ _______ _____ _____    ______ ____
ROOT
ATOM      1  C   LIG    1      -37.321  76.221  26.041  0.00  0.00    +0.100 A 
ATOM      2  C   LIG    1      -38.063  75.235  25.403  0.00  0.00    +0.170 A 
ATOM      3  N   LIG    1      -37.858  73.892  25.229  0.00  0.00    -0.212 NA
ATOM      4  C   LIG    1      -38.790  73.195  24.609  0.00  0.00    +0.126 A 
ATOM      5  C   LIG    1      -40.051  73.843  24.086  0.00  0.00    +0.063 A 
ATOM      6  C   LIG    1      -40.177  75.161  24.247  0.00  0.00    +0.118 A 
ATOM      7  N   LIG    1      -39.197  75.881  24.906  0.00  0.00    -0.221 N 
ATOM      8  N   LIG    1      -39.190  77.210  25.157  0.00  0.00    -0.173 NA
ATOM      9  C   LIG    1      -38.070  77.399  25.848  0.00  0.00    +0.150 A 
ENDROOT
BRANCH   4  10
ATOM     10  N   LIG    1      -38.601  71.832  24.434  0.00  0.00    -0.308 N 
ATOM     11  C   LIG    1      -37.269  71.213  24.415  0.00  0.00    +0.107 C 
ATOM     12  C   LIG    1      -37.461  70.047  23.429  0.00  0.00    +0.029 C 
ATOM     13  C   LIG    1      -38.892  69.599  23.674  0.00  0.00    +0.021 C 
ATOM     14  C   LIG    1      -39.623  70.901  23.959  0.00  0.00    +0.107 C 
BRANCH  11  15
ATOM     15  C   LIG    1      -36.796  70.773  25.787  0.00  0.00    -0.006 A 
ATOM     16  C   LIG    1      -35.500  70.265  25.967  0.00  0.00    +0.046 A 
ATOM     17  C   LIG    1      -35.073  69.892  27.235  0.00  0.00    +0.142 A 
ATOM     18  F   LIG    1      -33.834  69.420  27.417  0.00  0.00    -0.204 F 
ATOM     19  C   LIG    1      -35.937  70.033  28.303  0.00  0.00    +0.149 A 
ATOM     20  N   LIG    1      -37.187  70.531  28.185  0.00  0.00    -0.260 NA
ATOM     21  C   LIG    1      -37.577  70.899  26.938  0.00  0.00    +0.116 A 
ENDBRANCH  11  15
ENDBRANCH   4  10
BRANCH   1  24
ATOM     22  N   LIG    1      -35.873  74.928  27.429  0.00  0.00    -0.309 N 
ATOM     23  H   LIG    1      -36.583  74.203  27.317  0.00  0.00    +0.149 HD
ATOM     24  C   LIG    1      -36.070  76.110  26.760  0.00  0.00    +0.249 C 
ATOM     25  O   LIG    1      -35.250  77.034  26.768  0.00  0.00    -0.270 OA
BRANCH  22  27
ATOM     26  C   LIG    1      -34.956  74.815  29.692  0.00  0.00    +0.027 C 
ATOM     27  C   LIG    1      -34.673  74.666  28.203  0.00  0.00    +0.067 C 
ATOM     28  C   LIG    1      -34.115  73.279  27.894  0.00  0.00    +0.027 C 
ENDBRANCH  22  27
ENDBRANCH   1  24
TORSDOF 4
ENDMDL
MODEL 8
REMARK VINA RESULT:      -5.0     13.666     16.514
REMARK  Name = pdb/CHEMBL3675968.pdb
REMARK                            x       y       z     vdW  Elec       q    Type
REMARK                         _______ _______ _______ _____ _____    ______ ____
ROOT
ATOM      1  C   LIG    1      -37.309  71.386  24.744  0.00  0.00    +0.100 A 
ATOM      2  C   LIG    1      -36.299  71.136  25.664  0.00  0.00    +0.170 A 
ATOM      3  N   LIG    1      -35.800  71.868  26.710  0.00  0.00    -0.212 NA
ATOM      4  C   LIG    1      -34.852  71.328  27.451  0.00  0.00    +0.126 A 
ATOM      5  C   LIG    1      -34.308  69.948  27.166  0.00  0.00    +0.063 A 
ATOM      6  C   LIG    1      -34.803  69.299  26.110  0.00  0.00    +0.118 A 
ATOM      7  N   LIG    1      -35.802  69.871  25.344  0.00  0.00    -0.221 N 
ATOM      8  N   LIG    1      -36.409  69.334  24.261  0.00  0.00    -0.173 NA
ATOM      9  C   LIG    1      -37.317  70.243  23.919  0.00  0.00    +0.150 A 
ENDROOT
BRANCH   4  10
ATOM     10  N   LIG    1      -34.344  72.054  28.519  0.00  0.00    -0.308 N 
ATOM     11  C   LIG    1      -33.392  73.159  28.344  0.00  0.00    +0.107 C 
ATOM     12  C   LIG    1      -32.535  73.061  29.620  0.00  0.00    +0.029 C 
ATOM     13  C   LIG    1      -33.520  72.598  30.681  0.00  0.00    +0.021 C 
ATOM     14  C   LIG    1      -34.434  71.650  29.921  0.00  0.00    +0.107 C 
BRANCH  11  15
ATOM     15  C   LIG    1      -34.067  74.506  28.171  0.00  0.00    -0.006 A 
ATOM     16  C   LIG    1      -33.376  75.582  27.595  0.00  0.00    +0.046 A 
ATOM     17  C   LIG    1      -34.017  76.802  27.418  0.00  0.00    +0.142 A 
ATOM     18  F   LIG    1      -33.369  77.829  26.856  0.00  0.00    -0.204 F 
ATOM     19  C   LIG    1      -35.334  76.932  27.812  0.00  0.00    +0.149 A 
ATOM     20  N   LIG    1      -36.047  75.922  28.357  0.00  0.00    -0.260 NA
ATOM     21  C   LIG    1      -35.402  74.737  28.509  0.00  0.00    +0.116 A 
ENDBRANCH  11  15
ENDBRANCH   4  10
BRANCH   1  24
ATOM     22  N   LIG    1      -37.648  73.731  25.024  0.00  0.00    -0.309 N 
ATOM     23  H   LIG    1      -36.666  73.735  25.304  0.00  0.00    +0.149 HD
ATOM     24  C   LIG    1      -38.184  72.532  24.628  0.00  0.00    +0.249 C 
ATOM     25  O   LIG    1      -39.340  72.417  24.208  0.00  0.00    -0.270 OA
BRANCH  22  27
ATOM     26  C   LIG    1      -39.088  75.229  26.310  0.00  0.00    +0.027 C 
ATOM     27  C   LIG    1      -38.401  74.972  24.976  0.00  0.00    +0.067 C 
ATOM     28  C   LIG    1      -37.499  76.144  24.596  0.00  0.00    +0.027 C 
ENDBRANCH  22  27
ENDBRANCH   1  24
TORSDOF 4
ENDMDL
MODEL 9
REMARK VINA RESULT:      -5.0     18.749     22.179
REMARK  Name = pdb/CHEMBL3675968.pdb
REMARK                            x       y       z     vdW  Elec       q    Type
REMARK                         _______ _______ _______ _____ _____    ______ ____
ROOT
ATOM      1  C   LIG    1      -41.662  70.077  21.094  0.00  0.00    +0.100 A 
ATOM      2  C   LIG    1      -41.715  71.109  22.023  0.00  0.00    +0.170 A 
ATOM      3  N   LIG    1      -40.937  71.416  23.108  0.00  0.00    -0.212 NA
ATOM      4  C   LIG    1      -41.213  72.516  23.781  0.00  0.00    +0.126 A 
ATOM      5  C   LIG    1      -42.358  73.422  23.390  0.00  0.00    +0.063 A 
ATOM      6  C   LIG    1      -43.107  73.051  22.349  0.00  0.00    +0.118 A 
ATOM      7  N   LIG    1      -42.804  71.899  21.647  0.00  0.00    -0.221 N 
ATOM      8  N   LIG    1      -43.457  71.404  20.569  0.00  0.00    -0.173 NA
ATOM      9  C   LIG    1      -42.757  70.323  20.241  0.00  0.00    +0.150 A 
ENDROOT
BRANCH   4  10
ATOM     10  N   LIG    1      -40.428  72.845  24.876  0.00  0.00    -0.308 N 
ATOM     11  C   LIG    1      -39.026  73.265  24.750  0.00  0.00    +0.107 C 
ATOM     12  C   LIG    1      -38.398  72.709  26.041  0.00  0.00    +0.029 C 
ATOM     13  C   LIG    1      -39.510  72.840  27.069  0.00  0.00    +0.021 C 
ATOM     14  C   LIG    1      -40.766  72.541  26.266  0.00  0.00    +0.107 C 
BRANCH  11  15
ATOM     15  C   LIG    1      -38.864  74.764  24.594  0.00  0.00    -0.006 A 
ATOM     16  C   LIG    1      -39.921  75.550  24.109  0.00  0.00    +0.046 A 
ATOM     17  C   LIG    1      -39.766  76.926  23.998  0.00  0.00    +0.142 A 
ATOM     18  F   LIG    1      -40.773  77.684  23.549  0.00  0.00    -0.204 F 
ATOM     19  C   LIG    1      -38.567  77.499  24.374  0.00  0.00    +0.149 A 
ATOM     20  N   LIG    1      -37.527  76.789  24.862  0.00  0.00    -0.260 NA
ATOM     21  C   LIG    1      -37.707  75.448  24.971  0.00  0.00    +0.116 A 
ENDBRANCH  11  15
ENDBRANCH   4  10
BRANCH   1  24
ATOM     22  N   LIG    1      -39.396  69.332  21.127  0.00  0.00    -0.309 N 
ATOM     23  H   LIG    1      -39.188  70.303  21.364  0.00  0.00    +0.149 HD
ATOM     24  C   LIG    1      -40.717  68.989  20.983  0.00  0.00    +0.249 C 
ATOM     25  O   LIG    1      -41.092  67.833  20.760  0.00  0.00    -0.270 OA
BRANCH  22  27
ATOM     26  C   LIG    1      -37.717  68.365  19.639  0.00  0.00    +0.027 C 
ATOM     27  C   LIG    1      -38.325  68.355  21.034  0.00  0.00    +0.067 C 
ATOM     28  C   LIG    1      -37.257  68.612  22.094  0.00  0.00    +0.027 C 
ENDBRANCH  22  27
ENDBRANCH   1  24
TORSDOF 4
ENDMDL
