MODEL 1
REMARK VINA RESULT:      -7.0      0.000      0.000
REMARK  Name = pdb/CHEMBL3903947.pdb
REMARK                            x       y       z     vdW  Elec       q    Type
REMARK                         _______ _______ _______ _____ _____    ______ ____
ROOT
ATOM      1  C   LIG    1      -31.386  74.942  30.023  0.00  0.00    +0.149 A 
ATOM      2  N   LIG    1      -31.456  76.205  29.568  0.00  0.00    -0.160 NA
ATOM      3  N   LIG    1      -32.627  76.275  28.890  0.00  0.00    -0.218 N 
ATOM      4  C   LIG    1      -33.190  75.008  28.699  0.00  0.00    +0.129 A 
ATOM      5  C   LIG    1      -32.449  74.166  29.494  0.00  0.00    +0.078 A 
ENDROOT
BRANCH   3   6
ATOM      6  C   LIG    1      -33.111  77.537  28.449  0.00  0.00    +0.067 A 
ATOM      7  C   LIG    1      -34.215  78.139  29.067  0.00  0.00    +0.028 A 
ATOM      8  C   LIG    1      -34.676  79.381  28.624  0.00  0.00    +0.002 A 
ATOM      9  C   LIG    1      -34.030  80.035  27.577  0.00  0.00    +0.000 A 
ATOM     10  C   LIG    1      -32.911  79.458  26.981  0.00  0.00    +0.002 A 
ATOM     11  C   LIG    1      -32.442  78.218  27.421  0.00  0.00    +0.028 A 
ENDBRANCH   3   6
BRANCH   4  12
ATOM     12  N   LIG    1      -34.227  74.660  27.822  0.00  0.00    -0.266 N 
ATOM     13  H   LIG    1      -33.971  74.455  26.863  0.00  0.00    +0.157 HD
ATOM     14  C   LIG    1      -35.604  74.495  28.219  0.00  0.00    +0.251 C 
ATOM     15  O   LIG    1      -35.954  74.681  29.380  0.00  0.00    -0.270 OA
BRANCH  14  16
ATOM     16  C   LIG    1      -36.573  74.004  27.207  0.00  0.00    +0.056 A 
ATOM     17  C   LIG    1      -36.727  72.662  26.874  0.00  0.00    +0.054 A 
ATOM     18 CL   LIG    1      -35.714  71.408  27.476  0.00  0.00    -0.083 Cl
ATOM     19  C   LIG    1      -37.703  72.282  25.955  0.00  0.00    +0.041 A 
ATOM     20  C   LIG    1      -38.496  73.236  25.301  0.00  0.00    +0.052 A 
ATOM     21 CL   LIG    1      -39.638  72.577  24.182  0.00  0.00    -0.083 Cl
ATOM     22  C   LIG    1      -38.306  74.613  25.528  0.00  0.00    +0.019 A 
ATOM     23  C   LIG    1      -37.347  74.962  26.517  0.00  0.00    +0.026 A 
BRANCH  22  24
ATOM     24  C   LIG    1      -38.944  75.701  24.740  0.00  0.00    +0.072 A 
ATOM     25  N   LIG    1      -40.276  75.523  24.530  0.00  0.00    -0.255 NA
ATOM     26  C   LIG    1      -40.966  76.504  23.904  0.00  0.00    +0.111 A 
ATOM     27  C   LIG    1      -40.396  77.683  23.462  0.00  0.00    +0.020 A 
ATOM     28  C   LIG    1      -39.033  77.849  23.647  0.00  0.00    +0.004 A 
ATOM     29  C   LIG    1      -38.296  76.842  24.271  0.00  0.00    +0.028 A 
ENDBRANCH  22  24
ENDBRANCH  14  16
ENDBRANCH   4  12
BRANCH   1  31
ATOM     30  N   LIG    1      -29.594  75.324  31.530  0.00  0.00    -0.243 NA
ATOM     31  C   LIG    1      -30.315  74.466  30.904  0.00  0.00    +0.236 C 
BRANCH  31  32
ATOM     32  O   LIG    1      -30.177  73.126  30.974  0.00  0.00    -0.491 OA
ATOM     33  H   LIG    1      -30.194  72.708  30.101  0.00  0.00    +0.294 HD
ENDBRANCH  31  32
BRANCH  30  34
ATOM     34  C   LIG    1      -28.553  74.891  32.454  0.00  0.00    +0.204 C 
BRANCH  34  39
ATOM     35  C   LIG    1      -23.740  74.954  31.069  0.00  0.00    +0.174 C 
ATOM     36  N   LIG    1      -25.137  75.221  31.296  0.00  0.00    -0.254 N 
ATOM     37  N   LIG    1      -25.678  76.386  30.905  0.00  0.00    -0.066 NA
ATOM     38  N   LIG    1      -26.954  76.378  31.275  0.00  0.00    -0.133 NA
ATOM     39  C   LIG    1      -27.206  75.187  31.906  0.00  0.00    +0.104 A 
ATOM     40  C   LIG    1      -26.054  74.432  31.921  0.00  0.00    +0.135 A 
ENDBRANCH  34  39
ENDBRANCH  30  34
ENDBRANCH   1  31
TORSDOF 8
ENDMDL
MODEL 2
REMARK VINA RESULT:      -6.8      5.207      7.562
REMARK  Name = pdb/CHEMBL3903947.pdb
REMARK                            x       y       z     vdW  Elec       q    Type
REMARK                         _______ _______ _______ _____ _____    ______ ____
ROOT
ATOM      1  C   LIG    1      -35.094  82.064  29.675  0.00  0.00    +0.149 A 
ATOM      2  N   LIG    1      -34.332  80.963  29.562  0.00  0.00    -0.160 NA
ATOM      3  N   LIG    1      -34.812  80.305  28.479  0.00  0.00    -0.218 N 
ATOM      4  C   LIG    1      -36.027  80.846  28.043  0.00  0.00    +0.129 A 
ATOM      5  C   LIG    1      -36.166  82.020  28.747  0.00  0.00    +0.078 A 
ENDROOT
BRANCH   3   6
ATOM      6  C   LIG    1      -34.097  79.195  27.955  0.00  0.00    +0.067 A 
ATOM      7  C   LIG    1      -34.505  77.882  28.230  0.00  0.00    +0.028 A 
ATOM      8  C   LIG    1      -33.792  76.801  27.705  0.00  0.00    +0.002 A 
ATOM      9  C   LIG    1      -32.683  77.023  26.892  0.00  0.00    +0.000 A 
ATOM     10  C   LIG    1      -32.292  78.325  26.587  0.00  0.00    +0.002 A 
ATOM     11  C   LIG    1      -33.003  79.411  27.105  0.00  0.00    +0.028 A 
ENDBRANCH   3   6
BRANCH   4  12
ATOM     12  N   LIG    1      -36.943  80.274  27.149  0.00  0.00    -0.266 N 
ATOM     13  H   LIG    1      -36.898  80.582  26.184  0.00  0.00    +0.157 HD
ATOM     14  C   LIG    1      -37.871  79.227  27.498  0.00  0.00    +0.251 C 
ATOM     15  O   LIG    1      -37.926  78.786  28.640  0.00  0.00    -0.270 OA
BRANCH  14  16
ATOM     16  C   LIG    1      -38.696  78.631  26.416  0.00  0.00    +0.056 A 
ATOM     17  C   LIG    1      -39.702  79.319  25.746  0.00  0.00    +0.054 A 
ATOM     18 CL   LIG    1      -40.229  80.898  26.180  0.00  0.00    -0.083 Cl
ATOM     19  C   LIG    1      -40.388  78.702  24.702  0.00  0.00    +0.041 A 
ATOM     20  C   LIG    1      -40.132  77.368  24.351  0.00  0.00    +0.052 A 
ATOM     21 CL   LIG    1      -41.095  76.770  23.045  0.00  0.00    -0.083 Cl
ATOM     22  C   LIG    1      -39.195  76.599  25.069  0.00  0.00    +0.019 A 
ATOM     23  C   LIG    1      -38.470  77.277  26.085  0.00  0.00    +0.026 A 
BRANCH  22  24
ATOM     24  C   LIG    1      -39.002  75.132  24.914  0.00  0.00    +0.072 A 
ATOM     25  N   LIG    1      -37.921  74.643  25.579  0.00  0.00    -0.255 NA
ATOM     26  C   LIG    1      -37.714  73.306  25.577  0.00  0.00    +0.111 A 
ATOM     27  C   LIG    1      -38.539  72.402  24.936  0.00  0.00    +0.020 A 
ATOM     28  C   LIG    1      -39.621  72.904  24.230  0.00  0.00    +0.004 A 
ATOM     29  C   LIG    1      -39.843  74.281  24.200  0.00  0.00    +0.028 A 
ENDBRANCH  22  24
ENDBRANCH  14  16
ENDBRANCH   4  12
BRANCH   1  31
ATOM     30  N   LIG    1      -33.634  83.378  31.003  0.00  0.00    -0.243 NA
ATOM     31  C   LIG    1      -34.844  83.115  30.665  0.00  0.00    +0.236 C 
BRANCH  31  32
ATOM     32  O   LIG    1      -35.944  83.725  31.152  0.00  0.00    -0.491 OA
ATOM     33  H   LIG    1      -36.195  84.503  30.632  0.00  0.00    +0.294 HD
ENDBRANCH  31  32
BRANCH  30  34
ATOM     34  C   LIG    1      -33.339  84.450  31.946  0.00  0.00    +0.204 C 
BRANCH  34  39
ATOM     35  C   LIG    1      -31.339  88.621  30.026  0.00  0.00    +0.174 C 
ATOM     36  N   LIG    1      -31.623  87.288  30.489  0.00  0.00    -0.254 N 
ATOM     37  N   LIG    1      -30.772  86.282  30.227  0.00  0.00    -0.066 NA
ATOM     38  N   LIG    1      -31.300  85.171  30.729  0.00  0.00    -0.133 NA
ATOM     39  C   LIG    1      -32.499  85.495  31.311  0.00  0.00    +0.104 A 
ATOM     40  C   LIG    1      -32.716  86.849  31.173  0.00  0.00    +0.135 A 
ENDBRANCH  34  39
ENDBRANCH  30  34
ENDBRANCH   1  31
TORSDOF 8
ENDMDL
MODEL 3
REMARK VINA RESULT:      -6.8      3.941      5.856
REMARK  Name = pdb/CHEMBL3903947.pdb
REMARK                            x       y       z     vdW  Elec       q    Type
REMARK                         _______ _______ _______ _____ _____    ______ ____
ROOT
ATOM      1  C   LIG    1      -29.853  75.667  31.099  0.00  0.00    +0.149 A 
ATOM      2  N   LIG    1      -30.682  76.054  30.114  0.00  0.00    -0.160 NA
ATOM      3  N   LIG    1      -31.556  75.030  29.961  0.00  0.00    -0.218 N 
ATOM      4  C   LIG    1      -31.149  73.892  30.668  0.00  0.00    +0.129 A 
ATOM      5  C   LIG    1      -30.112  74.321  31.463  0.00  0.00    +0.078 A 
ENDROOT
BRANCH   3   6
ATOM      6  C   LIG    1      -32.700  75.199  29.134  0.00  0.00    +0.067 A 
ATOM      7  C   LIG    1      -32.841  76.335  28.326  0.00  0.00    +0.028 A 
ATOM      8  C   LIG    1      -33.969  76.484  27.516  0.00  0.00    +0.002 A 
ATOM      9  C   LIG    1      -34.951  75.496  27.496  0.00  0.00    +0.000 A 
ATOM     10  C   LIG    1      -34.801  74.349  28.271  0.00  0.00    +0.002 A 
ATOM     11  C   LIG    1      -33.673  74.191  29.079  0.00  0.00    +0.028 A 
ENDBRANCH   3   6
BRANCH   4  12
ATOM     12  N   LIG    1      -31.634  72.585  30.530  0.00  0.00    -0.266 N 
ATOM     13  H   LIG    1      -32.548  72.389  30.924  0.00  0.00    +0.157 HD
ATOM     14  C   LIG    1      -30.961  71.542  29.795  0.00  0.00    +0.251 C 
ATOM     15  O   LIG    1      -29.878  71.747  29.257  0.00  0.00    -0.270 OA
BRANCH  14  16
ATOM     16  C   LIG    1      -31.654  70.240  29.630  0.00  0.00    +0.056 A 
ATOM     17  C   LIG    1      -31.314  69.090  30.336  0.00  0.00    +0.054 A 
ATOM     18 CL   LIG    1      -29.952  68.982  31.381  0.00  0.00    -0.083 Cl
ATOM     19  C   LIG    1      -32.057  67.924  30.163  0.00  0.00    +0.041 A 
ATOM     20  C   LIG    1      -33.107  67.862  29.235  0.00  0.00    +0.052 A 
ATOM     21 CL   LIG    1      -33.898  66.326  29.146  0.00  0.00    -0.083 Cl
ATOM     22  C   LIG    1      -33.421  68.969  28.422  0.00  0.00    +0.019 A 
ATOM     23  C   LIG    1      -32.685  70.159  28.669  0.00  0.00    +0.026 A 
BRANCH  22  24
ATOM     24  C   LIG    1      -34.366  68.940  27.275  0.00  0.00    +0.072 A 
ATOM     25  N   LIG    1      -35.562  69.537  27.529  0.00  0.00    -0.255 NA
ATOM     26  C   LIG    1      -36.455  69.645  26.519  0.00  0.00    +0.111 A 
ATOM     27  C   LIG    1      -36.226  69.184  25.237  0.00  0.00    +0.020 A 
ATOM     28  C   LIG    1      -35.020  68.547  24.987  0.00  0.00    +0.004 A 
ATOM     29  C   LIG    1      -34.092  68.404  26.018  0.00  0.00    +0.028 A 
ENDBRANCH  22  24
ENDBRANCH  14  16
ENDBRANCH   4  12
BRANCH   1  31
ATOM     30  N   LIG    1      -27.822  76.000  32.278  0.00  0.00    -0.243 NA
ATOM     31  C   LIG    1      -28.810  76.534  31.656  0.00  0.00    +0.236 C 
BRANCH  31  32
ATOM     32  O   LIG    1      -28.992  77.856  31.461  0.00  0.00    -0.491 OA
ATOM     33  H   LIG    1      -28.776  78.378  32.247  0.00  0.00    +0.294 HD
ENDBRANCH  31  32
BRANCH  30  34
ATOM     34  C   LIG    1      -26.739  76.823  32.802  0.00  0.00    +0.204 C 
BRANCH  34  39
ATOM     35  C   LIG    1      -22.707  76.950  29.833  0.00  0.00    +0.174 C 
ATOM     36  N   LIG    1      -23.988  77.131  30.467  0.00  0.00    -0.254 N 
ATOM     37  N   LIG    1      -24.842  78.064  30.017  0.00  0.00    -0.066 NA
ATOM     38  N   LIG    1      -25.912  78.041  30.805  0.00  0.00    -0.133 NA
ATOM     39  C   LIG    1      -25.715  77.075  31.758  0.00  0.00    +0.104 A 
ATOM     40  C   LIG    1      -24.491  76.477  31.550  0.00  0.00    +0.135 A 
ENDBRANCH  34  39
ENDBRANCH  30  34
ENDBRANCH   1  31
TORSDOF 8
ENDMDL
MODEL 4
REMARK VINA RESULT:      -6.6      7.118     10.004
REMARK  Name = pdb/CHEMBL3903947.pdb
REMARK                            x       y       z     vdW  Elec       q    Type
REMARK                         _______ _______ _______ _____ _____    ______ ____
ROOT
ATOM      1  C   LIG    1      -35.314  67.258  23.079  0.00  0.00    +0.149 A 
ATOM      2  N   LIG    1      -34.763  67.772  24.192  0.00  0.00    -0.160 NA
ATOM      3  N   LIG    1      -35.614  68.746  24.594  0.00  0.00    -0.218 N 
ATOM      4  C   LIG    1      -36.578  69.026  23.619  0.00  0.00    +0.129 A 
ATOM      5  C   LIG    1      -36.445  68.021  22.689  0.00  0.00    +0.078 A 
ENDROOT
BRANCH   3   6
ATOM      6  C   LIG    1      -35.433  69.359  25.864  0.00  0.00    +0.067 A 
ATOM      7  C   LIG    1      -34.618  70.490  26.007  0.00  0.00    +0.028 A 
ATOM      8  C   LIG    1      -34.452  71.082  27.261  0.00  0.00    +0.002 A 
ATOM      9  C   LIG    1      -35.110  70.561  28.373  0.00  0.00    +0.000 A 
ATOM     10  C   LIG    1      -35.949  69.457  28.232  0.00  0.00    +0.002 A 
ATOM     11  C   LIG    1      -36.122  68.863  26.980  0.00  0.00    +0.028 A 
ENDBRANCH   3   6
BRANCH   4  12
ATOM     12  N   LIG    1      -37.433  70.136  23.559  0.00  0.00    -0.266 N 
ATOM     13  H   LIG    1      -37.169  70.887  22.931  0.00  0.00    +0.157 HD
ATOM     14  C   LIG    1      -38.689  70.231  24.262  0.00  0.00    +0.251 C 
ATOM     15  O   LIG    1      -39.074  69.325  24.993  0.00  0.00    -0.270 OA
BRANCH  14  16
ATOM     16  C   LIG    1      -39.548  71.415  24.007  0.00  0.00    +0.056 A 
ATOM     17  C   LIG    1      -40.676  71.388  23.193  0.00  0.00    +0.054 A 
ATOM     18 CL   LIG    1      -41.141  70.025  22.253  0.00  0.00    -0.083 Cl
ATOM     19  C   LIG    1      -41.460  72.532  23.057  0.00  0.00    +0.041 A 
ATOM     20  C   LIG    1      -41.099  73.740  23.673  0.00  0.00    +0.052 A 
ATOM     21 CL   LIG    1      -42.183  75.053  23.372  0.00  0.00    -0.083 Cl
ATOM     22  C   LIG    1      -39.910  73.842  24.421  0.00  0.00    +0.019 A 
ATOM     23  C   LIG    1      -39.168  72.643  24.592  0.00  0.00    +0.026 A 
BRANCH  22  24
ATOM     24  C   LIG    1      -39.336  75.114  24.935  0.00  0.00    +0.072 A 
ATOM     25  N   LIG    1      -40.154  75.785  25.790  0.00  0.00    -0.255 NA
ATOM     26  C   LIG    1      -39.684  76.906  26.384  0.00  0.00    +0.111 A 
ATOM     27  C   LIG    1      -38.417  77.415  26.174  0.00  0.00    +0.020 A 
ATOM     28  C   LIG    1      -37.596  76.749  25.277  0.00  0.00    +0.004 A 
ATOM     29  C   LIG    1      -38.065  75.603  24.635  0.00  0.00    +0.028 A 
ENDBRANCH  22  24
ENDBRANCH  14  16
ENDBRANCH   4  12
BRANCH   1  31
ATOM     30  N   LIG    1      -34.410  66.225  21.145  0.00  0.00    -0.243 NA
ATOM     31  C   LIG    1      -34.763  66.098  22.373  0.00  0.00    +0.236 C 
BRANCH  31  32
ATOM     32  O   LIG    1      -34.678  64.965  23.100  0.00  0.00    -0.491 OA
ATOM     33  H   LIG    1      -35.229  64.254  22.741  0.00  0.00    +0.294 HD
ENDBRANCH  31  32
BRANCH  30  34
ATOM     34  C   LIG    1      -33.810  65.110  20.422  0.00  0.00    +0.204 C 
BRANCH  34  39
ATOM     35  C   LIG    1      -29.893  67.522  18.441  0.00  0.00    +0.174 C 
ATOM     36  N   LIG    1      -30.862  66.559  18.897  0.00  0.00    -0.254 N 
ATOM     37  N   LIG    1      -30.748  65.266  18.552  0.00  0.00    -0.066 NA
ATOM     38  N   LIG    1      -31.789  64.621  19.069  0.00  0.00    -0.133 NA
ATOM     39  C   LIG    1      -32.558  65.532  19.747  0.00  0.00    +0.104 A 
ATOM     40  C   LIG    1      -31.973  66.776  19.653  0.00  0.00    +0.135 A 
ENDBRANCH  34  39
ENDBRANCH  30  34
ENDBRANCH   1  31
TORSDOF 8
ENDMDL
MODEL 5
REMARK VINA RESULT:      -6.6     13.088     16.936
REMARK  Name = pdb/CHEMBL3903947.pdb
REMARK                            x       y       z     vdW  Elec       q    Type
REMARK                         _______ _______ _______ _____ _____    ______ ____
ROOT
ATOM      1  C   LIG    1      -24.498  82.986  37.418  0.00  0.00    +0.149 A 
ATOM      2  N   LIG    1      -23.558  83.195  38.356  0.00  0.00    -0.160 NA
ATOM      3  N   LIG    1      -22.487  82.468  37.955  0.00  0.00    -0.218 N 
ATOM      4  C   LIG    1      -22.812  81.605  36.902  0.00  0.00    +0.129 A 
ATOM      5  C   LIG    1      -24.068  81.994  36.499  0.00  0.00    +0.078 A 
ENDROOT
BRANCH   3   6
ATOM      6  C   LIG    1      -21.241  82.627  38.619  0.00  0.00    +0.067 A 
ATOM      7  C   LIG    1      -20.839  81.729  39.617  0.00  0.00    +0.028 A 
ATOM      8  C   LIG    1      -19.609  81.898  40.259  0.00  0.00    +0.002 A 
ATOM      9  C   LIG    1      -18.769  82.949  39.897  0.00  0.00    +0.000 A 
ATOM     10  C   LIG    1      -19.148  83.825  38.882  0.00  0.00    +0.002 A 
ATOM     11  C   LIG    1      -20.374  83.660  38.234  0.00  0.00    +0.028 A 
ENDBRANCH   3   6
BRANCH   4  12
ATOM     12  N   LIG    1      -22.058  80.525  36.422  0.00  0.00    -0.266 N 
ATOM     13  H   LIG    1      -22.334  79.599  36.727  0.00  0.00    +0.157 HD
ATOM     14  C   LIG    1      -20.986  80.647  35.466  0.00  0.00    +0.251 C 
ATOM     15  O   LIG    1      -20.650  81.741  35.028  0.00  0.00    -0.270 OA
BRANCH  14  16
ATOM     16  C   LIG    1      -20.357  79.402  34.954  0.00  0.00    +0.056 A 
ATOM     17  C   LIG    1      -19.254  78.796  35.547  0.00  0.00    +0.054 A 
ATOM     18 CL   LIG    1      -18.377  79.485  36.856  0.00  0.00    -0.083 Cl
ATOM     19  C   LIG    1      -18.764  77.596  35.035  0.00  0.00    +0.041 A 
ATOM     20  C   LIG    1      -19.320  77.013  33.887  0.00  0.00    +0.052 A 
ATOM     21 CL   LIG    1      -18.566  75.538  33.392  0.00  0.00    -0.083 Cl
ATOM     22  C   LIG    1      -20.371  77.644  33.192  0.00  0.00    +0.019 A 
ATOM     23  C   LIG    1      -20.887  78.832  33.776  0.00  0.00    +0.026 A 
BRANCH  22  24
ATOM     24  C   LIG    1      -20.885  77.222  31.863  0.00  0.00    +0.072 A 
ATOM     25  N   LIG    1      -22.182  76.810  31.877  0.00  0.00    -0.255 NA
ATOM     26  C   LIG    1      -22.770  76.495  30.700  0.00  0.00    +0.111 A 
ATOM     27  C   LIG    1      -22.130  76.565  29.477  0.00  0.00    +0.020 A 
ATOM     28  C   LIG    1      -20.800  76.952  29.468  0.00  0.00    +0.004 A 
ATOM     29  C   LIG    1      -20.165  77.262  30.670  0.00  0.00    +0.028 A 
ENDBRANCH  22  24
ENDBRANCH  14  16
ENDBRANCH   4  12
BRANCH   1  31
ATOM     30  N   LIG    1      -26.638  83.406  36.484  0.00  0.00    -0.243 NA
ATOM     31  C   LIG    1      -25.792  83.675  37.412  0.00  0.00    +0.236 C 
BRANCH  31  32
ATOM     32  O   LIG    1      -25.979  84.562  38.411  0.00  0.00    -0.491 OA
ATOM     33  H   LIG    1      -25.373  85.315  38.354  0.00  0.00    +0.294 HD
ENDBRANCH  31  32
BRANCH  30  34
ATOM     34  C   LIG    1      -27.954  84.032  36.471  0.00  0.00    +0.204 C 
BRANCH  34  39
ATOM     35  C   LIG    1      -28.897  87.791  33.298  0.00  0.00    +0.174 C 
ATOM     36  N   LIG    1      -28.348  86.883  34.272  0.00  0.00    -0.254 N 
ATOM     37  N   LIG    1      -27.107  87.068  34.750  0.00  0.00    -0.066 NA
ATOM     38  N   LIG    1      -26.848  86.070  35.588  0.00  0.00    -0.133 NA
ATOM     39  C   LIG    1      -27.949  85.254  35.629  0.00  0.00    +0.104 A 
ATOM     40  C   LIG    1      -28.922  85.765  34.797  0.00  0.00    +0.135 A 
ENDBRANCH  34  39
ENDBRANCH  30  34
ENDBRANCH   1  31
TORSDOF 8
ENDMDL
MODEL 6
REMARK VINA RESULT:      -6.6      5.186      7.300
REMARK  Name = pdb/CHEMBL3903947.pdb
REMARK                            x       y       z     vdW  Elec       q    Type
REMARK                         _______ _______ _______ _____ _____    ______ ____
ROOT
ATOM      1  C   LIG    1      -34.980  82.198  29.769  0.00  0.00    +0.149 A 
ATOM      2  N   LIG    1      -34.196  81.107  29.725  0.00  0.00    -0.160 NA
ATOM      3  N   LIG    1      -34.625  80.403  28.650  0.00  0.00    -0.218 N 
ATOM      4  C   LIG    1      -35.832  80.907  28.150  0.00  0.00    +0.129 A 
ATOM      5  C   LIG    1      -36.016  82.102  28.804  0.00  0.00    +0.078 A 
ENDROOT
BRANCH   3   6
ATOM      6  C   LIG    1      -33.873  79.286  28.194  0.00  0.00    +0.067 A 
ATOM      7  C   LIG    1      -33.012  79.401  27.094  0.00  0.00    +0.028 A 
ATOM      8  C   LIG    1      -32.277  78.295  26.660  0.00  0.00    +0.002 A 
ATOM      9  C   LIG    1      -32.384  77.077  27.329  0.00  0.00    +0.000 A 
ATOM     10  C   LIG    1      -33.212  76.966  28.444  0.00  0.00    +0.002 A 
ATOM     11  C   LIG    1      -33.947  78.069  28.886  0.00  0.00    +0.028 A 
ENDBRANCH   3   6
BRANCH   4  12
ATOM     12  N   LIG    1      -36.704  80.287  27.244  0.00  0.00    -0.266 N 
ATOM     13  H   LIG    1      -36.686  80.620  26.286  0.00  0.00    +0.157 HD
ATOM     14  C   LIG    1      -37.547  79.163  27.569  0.00  0.00    +0.251 C 
ATOM     15  O   LIG    1      -37.564  78.693  28.701  0.00  0.00    -0.270 OA
BRANCH  14  16
ATOM     16  C   LIG    1      -38.328  78.532  26.476  0.00  0.00    +0.056 A 
ATOM     17  C   LIG    1      -38.048  77.272  25.956  0.00  0.00    +0.054 A 
ATOM     18 CL   LIG    1      -36.671  76.342  26.402  0.00  0.00    -0.083 Cl
ATOM     19  C   LIG    1      -38.869  76.729  24.971  0.00  0.00    +0.041 A 
ATOM     20  C   LIG    1      -39.943  77.457  24.437  0.00  0.00    +0.052 A 
ATOM     21 CL   LIG    1      -40.835  76.626  23.210  0.00  0.00    -0.083 Cl
ATOM     22  C   LIG    1      -40.203  78.776  24.857  0.00  0.00    +0.019 A 
ATOM     23  C   LIG    1      -39.386  79.274  25.907  0.00  0.00    +0.026 A 
BRANCH  22  24
ATOM     24  C   LIG    1      -41.176  79.697  24.213  0.00  0.00    +0.072 A 
ATOM     25  N   LIG    1      -42.476  79.330  24.374  0.00  0.00    -0.255 NA
ATOM     26  C   LIG    1      -43.441  80.155  23.905  0.00  0.00    +0.111 A 
ATOM     27  C   LIG    1      -43.185  81.353  23.268  0.00  0.00    +0.020 A 
ATOM     28  C   LIG    1      -41.860  81.710  23.074  0.00  0.00    +0.004 A 
ATOM     29  C   LIG    1      -40.846  80.867  23.530  0.00  0.00    +0.028 A 
ENDBRANCH  22  24
ENDBRANCH  14  16
ENDBRANCH   4  12
BRANCH   1  31
ATOM     30  N   LIG    1      -33.592  83.579  31.107  0.00  0.00    -0.243 NA
ATOM     31  C   LIG    1      -34.783  83.288  30.729  0.00  0.00    +0.236 C 
BRANCH  31  32
ATOM     32  O   LIG    1      -35.910  83.902  31.145  0.00  0.00    -0.491 OA
ATOM     33  H   LIG    1      -36.575  83.967  30.444  0.00  0.00    +0.294 HD
ENDBRANCH  31  32
BRANCH  30  34
ATOM     34  C   LIG    1      -33.349  84.689  32.021  0.00  0.00    +0.204 C 
BRANCH  34  39
ATOM     35  C   LIG    1      -29.629  87.984  31.402  0.00  0.00    +0.174 C 
ATOM     36  N   LIG    1      -30.581  86.909  31.296  0.00  0.00    -0.254 N 
ATOM     37  N   LIG    1      -30.621  86.144  30.194  0.00  0.00    -0.066 NA
ATOM     38  N   LIG    1      -31.611  85.271  30.348  0.00  0.00    -0.133 NA
ATOM     39  C   LIG    1      -32.193  85.501  31.569  0.00  0.00    +0.104 A 
ATOM     40  C   LIG    1      -31.539  86.542  32.191  0.00  0.00    +0.135 A 
ENDBRANCH  34  39
ENDBRANCH  30  34
ENDBRANCH   1  31
TORSDOF 8
ENDMDL
MODEL 7
REMARK VINA RESULT:      -6.5      6.663      9.090
REMARK  Name = pdb/CHEMBL3903947.pdb
REMARK                            x       y       z     vdW  Elec       q    Type
REMARK                         _______ _______ _______ _____ _____    ______ ____
ROOT
ATOM      1  C   LIG    1      -37.751  77.159  26.424  0.00  0.00    +0.149 A 
ATOM      2  N   LIG    1      -38.779  77.083  25.561  0.00  0.00    -0.160 NA
ATOM      3  N   LIG    1      -38.863  75.773  25.222  0.00  0.00    -0.218 N 
ATOM      4  C   LIG    1      -37.751  75.051  25.669  0.00  0.00    +0.129 A 
ATOM      5  C   LIG    1      -37.083  75.911  26.510  0.00  0.00    +0.078 A 
ENDROOT
BRANCH   3   6
ATOM      6  C   LIG    1      -39.981  75.310  24.476  0.00  0.00    +0.067 A 
ATOM      7  C   LIG    1      -40.877  76.213  23.889  0.00  0.00    +0.028 A 
ATOM      8  C   LIG    1      -41.969  75.742  23.156  0.00  0.00    +0.002 A 
ATOM      9  C   LIG    1      -42.162  74.372  22.991  0.00  0.00    +0.000 A 
ATOM     10  C   LIG    1      -41.257  73.470  23.544  0.00  0.00    +0.002 A 
ATOM     11  C   LIG    1      -40.160  73.934  24.274  0.00  0.00    +0.028 A 
ENDBRANCH   3   6
BRANCH   4  12
ATOM     12  N   LIG    1      -37.357  73.764  25.277  0.00  0.00    -0.266 N 
ATOM     13  H   LIG    1      -36.911  73.674  24.371  0.00  0.00    +0.157 HD
ATOM     14  C   LIG    1      -37.470  72.592  26.110  0.00  0.00    +0.251 C 
ATOM     15  O   LIG    1      -37.956  72.660  27.234  0.00  0.00    -0.270 OA
BRANCH  14  16
ATOM     16  C   LIG    1      -36.899  71.316  25.609  0.00  0.00    +0.056 A 
ATOM     17  C   LIG    1      -35.717  70.760  26.088  0.00  0.00    +0.054 A 
ATOM     18 CL   LIG    1      -34.681  71.546  27.213  0.00  0.00    -0.083 Cl
ATOM     19  C   LIG    1      -35.284  69.527  25.603  0.00  0.00    +0.041 A 
ATOM     20  C   LIG    1      -35.982  68.860  24.585  0.00  0.00    +0.052 A 
ATOM     21 CL   LIG    1      -35.282  67.355  24.100  0.00  0.00    -0.083 Cl
ATOM     22  C   LIG    1      -37.127  69.434  23.997  0.00  0.00    +0.019 A 
ATOM     23  C   LIG    1      -37.575  70.659  24.558  0.00  0.00    +0.026 A 
BRANCH  22  24
ATOM     24  C   LIG    1      -37.811  68.913  22.783  0.00  0.00    +0.072 A 
ATOM     25  N   LIG    1      -39.044  68.392  23.025  0.00  0.00    -0.255 NA
ATOM     26  C   LIG    1      -39.785  67.978  21.971  0.00  0.00    +0.111 A 
ATOM     27  C   LIG    1      -39.363  68.051  20.658  0.00  0.00    +0.020 A 
ATOM     28  C   LIG    1      -38.093  68.551  20.416  0.00  0.00    +0.004 A 
ATOM     29  C   LIG    1      -37.301  68.964  21.487  0.00  0.00    +0.028 A 
ENDBRANCH  22  24
ENDBRANCH  14  16
ENDBRANCH   4  12
BRANCH   1  31
ATOM     30  N   LIG    1      -38.270  79.303  27.297  0.00  0.00    -0.243 NA
ATOM     31  C   LIG    1      -37.380  78.394  27.121  0.00  0.00    +0.236 C 
BRANCH  31  32
ATOM     32  O   LIG    1      -36.094  78.467  27.523  0.00  0.00    -0.491 OA
ATOM     33  H   LIG    1      -35.618  79.198  27.103  0.00  0.00    +0.294 HD
ENDBRANCH  31  32
BRANCH  30  34
ATOM     34  C   LIG    1      -37.954  80.523  28.029  0.00  0.00    +0.204 C 
BRANCH  34  39
ATOM     35  C   LIG    1      -37.445  84.062  24.521  0.00  0.00    +0.174 C 
ATOM     36  N   LIG    1      -37.277  83.125  25.602  0.00  0.00    -0.254 N 
ATOM     37  N   LIG    1      -36.073  82.953  26.170  0.00  0.00    -0.066 NA
ATOM     38  N   LIG    1      -36.199  82.010  27.098  0.00  0.00    -0.133 NA
ATOM     39  C   LIG    1      -37.506  81.593  27.103  0.00  0.00    +0.104 A 
ATOM     40  C   LIG    1      -38.211  82.304  26.156  0.00  0.00    +0.135 A 
ENDBRANCH  34  39
ENDBRANCH  30  34
ENDBRANCH   1  31
TORSDOF 8
ENDMDL
MODEL 8
REMARK VINA RESULT:      -6.5      8.566     11.861
REMARK  Name = pdb/CHEMBL3903947.pdb
REMARK                            x       y       z     vdW  Elec       q    Type
REMARK                         _______ _______ _______ _____ _____    ______ ____
ROOT
ATOM      1  C   LIG    1      -24.380  79.330  34.705  0.00  0.00    +0.149 A 
ATOM      2  N   LIG    1      -23.431  79.012  33.808  0.00  0.00    -0.160 NA
ATOM      3  N   LIG    1      -23.964  78.011  33.067  0.00  0.00    -0.218 N 
ATOM      4  C   LIG    1      -25.146  77.520  33.633  0.00  0.00    +0.129 A 
ATOM      5  C   LIG    1      -25.461  78.415  34.628  0.00  0.00    +0.078 A 
ENDROOT
BRANCH   3   6
ATOM      6  C   LIG    1      -23.296  77.576  31.889  0.00  0.00    +0.067 A 
ATOM      7  C   LIG    1      -23.881  77.746  30.627  0.00  0.00    +0.028 A 
ATOM      8  C   LIG    1      -23.210  77.316  29.480  0.00  0.00    +0.002 A 
ATOM      9  C   LIG    1      -21.950  76.731  29.583  0.00  0.00    +0.000 A 
ATOM     10  C   LIG    1      -21.348  76.590  30.832  0.00  0.00    +0.002 A 
ATOM     11  C   LIG    1      -22.011  77.022  31.983  0.00  0.00    +0.028 A 
ENDBRANCH   3   6
BRANCH   4  12
ATOM     12  N   LIG    1      -25.813  76.330  33.312  0.00  0.00    -0.266 N 
ATOM     13  H   LIG    1      -25.581  75.509  33.860  0.00  0.00    +0.157 HD
ATOM     14  C   LIG    1      -26.858  76.227  32.324  0.00  0.00    +0.251 C 
ATOM     15  O   LIG    1      -27.211  77.204  31.672  0.00  0.00    -0.270 OA
BRANCH  14  16
ATOM     16  C   LIG    1      -27.561  74.927  32.178  0.00  0.00    +0.056 A 
ATOM     17  C   LIG    1      -28.920  74.753  32.421  0.00  0.00    +0.054 A 
ATOM     18 CL   LIG    1      -29.936  75.981  33.070  0.00  0.00    -0.083 Cl
ATOM     19  C   LIG    1      -29.512  73.511  32.202  0.00  0.00    +0.041 A 
ATOM     20  C   LIG    1      -28.750  72.403  31.801  0.00  0.00    +0.052 A 
ATOM     21 CL   LIG    1      -29.654  70.944  31.598  0.00  0.00    -0.083 Cl
ATOM     22  C   LIG    1      -27.354  72.505  31.642  0.00  0.00    +0.019 A 
ATOM     23  C   LIG    1      -26.793  73.800  31.813  0.00  0.00    +0.026 A 
BRANCH  22  24
ATOM     24  C   LIG    1      -26.436  71.355  31.426  0.00  0.00    +0.072 A 
ATOM     25  N   LIG    1      -26.499  70.825  30.174  0.00  0.00    -0.255 NA
ATOM     26  C   LIG    1      -25.636  69.835  29.850  0.00  0.00    +0.111 A 
ATOM     27  C   LIG    1      -24.689  69.325  30.718  0.00  0.00    +0.020 A 
ATOM     28  C   LIG    1      -24.649  69.843  32.003  0.00  0.00    +0.004 A 
ATOM     29  C   LIG    1      -25.542  70.850  32.368  0.00  0.00    +0.028 A 
ENDBRANCH  22  24
ENDBRANCH  14  16
ENDBRANCH   4  12
BRANCH   1  31
ATOM     30  N   LIG    1      -25.234  80.722  36.426  0.00  0.00    -0.243 NA
ATOM     31  C   LIG    1      -24.252  80.448  35.645  0.00  0.00    +0.236 C 
BRANCH  31  32
ATOM     32  O   LIG    1      -23.079  81.112  35.598  0.00  0.00    -0.491 OA
ATOM     33  H   LIG    1      -22.821  81.466  36.461  0.00  0.00    +0.294 HD
ENDBRANCH  31  32
BRANCH  30  34
ATOM     34  C   LIG    1      -25.128  81.793  37.410  0.00  0.00    +0.204 C 
BRANCH  34  39
ATOM     35  C   LIG    1      -28.987  84.938  36.858  0.00  0.00    +0.174 C 
ATOM     36  N   LIG    1      -27.712  84.268  36.848  0.00  0.00    -0.254 N 
ATOM     37  N   LIG    1      -26.688  84.767  36.137  0.00  0.00    -0.066 NA
ATOM     38  N   LIG    1      -25.662  83.933  36.273  0.00  0.00    -0.133 NA
ATOM     39  C   LIG    1      -26.060  82.901  37.085  0.00  0.00    +0.104 A 
ATOM     40  C   LIG    1      -27.367  83.106  37.468  0.00  0.00    +0.135 A 
ENDBRANCH  34  39
ENDBRANCH  30  34
ENDBRANCH   1  31
TORSDOF 8
ENDMDL
MODEL 9
REMARK VINA RESULT:      -6.5     17.316     19.709
REMARK  Name = pdb/CHEMBL3903947.pdb
REMARK                            x       y       z     vdW  Elec       q    Type
REMARK                         _______ _______ _______ _____ _____    ______ ____
ROOT
ATOM      1  C   LIG    1      -26.065  77.709  14.130  0.00  0.00    +0.149 A 
ATOM      2  N   LIG    1      -24.802  77.794  14.584  0.00  0.00    -0.160 NA
ATOM      3  N   LIG    1      -24.501  79.115  14.552  0.00  0.00    -0.218 N 
ATOM      4  C   LIG    1      -25.468  79.849  13.855  0.00  0.00    +0.129 A 
ATOM      5  C   LIG    1      -26.508  78.971  13.660  0.00  0.00    +0.078 A 
ENDROOT
BRANCH   3   6
ATOM      6  C   LIG    1      -23.304  79.579  15.162  0.00  0.00    +0.067 A 
ATOM      7  C   LIG    1      -22.078  78.948  14.911  0.00  0.00    +0.028 A 
ATOM      8  C   LIG    1      -20.910  79.417  15.516  0.00  0.00    +0.002 A 
ATOM      9  C   LIG    1      -20.956  80.526  16.359  0.00  0.00    +0.000 A 
ATOM     10  C   LIG    1      -22.165  81.178  16.587  0.00  0.00    +0.002 A 
ATOM     11  C   LIG    1      -23.337  80.717  15.981  0.00  0.00    +0.028 A 
ENDBRANCH   3   6
BRANCH   4  12
ATOM     12  N   LIG    1      -25.362  81.165  13.383  0.00  0.00    -0.266 N 
ATOM     13  H   LIG    1      -25.946  81.863  13.829  0.00  0.00    +0.157 HD
ATOM     14  C   LIG    1      -24.421  81.593  12.377  0.00  0.00    +0.251 C 
ATOM     15  O   LIG    1      -23.657  80.794  11.845  0.00  0.00    -0.270 OA
BRANCH  14  16
ATOM     16  C   LIG    1      -24.338  83.042  12.064  0.00  0.00    +0.056 A 
ATOM     17  C   LIG    1      -25.152  83.678  11.133  0.00  0.00    +0.054 A 
ATOM     18 CL   LIG    1      -26.258  82.848  10.110  0.00  0.00    -0.083 Cl
ATOM     19  C   LIG    1      -25.047  85.055  10.945  0.00  0.00    +0.041 A 
ATOM     20  C   LIG    1      -24.084  85.811  11.630  0.00  0.00    +0.052 A 
ATOM     21 CL   LIG    1      -24.093  87.498  11.252  0.00  0.00    -0.083 Cl
ATOM     22  C   LIG    1      -23.169  85.195  12.506  0.00  0.00    +0.019 A 
ATOM     23  C   LIG    1      -23.345  83.801  12.722  0.00  0.00    +0.026 A 
BRANCH  22  24
ATOM     24  C   LIG    1      -21.990  85.867  13.114  0.00  0.00    +0.072 A 
ATOM     25  N   LIG    1      -22.300  86.708  14.137  0.00  0.00    -0.255 NA
ATOM     26  C   LIG    1      -21.288  87.295  14.817  0.00  0.00    +0.111 A 
ATOM     27  C   LIG    1      -19.951  87.091  14.533  0.00  0.00    +0.020 A 
ATOM     28  C   LIG    1      -19.638  86.260  13.469  0.00  0.00    +0.004 A 
ATOM     29  C   LIG    1      -20.664  85.660  12.739  0.00  0.00    +0.028 A 
ENDBRANCH  22  24
ENDBRANCH  14  16
ENDBRANCH   4  12
BRANCH   1  31
ATOM     30  N   LIG    1      -26.320  75.436  13.499  0.00  0.00    -0.243 NA
ATOM     31  C   LIG    1      -26.822  76.454  14.099  0.00  0.00    +0.236 C 
BRANCH  31  32
ATOM     32  O   LIG    1      -28.019  76.486  14.720  0.00  0.00    -0.491 OA
ATOM     33  H   LIG    1      -28.180  75.693  15.252  0.00  0.00    +0.294 HD
ENDBRANCH  31  32
BRANCH  30  34
ATOM     34  C   LIG    1      -27.018  74.157  13.489  0.00  0.00    +0.204 C 
BRANCH  34  39
ATOM     35  C   LIG    1      -26.668  70.992  17.355  0.00  0.00    +0.174 C 
ATOM     36  N   LIG    1      -26.449  71.960  16.313  0.00  0.00    -0.254 N 
ATOM     37  N   LIG    1      -25.290  72.637  16.247  0.00  0.00    -0.066 NA
ATOM     38  N   LIG    1      -25.379  73.483  15.227  0.00  0.00    -0.133 NA
ATOM     39  C   LIG    1      -26.614  73.327  14.651  0.00  0.00    +0.104 A 
ATOM     40  C   LIG    1      -27.308  72.349  15.331  0.00  0.00    +0.135 A 
ENDBRANCH  34  39
ENDBRANCH  30  34
ENDBRANCH   1  31
TORSDOF 8
ENDMDL
