MODEL 1
REMARK VINA RESULT:      -6.7      0.000      0.000
REMARK  Name = pdb/CHEMBL3890064.pdb
REMARK                            x       y       z     vdW  Elec       q    Type
REMARK                         _______ _______ _______ _____ _____    ______ ____
ROOT
ATOM      1  C   LIG    1      -31.317  87.175  30.669  0.00  0.00    +0.149 A 
ATOM      2  N   LIG    1      -32.324  87.972  30.285  0.00  0.00    -0.160 NA
ATOM      3  N   LIG    1      -33.281  87.139  29.823  0.00  0.00    -0.218 N 
ATOM      4  C   LIG    1      -32.821  85.821  29.750  0.00  0.00    +0.129 A 
ATOM      5  C   LIG    1      -31.546  85.847  30.263  0.00  0.00    +0.078 A 
ENDROOT
BRANCH   3   6
ATOM      6  C   LIG    1      -34.558  87.668  29.492  0.00  0.00    +0.067 A 
ATOM      7  C   LIG    1      -34.758  88.394  28.313  0.00  0.00    +0.028 A 
ATOM      8  C   LIG    1      -36.013  88.930  28.026  0.00  0.00    +0.002 A 
ATOM      9  C   LIG    1      -37.078  88.728  28.902  0.00  0.00    +0.000 A 
ATOM     10  C   LIG    1      -36.900  87.965  30.054  0.00  0.00    +0.002 A 
ATOM     11  C   LIG    1      -35.647  87.423  30.345  0.00  0.00    +0.028 A 
ENDBRANCH   3   6
BRANCH   4  12
ATOM     12  N   LIG    1      -33.474  84.701  29.227  0.00  0.00    -0.266 N 
ATOM     13  H   LIG    1      -33.319  84.480  28.255  0.00  0.00    +0.157 HD
ATOM     14  C   LIG    1      -34.304  83.827  30.000  0.00  0.00    +0.251 C 
ATOM     15  O   LIG    1      -34.469  83.997  31.208  0.00  0.00    -0.270 OA
BRANCH  14  16
ATOM     16  C   LIG    1      -35.012  82.745  29.306  0.00  0.00    +0.056 A 
ATOM     17  C   LIG    1      -36.375  82.781  29.023  0.00  0.00    +0.054 A 
ATOM     18 CL   LIG    1      -37.389  84.144  29.335  0.00  0.00    -0.083 Cl
ATOM     19  C   LIG    1      -36.978  81.667  28.456  0.00  0.00    +0.041 A 
ATOM     20  C   LIG    1      -36.233  80.518  28.139  0.00  0.00    +0.052 A 
ATOM     21 CL   LIG    1      -37.205  79.163  27.679  0.00  0.00    -0.083 Cl
ATOM     22  C   LIG    1      -34.830  80.479  28.298  0.00  0.00    +0.022 A 
ATOM     23  C   LIG    1      -34.255  81.615  28.917  0.00  0.00    +0.026 A 
BRANCH  22  24
ATOM     24  C   LIG    1      -33.943  79.350  27.892  0.00  0.00    +0.107 A 
ATOM     25  C   LIG    1      -33.880  78.112  28.538  0.00  0.00    +0.149 A 
ATOM     26  F   LIG    1      -34.696  77.792  29.549  0.00  0.00    -0.203 F 
ATOM     27  C   LIG    1      -32.996  77.130  28.103  0.00  0.00    +0.042 A 
ATOM     28  C   LIG    1      -32.232  77.360  26.970  0.00  0.00    +0.023 A 
ATOM     29  C   LIG    1      -32.382  78.577  26.330  0.00  0.00    +0.111 A 
ATOM     30  N   LIG    1      -33.200  79.571  26.766  0.00  0.00    -0.252 NA
ENDBRANCH  22  24
ENDBRANCH  14  16
ENDBRANCH   4  12
BRANCH   1  31
ATOM     31  C   LIG    1      -30.147  87.674  31.379  0.00  0.00    +0.236 C 
ATOM     32  N   LIG    1      -30.232  87.934  32.631  0.00  0.00    -0.244 NA
BRANCH  31  33
ATOM     33  O   LIG    1      -29.050  87.805  30.607  0.00  0.00    -0.491 OA
ATOM     34  H   LIG    1      -28.262  87.406  30.984  0.00  0.00    +0.294 HD
ENDBRANCH  31  33
BRANCH  32  35
ATOM     35  C   LIG    1      -29.082  88.415  33.382  0.00  0.00    +0.183 C 
BRANCH  35  36
ATOM     36  C   LIG    1      -28.457  87.327  34.191  0.00  0.00    +0.011 A 
ATOM     37  C   LIG    1      -29.016  86.110  34.540  0.00  0.00    +0.110 A 
ATOM     38  N   LIG    1      -28.110  85.476  35.341  0.00  0.00    -0.284 N 
ATOM     39  H   LIG    1      -28.196  84.576  35.804  0.00  0.00    +0.188 HD
ATOM     40  N   LIG    1      -26.973  86.168  35.504  0.00  0.00    -0.182 NA
ATOM     41  C   LIG    1      -27.173  87.274  34.782  0.00  0.00    +0.139 A 
ENDBRANCH  35  36
ENDBRANCH  32  35
ENDBRANCH   1  31
TORSDOF 8
ENDMDL
MODEL 2
REMARK VINA RESULT:      -6.6      8.355     13.949
REMARK  Name = pdb/CHEMBL3890064.pdb
REMARK                            x       y       z     vdW  Elec       q    Type
REMARK                         _______ _______ _______ _____ _____    ______ ____
ROOT
ATOM      1  C   LIG    1      -29.871  75.962  31.236  0.00  0.00    +0.149 A 
ATOM      2  N   LIG    1      -29.465  74.690  31.353  0.00  0.00    -0.160 NA
ATOM      3  N   LIG    1      -28.251  74.757  31.942  0.00  0.00    -0.218 N 
ATOM      4  C   LIG    1      -27.805  76.078  32.046  0.00  0.00    +0.129 A 
ATOM      5  C   LIG    1      -28.832  76.853  31.562  0.00  0.00    +0.078 A 
ENDROOT
BRANCH   3   6
ATOM      6  C   LIG    1      -27.618  73.556  32.362  0.00  0.00    +0.067 A 
ATOM      7  C   LIG    1      -26.512  73.042  31.677  0.00  0.00    +0.028 A 
ATOM      8  C   LIG    1      -25.929  71.844  32.090  0.00  0.00    +0.002 A 
ATOM      9  C   LIG    1      -26.432  71.165  33.196  0.00  0.00    +0.000 A 
ATOM     10  C   LIG    1      -27.503  71.693  33.913  0.00  0.00    +0.002 A 
ATOM     11  C   LIG    1      -28.090  72.893  33.509  0.00  0.00    +0.028 A 
ENDBRANCH   3   6
BRANCH   4  12
ATOM     12  N   LIG    1      -26.565  76.542  32.494  0.00  0.00    -0.266 N 
ATOM     13  H   LIG    1      -26.380  76.501  33.485  0.00  0.00    +0.157 HD
ATOM     14  C   LIG    1      -25.531  77.023  31.628  0.00  0.00    +0.251 C 
ATOM     15  O   LIG    1      -25.666  77.025  30.405  0.00  0.00    -0.270 OA
BRANCH  14  16
ATOM     16  C   LIG    1      -24.315  77.576  32.236  0.00  0.00    +0.056 A 
ATOM     17  C   LIG    1      -23.031  77.183  31.871  0.00  0.00    +0.054 A 
ATOM     18 CL   LIG    1      -22.687  76.091  30.577  0.00  0.00    -0.083 Cl
ATOM     19  C   LIG    1      -21.944  77.685  32.572  0.00  0.00    +0.041 A 
ATOM     20  C   LIG    1      -22.117  78.600  33.624  0.00  0.00    +0.052 A 
ATOM     21 CL   LIG    1      -20.672  78.907  34.526  0.00  0.00    -0.083 Cl
ATOM     22  C   LIG    1      -23.389  79.118  33.953  0.00  0.00    +0.022 A 
ATOM     23  C   LIG    1      -24.477  78.554  33.246  0.00  0.00    +0.026 A 
BRANCH  22  24
ATOM     24  C   LIG    1      -23.660  80.169  34.977  0.00  0.00    +0.107 A 
ATOM     25  C   LIG    1      -24.721  80.143  35.887  0.00  0.00    +0.149 A 
ATOM     26  F   LIG    1      -25.556  79.102  35.980  0.00  0.00    -0.203 F 
ATOM     27  C   LIG    1      -24.908  81.187  36.787  0.00  0.00    +0.042 A 
ATOM     28  C   LIG    1      -23.985  82.220  36.828  0.00  0.00    +0.023 A 
ATOM     29  C   LIG    1      -22.917  82.164  35.951  0.00  0.00    +0.111 A 
ATOM     30  N   LIG    1      -22.741  81.181  35.028  0.00  0.00    -0.252 NA
ENDBRANCH  22  24
ENDBRANCH  14  16
ENDBRANCH   4  12
BRANCH   1  31
ATOM     31  C   LIG    1      -31.212  76.321  30.792  0.00  0.00    +0.236 C 
ATOM     32  N   LIG    1      -31.494  76.279  29.543  0.00  0.00    -0.244 NA
BRANCH  31  33
ATOM     33  O   LIG    1      -32.049  76.663  31.791  0.00  0.00    -0.491 OA
ATOM     34  H   LIG    1      -31.739  77.403  32.319  0.00  0.00    +0.294 HD
ENDBRANCH  31  33
BRANCH  32  35
ATOM     35  C   LIG    1      -32.825  76.610  29.058  0.00  0.00    +0.183 C 
BRANCH  35  36
ATOM     36  C   LIG    1      -32.778  77.627  27.966  0.00  0.00    +0.011 A 
ATOM     37  C   LIG    1      -32.153  77.514  26.737  0.00  0.00    +0.110 A 
ATOM     38  N   LIG    1      -32.312  78.714  26.103  0.00  0.00    -0.284 N 
ATOM     39  H   LIG    1      -31.959  79.001  25.195  0.00  0.00    +0.188 HD
ATOM     40  N   LIG    1      -33.040  79.592  26.808  0.00  0.00    -0.182 NA
ATOM     41  C   LIG    1      -33.347  78.921  27.922  0.00  0.00    +0.139 A 
ENDBRANCH  35  36
ENDBRANCH  32  35
ENDBRANCH   1  31
TORSDOF 8
ENDMDL
MODEL 3
REMARK VINA RESULT:      -6.5      8.344     10.474
REMARK  Name = pdb/CHEMBL3890064.pdb
REMARK                            x       y       z     vdW  Elec       q    Type
REMARK                         _______ _______ _______ _____ _____    ______ ____
ROOT
ATOM      1  C   LIG    1      -31.427  74.619  29.930  0.00  0.00    +0.149 A 
ATOM      2  N   LIG    1      -31.414  75.883  29.484  0.00  0.00    -0.160 NA
ATOM      3  N   LIG    1      -32.545  76.016  28.758  0.00  0.00    -0.218 N 
ATOM      4  C   LIG    1      -33.196  74.790  28.595  0.00  0.00    +0.129 A 
ATOM      5  C   LIG    1      -32.460  73.883  29.321  0.00  0.00    +0.078 A 
ENDROOT
BRANCH   3   6
ATOM      6  C   LIG    1      -32.914  77.303  28.282  0.00  0.00    +0.067 A 
ATOM      7  C   LIG    1      -33.891  78.064  28.932  0.00  0.00    +0.028 A 
ATOM      8  C   LIG    1      -34.258  79.311  28.427  0.00  0.00    +0.002 A 
ATOM      9  C   LIG    1      -33.639  79.813  27.284  0.00  0.00    +0.000 A 
ATOM     10  C   LIG    1      -32.632  79.084  26.657  0.00  0.00    +0.002 A 
ATOM     11  C   LIG    1      -32.257  77.837  27.159  0.00  0.00    +0.028 A 
ENDBRANCH   3   6
BRANCH   4  12
ATOM     12  N   LIG    1      -34.326  74.503  27.825  0.00  0.00    -0.266 N 
ATOM     13  H   LIG    1      -34.182  74.074  26.923  0.00  0.00    +0.157 HD
ATOM     14  C   LIG    1      -35.670  74.735  28.261  0.00  0.00    +0.251 C 
ATOM     15  O   LIG    1      -35.915  75.181  29.382  0.00  0.00    -0.270 OA
BRANCH  14  16
ATOM     16  C   LIG    1      -36.764  74.482  27.314  0.00  0.00    +0.056 A 
ATOM     17  C   LIG    1      -37.164  73.205  26.932  0.00  0.00    +0.054 A 
ATOM     18 CL   LIG    1      -36.522  71.750  27.606  0.00  0.00    -0.083 Cl
ATOM     19  C   LIG    1      -38.138  73.067  25.953  0.00  0.00    +0.041 A 
ATOM     20  C   LIG    1      -38.741  74.190  25.363  0.00  0.00    +0.052 A 
ATOM     21 CL   LIG    1      -39.737  73.809  24.000  0.00  0.00    -0.083 Cl
ATOM     22  C   LIG    1      -38.453  75.501  25.802  0.00  0.00    +0.022 A 
ATOM     23  C   LIG    1      -37.427  75.607  26.771  0.00  0.00    +0.026 A 
BRANCH  22  24
ATOM     24  C   LIG    1      -39.118  76.745  25.314  0.00  0.00    +0.107 A 
ATOM     25  C   LIG    1      -38.671  77.521  24.240  0.00  0.00    +0.149 A 
ATOM     26  F   LIG    1      -37.631  77.156  23.481  0.00  0.00    -0.203 F 
ATOM     27  C   LIG    1      -39.343  78.683  23.878  0.00  0.00    +0.042 A 
ATOM     28  C   LIG    1      -40.510  79.026  24.542  0.00  0.00    +0.023 A 
ATOM     29  C   LIG    1      -40.945  78.188  25.553  0.00  0.00    +0.111 A 
ATOM     30  N   LIG    1      -40.277  77.075  25.958  0.00  0.00    -0.252 NA
ENDBRANCH  22  24
ENDBRANCH  14  16
ENDBRANCH   4  12
BRANCH   1  31
ATOM     31  C   LIG    1      -30.455  74.115  30.891  0.00  0.00    +0.236 C 
ATOM     32  N   LIG    1      -29.833  74.940  31.650  0.00  0.00    -0.244 NA
BRANCH  31  33
ATOM     33  O   LIG    1      -30.318  72.775  30.883  0.00  0.00    -0.491 OA
ATOM     34  H   LIG    1      -29.656  72.450  31.499  0.00  0.00    +0.294 HD
ENDBRANCH  31  33
BRANCH  32  35
ATOM     35  C   LIG    1      -28.869  74.478  32.637  0.00  0.00    +0.183 C 
BRANCH  35  36
ATOM     36  C   LIG    1      -27.474  74.521  32.108  0.00  0.00    +0.011 A 
ATOM     37  C   LIG    1      -26.653  73.447  31.810  0.00  0.00    +0.110 A 
ATOM     38  N   LIG    1      -25.449  73.965  31.428  0.00  0.00    -0.284 N 
ATOM     39  H   LIG    1      -24.602  73.471  31.167  0.00  0.00    +0.188 HD
ATOM     40  N   LIG    1      -25.434  75.306  31.406  0.00  0.00    -0.182 NA
ATOM     41  C   LIG    1      -26.670  75.640  31.787  0.00  0.00    +0.139 A 
ENDBRANCH  35  36
ENDBRANCH  32  35
ENDBRANCH   1  31
TORSDOF 8
ENDMDL
MODEL 4
REMARK VINA RESULT:      -6.5     18.319     19.891
REMARK  Name = pdb/CHEMBL3890064.pdb
REMARK                            x       y       z     vdW  Elec       q    Type
REMARK                         _______ _______ _______ _____ _____    ______ ____
ROOT
ATOM      1  C   LIG    1      -22.718  83.099  15.328  0.00  0.00    +0.149 A 
ATOM      2  N   LIG    1      -23.681  82.556  14.568  0.00  0.00    -0.160 NA
ATOM      3  N   LIG    1      -23.582  81.224  14.765  0.00  0.00    -0.218 N 
ATOM      4  C   LIG    1      -22.447  80.901  15.515  0.00  0.00    +0.129 A 
ATOM      5  C   LIG    1      -21.872  82.103  15.850  0.00  0.00    +0.078 A 
ENDROOT
BRANCH   3   6
ATOM      6  C   LIG    1      -24.581  80.369  14.226  0.00  0.00    +0.067 A 
ATOM      7  C   LIG    1      -24.864  80.361  12.856  0.00  0.00    +0.028 A 
ATOM      8  C   LIG    1      -25.871  79.536  12.355  0.00  0.00    +0.002 A 
ATOM      9  C   LIG    1      -26.584  78.701  13.213  0.00  0.00    +0.000 A 
ATOM     10  C   LIG    1      -26.276  78.667  14.571  0.00  0.00    +0.002 A 
ATOM     11  C   LIG    1      -25.267  79.488  15.078  0.00  0.00    +0.028 A 
ENDBRANCH   3   6
BRANCH   4  12
ATOM     12  N   LIG    1      -21.949  79.634  15.832  0.00  0.00    -0.266 N 
ATOM     13  H   LIG    1      -22.055  79.313  16.783  0.00  0.00    +0.157 HD
ATOM     14  C   LIG    1      -21.346  78.751  14.879  0.00  0.00    +0.251 C 
ATOM     15  O   LIG    1      -21.258  79.052  13.689  0.00  0.00    -0.270 OA
BRANCH  14  16
ATOM     16  C   LIG    1      -20.772  77.490  15.364  0.00  0.00    +0.056 A 
ATOM     17  C   LIG    1      -19.460  77.370  15.814  0.00  0.00    +0.054 A 
ATOM     18 CL   LIG    1      -18.372  78.700  15.981  0.00  0.00    -0.083 Cl
ATOM     19  C   LIG    1      -18.975  76.116  16.156  0.00  0.00    +0.041 A 
ATOM     20  C   LIG    1      -19.791  74.974  16.081  0.00  0.00    +0.052 A 
ATOM     21 CL   LIG    1      -18.932  73.488  16.305  0.00  0.00    -0.083 Cl
ATOM     22  C   LIG    1      -21.159  75.063  15.744  0.00  0.00    +0.022 A 
ATOM     23  C   LIG    1      -21.610  76.349  15.362  0.00  0.00    +0.026 A 
BRANCH  22  24
ATOM     24  C   LIG    1      -22.128  73.928  15.741  0.00  0.00    +0.107 A 
ATOM     25  C   LIG    1      -22.965  73.590  16.809  0.00  0.00    +0.149 A 
ATOM     26  F   LIG    1      -23.034  74.328  17.923  0.00  0.00    -0.203 F 
ATOM     27  C   LIG    1      -23.815  72.493  16.722  0.00  0.00    +0.042 A 
ATOM     28  C   LIG    1      -23.885  71.782  15.534  0.00  0.00    +0.023 A 
ATOM     29  C   LIG    1      -23.085  72.200  14.487  0.00  0.00    +0.111 A 
ATOM     30  N   LIG    1      -22.208  73.237  14.565  0.00  0.00    -0.252 NA
ENDBRANCH  22  24
ENDBRANCH  14  16
ENDBRANCH   4  12
BRANCH   1  31
ATOM     31  C   LIG    1      -22.588  84.536  15.524  0.00  0.00    +0.236 C 
ATOM     32  N   LIG    1      -22.453  85.302  14.505  0.00  0.00    -0.244 NA
BRANCH  31  33
ATOM     33  O   LIG    1      -22.638  84.922  16.814  0.00  0.00    -0.491 OA
ATOM     34  H   LIG    1      -23.013  84.261  17.400  0.00  0.00    +0.294 HD
ENDBRANCH  31  33
BRANCH  32  35
ATOM     35  C   LIG    1      -22.340  86.745  14.654  0.00  0.00    +0.183 C 
BRANCH  35  36
ATOM     36  C   LIG    1      -21.084  87.266  14.038  0.00  0.00    +0.011 A 
ATOM     37  C   LIG    1      -20.919  88.445  13.332  0.00  0.00    +0.110 A 
ATOM     38  N   LIG    1      -19.623  88.467  12.899  0.00  0.00    -0.284 N 
ATOM     39  H   LIG    1      -19.159  89.166  12.328  0.00  0.00    +0.188 HD
ATOM     40  N   LIG    1      -18.911  87.409  13.313  0.00  0.00    -0.182 NA
ATOM     41  C   LIG    1      -19.787  86.700  14.028  0.00  0.00    +0.139 A 
ENDBRANCH  35  36
ENDBRANCH  32  35
ENDBRANCH   1  31
TORSDOF 8
ENDMDL
MODEL 5
REMARK VINA RESULT:      -6.4     18.406     20.109
REMARK  Name = pdb/CHEMBL3890064.pdb
REMARK                            x       y       z     vdW  Elec       q    Type
REMARK                         _______ _______ _______ _____ _____    ______ ____
ROOT
ATOM      1  C   LIG    1      -22.179  82.618  15.676  0.00  0.00    +0.149 A 
ATOM      2  N   LIG    1      -20.919  82.190  15.835  0.00  0.00    -0.160 NA
ATOM      3  N   LIG    1      -20.972  80.852  15.659  0.00  0.00    -0.218 N 
ATOM      4  C   LIG    1      -22.292  80.401  15.558  0.00  0.00    +0.129 A 
ATOM      5  C   LIG    1      -23.072  81.533  15.603  0.00  0.00    +0.078 A 
ENDROOT
BRANCH   3   6
ATOM      6  C   LIG    1      -19.760  80.113  15.597  0.00  0.00    +0.067 A 
ATOM      7  C   LIG    1      -19.534  79.021  16.440  0.00  0.00    +0.028 A 
ATOM      8  C   LIG    1      -18.322  78.332  16.382  0.00  0.00    +0.002 A 
ATOM      9  C   LIG    1      -17.341  78.716  15.471  0.00  0.00    +0.000 A 
ATOM     10  C   LIG    1      -17.576  79.773  14.595  0.00  0.00    +0.002 A 
ATOM     11  C   LIG    1      -18.787  80.465  14.645  0.00  0.00    +0.028 A 
ENDBRANCH   3   6
BRANCH   4  12
ATOM     12  N   LIG    1      -22.756  79.085  15.479  0.00  0.00    -0.266 N 
ATOM     13  H   LIG    1      -23.279  78.725  16.263  0.00  0.00    +0.157 HD
ATOM     14  C   LIG    1      -22.576  78.243  14.335  0.00  0.00    +0.251 C 
ATOM     15  O   LIG    1      -22.016  78.650  13.318  0.00  0.00    -0.270 OA
BRANCH  14  16
ATOM     16  C   LIG    1      -23.024  76.847  14.421  0.00  0.00    +0.056 A 
ATOM     17  C   LIG    1      -24.123  76.353  13.725  0.00  0.00    +0.054 A 
ATOM     18 CL   LIG    1      -25.030  77.271  12.577  0.00  0.00    -0.083 Cl
ATOM     19  C   LIG    1      -24.534  75.047  13.948  0.00  0.00    +0.041 A 
ATOM     20  C   LIG    1      -23.846  74.210  14.843  0.00  0.00    +0.052 A 
ATOM     21 CL   LIG    1      -24.659  72.717  15.167  0.00  0.00    -0.083 Cl
ATOM     22  C   LIG    1      -22.658  74.628  15.481  0.00  0.00    +0.022 A 
ATOM     23  C   LIG    1      -22.291  75.978  15.264  0.00  0.00    +0.026 A 
BRANCH  22  24
ATOM     24  C   LIG    1      -21.801  73.780  16.361  0.00  0.00    +0.107 A 
ATOM     25  C   LIG    1      -22.034  73.548  17.720  0.00  0.00    +0.149 A 
ATOM     26  F   LIG    1      -23.124  74.008  18.345  0.00  0.00    -0.203 F 
ATOM     27  C   LIG    1      -21.159  72.765  18.465  0.00  0.00    +0.042 A 
ATOM     28  C   LIG    1      -20.093  72.148  17.829  0.00  0.00    +0.023 A 
ATOM     29  C   LIG    1      -19.947  72.357  16.470  0.00  0.00    +0.111 A 
ATOM     30  N   LIG    1      -20.758  73.159  15.731  0.00  0.00    -0.252 NA
ENDBRANCH  22  24
ENDBRANCH  14  16
ENDBRANCH   4  12
BRANCH   1  31
ATOM     31  C   LIG    1      -22.529  84.032  15.629  0.00  0.00    +0.236 C 
ATOM     32  N   LIG    1      -22.444  84.665  14.518  0.00  0.00    -0.244 NA
BRANCH  31  33
ATOM     33  O   LIG    1      -22.931  84.538  16.811  0.00  0.00    -0.491 OA
ATOM     34  H   LIG    1      -23.298  85.423  16.747  0.00  0.00    +0.294 HD
ENDBRANCH  31  33
BRANCH  32  35
ATOM     35  C   LIG    1      -22.802  86.072  14.422  0.00  0.00    +0.183 C 
BRANCH  35  36
ATOM     36  C   LIG    1      -21.601  86.935  14.219  0.00  0.00    +0.011 A 
ATOM     37  C   LIG    1      -21.576  88.285  13.915  0.00  0.00    +0.110 A 
ATOM     38  N   LIG    1      -20.263  88.626  13.751  0.00  0.00    -0.284 N 
ATOM     39  H   LIG    1      -19.872  89.527  13.494  0.00  0.00    +0.188 HD
ATOM     40  N   LIG    1      -19.420  87.608  13.974  0.00  0.00    -0.182 NA
ATOM     41  C   LIG    1      -20.230  86.593  14.288  0.00  0.00    +0.139 A 
ENDBRANCH  35  36
ENDBRANCH  32  35
ENDBRANCH   1  31
TORSDOF 8
ENDMDL
MODEL 6
REMARK VINA RESULT:      -6.4      8.908     15.124
REMARK  Name = pdb/CHEMBL3890064.pdb
REMARK                            x       y       z     vdW  Elec       q    Type
REMARK                         _______ _______ _______ _____ _____    ______ ____
ROOT
ATOM      1  C   LIG    1      -38.358  71.261  24.246  0.00  0.00    +0.149 A 
ATOM      2  N   LIG    1      -39.487  71.925  23.960  0.00  0.00    -0.160 NA
ATOM      3  N   LIG    1      -39.238  73.210  24.295  0.00  0.00    -0.218 N 
ATOM      4  C   LIG    1      -38.013  73.338  24.956  0.00  0.00    +0.129 A 
ATOM      5  C   LIG    1      -37.460  72.080  24.955  0.00  0.00    +0.078 A 
ENDROOT
BRANCH   3   6
ATOM      6  C   LIG    1      -40.189  74.210  23.955  0.00  0.00    +0.067 A 
ATOM      7  C   LIG    1      -41.484  73.870  23.551  0.00  0.00    +0.028 A 
ATOM      8  C   LIG    1      -42.389  74.870  23.191  0.00  0.00    +0.002 A 
ATOM      9  C   LIG    1      -42.013  76.209  23.252  0.00  0.00    +0.000 A 
ATOM     10  C   LIG    1      -40.741  76.559  23.699  0.00  0.00    +0.002 A 
ATOM     11  C   LIG    1      -39.832  75.565  24.064  0.00  0.00    +0.028 A 
ENDBRANCH   3   6
BRANCH   4  12
ATOM     12  N   LIG    1      -37.461  74.478  25.547  0.00  0.00    -0.266 N 
ATOM     13  H   LIG    1      -36.945  75.110  24.954  0.00  0.00    +0.157 HD
ATOM     14  C   LIG    1      -37.629  74.823  26.927  0.00  0.00    +0.251 C 
ATOM     15  O   LIG    1      -38.313  74.134  27.684  0.00  0.00    -0.270 OA
BRANCH  14  16
ATOM     16  C   LIG    1      -36.912  75.996  27.443  0.00  0.00    +0.056 A 
ATOM     17  C   LIG    1      -37.403  77.294  27.348  0.00  0.00    +0.054 A 
ATOM     18 CL   LIG    1      -38.964  77.693  26.727  0.00  0.00    -0.083 Cl
ATOM     19  C   LIG    1      -36.609  78.350  27.772  0.00  0.00    +0.041 A 
ATOM     20  C   LIG    1      -35.333  78.129  28.317  0.00  0.00    +0.052 A 
ATOM     21 CL   LIG    1      -34.412  79.576  28.547  0.00  0.00    -0.083 Cl
ATOM     22  C   LIG    1      -34.842  76.824  28.543  0.00  0.00    +0.022 A 
ATOM     23  C   LIG    1      -35.659  75.773  28.062  0.00  0.00    +0.026 A 
BRANCH  22  24
ATOM     24  C   LIG    1      -33.551  76.486  29.212  0.00  0.00    +0.107 A 
ATOM     25  C   LIG    1      -32.294  76.554  28.603  0.00  0.00    +0.149 A 
ATOM     26  F   LIG    1      -32.127  77.025  27.362  0.00  0.00    -0.203 F 
ATOM     27  C   LIG    1      -31.148  76.189  29.302  0.00  0.00    +0.042 A 
ATOM     28  C   LIG    1      -31.253  75.833  30.637  0.00  0.00    +0.023 A 
ATOM     29  C   LIG    1      -32.512  75.847  31.209  0.00  0.00    +0.111 A 
ATOM     30  N   LIG    1      -33.653  76.150  30.533  0.00  0.00    -0.252 NA
ENDBRANCH  22  24
ENDBRANCH  14  16
ENDBRANCH   4  12
BRANCH   1  31
ATOM     31  C   LIG    1      -38.154  69.865  23.880  0.00  0.00    +0.236 C 
ATOM     32  N   LIG    1      -37.099  69.530  23.235  0.00  0.00    -0.244 NA
BRANCH  31  33
ATOM     33  O   LIG    1      -39.138  69.040  24.289  0.00  0.00    -0.491 OA
ATOM     34  H   LIG    1      -39.426  68.419  23.616  0.00  0.00    +0.294 HD
ENDBRANCH  31  33
BRANCH  32  35
ATOM     35  C   LIG    1      -36.846  68.146  22.867  0.00  0.00    +0.183 C 
BRANCH  35  36
ATOM     36  C   LIG    1      -36.869  67.954  21.387  0.00  0.00    +0.011 A 
ATOM     37  C   LIG    1      -36.140  67.042  20.645  0.00  0.00    +0.110 A 
ATOM     38  N   LIG    1      -36.429  67.283  19.331  0.00  0.00    -0.284 N 
ATOM     39  H   LIG    1      -36.054  66.823  18.507  0.00  0.00    +0.188 HD
ATOM     40  N   LIG    1      -37.335  68.256  19.159  0.00  0.00    -0.182 NA
ATOM     41  C   LIG    1      -37.623  68.640  20.406  0.00  0.00    +0.139 A 
ENDBRANCH  35  36
ENDBRANCH  32  35
ENDBRANCH   1  31
TORSDOF 8
ENDMDL
MODEL 7
REMARK VINA RESULT:      -6.4      6.100     10.548
REMARK  Name = pdb/CHEMBL3890064.pdb
REMARK                            x       y       z     vdW  Elec       q    Type
REMARK                         _______ _______ _______ _____ _____    ______ ____
ROOT
ATOM      1  C   LIG    1      -37.504  80.016  27.653  0.00  0.00    +0.149 A 
ATOM      2  N   LIG    1      -36.453  79.301  28.078  0.00  0.00    -0.160 NA
ATOM      3  N   LIG    1      -36.631  78.065  27.563  0.00  0.00    -0.218 N 
ATOM      4  C   LIG    1      -37.882  77.941  26.951  0.00  0.00    +0.129 A 
ATOM      5  C   LIG    1      -38.459  79.185  27.037  0.00  0.00    +0.078 A 
ENDROOT
BRANCH   3   6
ATOM      6  C   LIG    1      -35.591  77.105  27.693  0.00  0.00    +0.067 A 
ATOM      7  C   LIG    1      -35.876  75.754  27.911  0.00  0.00    +0.028 A 
ATOM      8  C   LIG    1      -34.836  74.836  28.067  0.00  0.00    +0.002 A 
ATOM      9  C   LIG    1      -33.512  75.258  27.986  0.00  0.00    +0.000 A 
ATOM     10  C   LIG    1      -33.219  76.594  27.721  0.00  0.00    +0.002 A 
ATOM     11  C   LIG    1      -34.254  77.517  27.561  0.00  0.00    +0.028 A 
ENDBRANCH   3   6
BRANCH   4  12
ATOM     12  N   LIG    1      -38.470  76.797  26.404  0.00  0.00    -0.266 N 
ATOM     13  H   LIG    1      -39.201  76.346  26.935  0.00  0.00    +0.157 HD
ATOM     14  C   LIG    1      -38.133  76.262  25.120  0.00  0.00    +0.251 C 
ATOM     15  O   LIG    1      -37.307  76.811  24.391  0.00  0.00    -0.270 OA
BRANCH  14  16
ATOM     16  C   LIG    1      -38.754  74.997  24.707  0.00  0.00    +0.056 A 
ATOM     17  C   LIG    1      -39.992  74.925  24.075  0.00  0.00    +0.054 A 
ATOM     18 CL   LIG    1      -40.906  76.304  23.580  0.00  0.00    -0.083 Cl
ATOM     19  C   LIG    1      -40.547  73.679  23.815  0.00  0.00    +0.041 A 
ATOM     20  C   LIG    1      -39.870  72.496  24.155  0.00  0.00    +0.052 A 
ATOM     21 CL   LIG    1      -40.832  71.068  23.980  0.00  0.00    -0.083 Cl
ATOM     22  C   LIG    1      -38.562  72.519  24.688  0.00  0.00    +0.022 A 
ATOM     23  C   LIG    1      -38.045  73.804  24.978  0.00  0.00    +0.026 A 
BRANCH  22  24
ATOM     24  C   LIG    1      -37.723  71.319  24.980  0.00  0.00    +0.107 A 
ATOM     25  C   LIG    1      -37.289  70.939  26.253  0.00  0.00    +0.149 A 
ATOM     26  F   LIG    1      -37.673  71.585  27.361  0.00  0.00    -0.203 F 
ATOM     27  C   LIG    1      -36.484  69.818  26.421  0.00  0.00    +0.042 A 
ATOM     28  C   LIG    1      -36.178  69.032  25.321  0.00  0.00    +0.023 A 
ATOM     29  C   LIG    1      -36.688  69.417  24.094  0.00  0.00    +0.111 A 
ATOM     30  N   LIG    1      -37.434  70.536  23.898  0.00  0.00    -0.252 NA
ENDBRANCH  22  24
ENDBRANCH  14  16
ENDBRANCH   4  12
BRANCH   1  31
ATOM     31  C   LIG    1      -37.611  81.454  27.859  0.00  0.00    +0.236 C 
ATOM     32  N   LIG    1      -37.950  82.208  26.879  0.00  0.00    -0.244 NA
BRANCH  31  33
ATOM     33  O   LIG    1      -37.339  81.851  29.117  0.00  0.00    -0.491 OA
ATOM     34  H   LIG    1      -36.411  82.050  29.267  0.00  0.00    +0.294 HD
ENDBRANCH  31  33
BRANCH  32  35
ATOM     35  C   LIG    1      -38.088  83.646  27.045  0.00  0.00    +0.183 C 
BRANCH  35  36
ATOM     36  C   LIG    1      -36.819  84.364  26.721  0.00  0.00    +0.011 A 
ATOM     37  C   LIG    1      -36.056  84.247  25.573  0.00  0.00    +0.110 A 
ATOM     38  N   LIG    1      -34.953  85.032  25.752  0.00  0.00    -0.284 N 
ATOM     39  H   LIG    1      -34.165  85.167  25.127  0.00  0.00    +0.188 HD
ATOM     40  N   LIG    1      -34.961  85.697  26.917  0.00  0.00    -0.182 NA
ATOM     41  C   LIG    1      -36.106  85.315  27.488  0.00  0.00    +0.139 A 
ENDBRANCH  35  36
ENDBRANCH  32  35
ENDBRANCH   1  31
TORSDOF 8
ENDMDL
MODEL 8
REMARK VINA RESULT:      -6.4      8.884     16.720
REMARK  Name = pdb/CHEMBL3890064.pdb
REMARK                            x       y       z     vdW  Elec       q    Type
REMARK                         _______ _______ _______ _____ _____    ______ ____
ROOT
ATOM      1  C   LIG    1      -36.986  69.698  25.250  0.00  0.00    +0.149 A 
ATOM      2  N   LIG    1      -36.455  68.777  26.066  0.00  0.00    -0.160 NA
ATOM      3  N   LIG    1      -35.563  69.447  26.828  0.00  0.00    -0.218 N 
ATOM      4  C   LIG    1      -35.396  70.762  26.383  0.00  0.00    +0.129 A 
ATOM      5  C   LIG    1      -36.287  70.916  25.347  0.00  0.00    +0.078 A 
ENDROOT
BRANCH   3   6
ATOM      6  C   LIG    1      -34.945  68.778  27.919  0.00  0.00    +0.067 A 
ATOM      7  C   LIG    1      -35.323  69.044  29.239  0.00  0.00    +0.028 A 
ATOM      8  C   LIG    1      -34.679  68.398  30.294  0.00  0.00    +0.002 A 
ATOM      9  C   LIG    1      -33.672  67.471  30.038  0.00  0.00    +0.000 A 
ATOM     10  C   LIG    1      -33.322  67.164  28.725  0.00  0.00    +0.002 A 
ATOM     11  C   LIG    1      -33.964  67.804  27.664  0.00  0.00    +0.028 A 
ENDBRANCH   3   6
BRANCH   4  12
ATOM     12  N   LIG    1      -34.492  71.724  26.840  0.00  0.00    -0.266 N 
ATOM     13  H   LIG    1      -33.636  71.847  26.320  0.00  0.00    +0.157 HD
ATOM     14  C   LIG    1      -34.732  72.574  27.967  0.00  0.00    +0.251 C 
ATOM     15  O   LIG    1      -35.789  72.527  28.595  0.00  0.00    -0.270 OA
BRANCH  14  16
ATOM     16  C   LIG    1      -33.656  73.473  28.403  0.00  0.00    +0.056 A 
ATOM     17  C   LIG    1      -32.528  73.037  29.093  0.00  0.00    +0.054 A 
ATOM     18 CL   LIG    1      -32.179  71.378  29.421  0.00  0.00    -0.083 Cl
ATOM     19  C   LIG    1      -31.614  73.974  29.554  0.00  0.00    +0.041 A 
ATOM     20  C   LIG    1      -31.794  75.347  29.315  0.00  0.00    +0.052 A 
ATOM     21 CL   LIG    1      -30.688  76.356  30.182  0.00  0.00    -0.083 Cl
ATOM     22  C   LIG    1      -32.858  75.825  28.519  0.00  0.00    +0.022 A 
ATOM     23  C   LIG    1      -33.793  74.849  28.101  0.00  0.00    +0.026 A 
BRANCH  22  24
ATOM     24  C   LIG    1      -33.072  77.247  28.121  0.00  0.00    +0.107 A 
ATOM     25  C   LIG    1      -32.430  77.883  27.054  0.00  0.00    +0.149 A 
ATOM     26  F   LIG    1      -31.613  77.228  26.220  0.00  0.00    -0.203 F 
ATOM     27  C   LIG    1      -32.674  79.224  26.778  0.00  0.00    +0.042 A 
ATOM     28  C   LIG    1      -33.621  79.908  27.524  0.00  0.00    +0.023 A 
ATOM     29  C   LIG    1      -34.275  79.213  28.525  0.00  0.00    +0.111 A 
ATOM     30  N   LIG    1      -34.017  77.917  28.846  0.00  0.00    -0.252 NA
ENDBRANCH  22  24
ENDBRANCH  14  16
ENDBRANCH   4  12
BRANCH   1  31
ATOM     31  C   LIG    1      -38.113  69.414  24.372  0.00  0.00    +0.236 C 
ATOM     32  N   LIG    1      -38.026  69.692  23.124  0.00  0.00    -0.244 NA
BRANCH  31  33
ATOM     33  O   LIG    1      -39.169  68.856  24.997  0.00  0.00    -0.491 OA
ATOM     34  H   LIG    1      -39.008  68.655  25.922  0.00  0.00    +0.294 HD
ENDBRANCH  31  33
BRANCH  32  35
ATOM     35  C   LIG    1      -39.120  69.406  22.209  0.00  0.00    +0.183 C 
BRANCH  35  36
ATOM     36  C   LIG    1      -38.665  68.594  21.042  0.00  0.00    +0.011 A 
ATOM     37  C   LIG    1      -37.579  68.836  20.220  0.00  0.00    +0.110 A 
ATOM     38  N   LIG    1      -37.598  67.876  19.248  0.00  0.00    -0.284 N 
ATOM     39  H   LIG    1      -36.969  67.761  18.460  0.00  0.00    +0.188 HD
ATOM     40  N   LIG    1      -38.592  66.989  19.403  0.00  0.00    -0.182 NA
ATOM     41  C   LIG    1      -39.217  67.406  20.506  0.00  0.00    +0.139 A 
ENDBRANCH  35  36
ENDBRANCH  32  35
ENDBRANCH   1  31
TORSDOF 8
ENDMDL
MODEL 9
REMARK VINA RESULT:      -6.3      8.940     13.121
REMARK  Name = pdb/CHEMBL3890064.pdb
REMARK                            x       y       z     vdW  Elec       q    Type
REMARK                         _______ _______ _______ _____ _____    ______ ____
ROOT
ATOM      1  C   LIG    1      -37.834  76.747  26.195  0.00  0.00    +0.149 A 
ATOM      2  N   LIG    1      -39.014  77.270  25.834  0.00  0.00    -0.160 NA
ATOM      3  N   LIG    1      -39.654  76.281  25.172  0.00  0.00    -0.218 N 
ATOM      4  C   LIG    1      -38.816  75.182  24.960  0.00  0.00    +0.129 A 
ATOM      5  C   LIG    1      -37.634  75.494  25.589  0.00  0.00    +0.078 A 
ENDROOT
BRANCH   3   6
ATOM      6  C   LIG    1      -41.013  76.464  24.800  0.00  0.00    +0.067 A 
ATOM      7  C   LIG    1      -41.376  76.685  23.468  0.00  0.00    +0.028 A 
ATOM      8  C   LIG    1      -42.714  76.894  23.133  0.00  0.00    +0.002 A 
ATOM      9  C   LIG    1      -43.697  76.863  24.120  0.00  0.00    +0.000 A 
ATOM     10  C   LIG    1      -43.350  76.595  25.443  0.00  0.00    +0.002 A 
ATOM     11  C   LIG    1      -42.013  76.382  25.785  0.00  0.00    +0.028 A 
ENDBRANCH   3   6
BRANCH   4  12
ATOM     12  N   LIG    1      -39.077  74.021  24.227  0.00  0.00    -0.266 N 
ATOM     13  H   LIG    1      -38.605  73.910  23.342  0.00  0.00    +0.157 HD
ATOM     14  C   LIG    1      -39.931  72.965  24.681  0.00  0.00    +0.251 C 
ATOM     15  O   LIG    1      -40.472  73.005  25.786  0.00  0.00    -0.270 OA
BRANCH  14  16
ATOM     16  C   LIG    1      -40.199  71.846  23.769  0.00  0.00    +0.056 A 
ATOM     17  C   LIG    1      -41.372  71.728  23.030  0.00  0.00    +0.054 A 
ATOM     18 CL   LIG    1      -42.610  72.931  22.985  0.00  0.00    -0.083 Cl
ATOM     19  C   LIG    1      -41.582  70.583  22.273  0.00  0.00    +0.041 A 
ATOM     20  C   LIG    1      -40.622  69.558  22.222  0.00  0.00    +0.052 A 
ATOM     21 CL   LIG    1      -41.179  68.121  21.434  0.00  0.00    -0.083 Cl
ATOM     22  C   LIG    1      -39.369  69.686  22.860  0.00  0.00    +0.022 A 
ATOM     23  C   LIG    1      -39.205  70.845  23.655  0.00  0.00    +0.026 A 
BRANCH  22  24
ATOM     24  C   LIG    1      -38.248  68.704  22.776  0.00  0.00    +0.107 A 
ATOM     25  C   LIG    1      -37.414  68.537  21.666  0.00  0.00    +0.149 A 
ATOM     26  F   LIG    1      -37.495  69.325  20.588  0.00  0.00    -0.203 F 
ATOM     27  C   LIG    1      -36.413  67.572  21.671  0.00  0.00    +0.042 A 
ATOM     28  C   LIG    1      -36.196  66.827  22.820  0.00  0.00    +0.023 A 
ATOM     29  C   LIG    1      -37.006  67.079  23.912  0.00  0.00    +0.111 A 
ATOM     30  N   LIG    1      -38.024  67.981  23.913  0.00  0.00    -0.252 NA
ENDBRANCH  22  24
ENDBRANCH  14  16
ENDBRANCH   4  12
BRANCH   1  31
ATOM     31  C   LIG    1      -36.903  77.443  27.074  0.00  0.00    +0.236 C 
ATOM     32  N   LIG    1      -35.938  76.793  27.611  0.00  0.00    -0.244 NA
BRANCH  31  33
ATOM     33  O   LIG    1      -37.166  78.756  27.224  0.00  0.00    -0.491 OA
ATOM     34  H   LIG    1      -37.925  79.058  26.718  0.00  0.00    +0.294 HD
ENDBRANCH  31  33
BRANCH  32  35
ATOM     35  C   LIG    1      -34.973  77.453  28.478  0.00  0.00    +0.183 C 
BRANCH  35  36
ATOM     36  C   LIG    1      -33.817  77.996  27.705  0.00  0.00    +0.011 A 
ATOM     37  C   LIG    1      -32.933  77.291  26.908  0.00  0.00    +0.110 A 
ATOM     38  N   LIG    1      -32.002  78.188  26.466  0.00  0.00    -0.284 N 
ATOM     39  H   LIG    1      -31.187  78.019  25.883  0.00  0.00    +0.188 HD
ATOM     40  N   LIG    1      -32.240  79.442  26.875  0.00  0.00    -0.182 NA
ATOM     41  C   LIG    1      -33.357  79.330  27.599  0.00  0.00    +0.139 A 
ENDBRANCH  35  36
ENDBRANCH  32  35
ENDBRANCH   1  31
TORSDOF 8
ENDMDL
