MODEL 1
REMARK VINA RESULT:      -6.2      0.000      0.000
REMARK  Name = pdb/CHEMBL3671430.pdb
REMARK                            x       y       z     vdW  Elec       q    Type
REMARK                         _______ _______ _______ _____ _____    ______ ____
ROOT
ATOM      1  C   LIG    1      -21.744  76.332  29.825  0.00  0.00    +0.197 C 
ATOM      2  O   LIG    1      -21.671  76.480  28.596  0.00  0.00    -0.287 OA
ENDROOT
BRANCH   1   3
ATOM      3  C   LIG    1      -22.907  75.700  30.450  0.00  0.00    +0.051 A 
ATOM      4  C   LIG    1      -24.168  76.297  30.733  0.00  0.00    +0.048 A 
ATOM      5  C   LIG    1      -24.725  77.562  30.575  0.00  0.00    +0.126 A 
ATOM      6  N   LIG    1      -26.013  77.772  30.921  0.00  0.00    -0.222 NA
ATOM      7  C   LIG    1      -26.713  76.753  31.437  0.00  0.00    +0.214 A 
ATOM      8  N   LIG    1      -26.262  75.514  31.683  0.00  0.00    -0.197 NA
ATOM      9  C   LIG    1      -24.980  75.334  31.317  0.00  0.00    +0.147 A 
ATOM     10  N   LIG    1      -24.238  74.177  31.462  0.00  0.00    -0.323 N 
ATOM     11  C   LIG    1      -23.006  74.387  30.878  0.00  0.00    +0.100 A 
BRANCH   7  12
ATOM     12  N   LIG    1      -28.055  76.996  31.661  0.00  0.00    -0.327 N 
ATOM     13  H   LIG    1      -28.156  77.349  32.605  0.00  0.00    +0.145 HD
ATOM     14  H   LIG    1      -28.410  77.585  30.921  0.00  0.00    +0.145 HD
ENDBRANCH   7  12
BRANCH  10  15
ATOM     15  C   LIG    1      -24.671  72.925  32.131  0.00  0.00    +0.064 C 
ATOM     16  C   LIG    1      -25.467  73.212  33.437  0.00  0.00    +0.036 C 
ATOM     17  C   LIG    1      -23.441  72.089  32.542  0.00  0.00    +0.036 C 
BRANCH  15  18
ATOM     18  C   LIG    1      -25.592  72.102  31.192  0.00  0.00    +0.183 C 
BRANCH  18  19
ATOM     19  O   LIG    1      -26.942  72.569  31.259  0.00  0.00    -0.393 OA
ATOM     20  H   LIG    1      -27.378  72.319  30.426  0.00  0.00    +0.209 HD
ENDBRANCH  18  19
ENDBRANCH  15  18
ENDBRANCH  10  15
ENDBRANCH   1   3
BRANCH   1  23
ATOM     21  C   LIG    1      -19.812  78.215  32.527  0.00  0.00    +0.052 A 
ATOM     22  C   LIG    1      -20.880  77.790  31.720  0.00  0.00    +0.038 A 
ATOM     23  C   LIG    1      -20.656  76.865  30.679  0.00  0.00    +0.042 A 
ATOM     24  C   LIG    1      -19.362  76.388  30.502  0.00  0.00    +0.122 A 
ATOM     25  N   LIG    1      -18.311  76.762  31.255  0.00  0.00    -0.261 NA
ATOM     26  C   LIG    1      -18.562  77.650  32.253  0.00  0.00    +0.134 A 
BRANCH  21  28
ATOM     27  C   LIG    1      -20.273  78.945  34.878  0.00  0.00    +0.223 C 
ATOM     28  N   LIG    1      -20.032  79.202  33.534  0.00  0.00    -0.284 N 
ATOM     29  H   LIG    1      -20.108  80.174  33.242  0.00  0.00    +0.155 HD
ATOM     30  O   LIG    1      -20.397  77.815  35.354  0.00  0.00    -0.275 OA
BRANCH  27  31
ATOM     31  C   LIG    1      -20.281  80.145  35.811  0.00  0.00    +0.151 C 
BRANCH  31  36
ATOM     32  C   LIG    1      -25.128  82.944  37.074  0.00  0.00    +0.045 C 
ATOM     33  C   LIG    1      -23.901  82.260  36.555  0.00  0.00    -0.032 A 
ATOM     34  C   LIG    1      -22.638  82.817  36.730  0.00  0.00    +0.114 A 
ATOM     35  N   LIG    1      -21.466  82.197  36.428  0.00  0.00    -0.259 NA
ATOM     36  C   LIG    1      -21.549  80.964  35.871  0.00  0.00    +0.050 A 
ATOM     37  C   LIG    1      -22.780  80.380  35.550  0.00  0.00    +0.024 A 
ATOM     38  C   LIG    1      -23.964  81.034  35.899  0.00  0.00    +0.006 A 
ENDBRANCH  31  36
ENDBRANCH  27  31
ENDBRANCH  21  28
ENDBRANCH   1  23
TORSDOF 9
ENDMDL
MODEL 2
REMARK VINA RESULT:      -6.1     16.359     18.929
REMARK  Name = pdb/CHEMBL3671430.pdb
REMARK                            x       y       z     vdW  Elec       q    Type
REMARK                         _______ _______ _______ _____ _____    ______ ____
ROOT
ATOM      1  C   LIG    1      -32.357  65.224  19.193  0.00  0.00    +0.197 C 
ATOM      2  O   LIG    1      -32.227  64.036  18.862  0.00  0.00    -0.287 OA
ENDROOT
BRANCH   1   3
ATOM      3  C   LIG    1      -31.269  66.188  19.019  0.00  0.00    +0.051 A 
ATOM      4  C   LIG    1      -31.323  67.440  18.344  0.00  0.00    +0.048 A 
ATOM      5  C   LIG    1      -32.294  68.151  17.646  0.00  0.00    +0.126 A 
ATOM      6  N   LIG    1      -32.004  69.376  17.159  0.00  0.00    -0.222 NA
ATOM      7  C   LIG    1      -30.769  69.863  17.342  0.00  0.00    +0.214 A 
ATOM      8  N   LIG    1      -29.745  69.245  17.948  0.00  0.00    -0.197 NA
ATOM      9  C   LIG    1      -30.069  68.032  18.431  0.00  0.00    +0.147 A 
ATOM     10  N   LIG    1      -29.225  67.154  19.085  0.00  0.00    -0.323 N 
ATOM     11  C   LIG    1      -29.973  66.069  19.493  0.00  0.00    +0.100 A 
BRANCH   7  12
ATOM     12  N   LIG    1      -30.567  71.167  16.927  0.00  0.00    -0.327 N 
ATOM     13  H   LIG    1      -29.938  71.148  16.134  0.00  0.00    +0.145 HD
ATOM     14  H   LIG    1      -31.465  71.605  16.777  0.00  0.00    +0.145 HD
ENDBRANCH   7  12
BRANCH  10  15
ATOM     15  C   LIG    1      -27.768  67.328  19.309  0.00  0.00    +0.064 C 
ATOM     16  C   LIG    1      -27.039  67.822  18.027  0.00  0.00    +0.036 C 
ATOM     17  C   LIG    1      -27.124  65.979  19.688  0.00  0.00    +0.036 C 
BRANCH  15  18
ATOM     18  C   LIG    1      -27.516  68.376  20.425  0.00  0.00    +0.183 C 
BRANCH  18  19
ATOM     19  O   LIG    1      -27.598  67.776  21.721  0.00  0.00    -0.393 OA
ATOM     20  H   LIG    1      -27.237  66.875  21.648  0.00  0.00    +0.209 HD
ENDBRANCH  18  19
ENDBRANCH  15  18
ENDBRANCH  10  15
ENDBRANCH   1   3
BRANCH   1  23
ATOM     21  C   LIG    1      -34.891  66.924  21.488  0.00  0.00    +0.052 A 
ATOM     22  C   LIG    1      -33.658  66.508  20.960  0.00  0.00    +0.038 A 
ATOM     23  C   LIG    1      -33.620  65.657  19.835  0.00  0.00    +0.042 A 
ATOM     24  C   LIG    1      -34.832  65.271  19.273  0.00  0.00    +0.122 A 
ATOM     25  N   LIG    1      -36.035  65.649  19.742  0.00  0.00    -0.261 NA
ATOM     26  C   LIG    1      -36.036  66.474  20.822  0.00  0.00    +0.134 A 
BRANCH  21  28
ATOM     27  C   LIG    1      -35.006  67.250  23.968  0.00  0.00    +0.223 C 
ATOM     28  N   LIG    1      -34.924  67.728  22.666  0.00  0.00    -0.284 N 
ATOM     29  H   LIG    1      -34.982  68.739  22.553  0.00  0.00    +0.155 HD
ATOM     30  O   LIG    1      -35.133  66.060  24.260  0.00  0.00    -0.275 OA
BRANCH  27  31
ATOM     31  C   LIG    1      -34.828  68.270  25.080  0.00  0.00    +0.151 C 
BRANCH  31  36
ATOM     32  C   LIG    1      -38.074  72.998  24.878  0.00  0.00    +0.045 C 
ATOM     33  C   LIG    1      -37.355  71.697  25.066  0.00  0.00    -0.032 A 
ATOM     34  C   LIG    1      -37.420  70.693  24.105  0.00  0.00    +0.114 A 
ATOM     35  N   LIG    1      -36.684  69.550  24.124  0.00  0.00    -0.259 NA
ATOM     36  C   LIG    1      -35.864  69.365  25.187  0.00  0.00    +0.050 A 
ATOM     37  C   LIG    1      -35.827  70.267  26.257  0.00  0.00    +0.024 A 
ATOM     38  C   LIG    1      -36.577  71.443  26.192  0.00  0.00    +0.006 A 
ENDBRANCH  31  36
ENDBRANCH  27  31
ENDBRANCH  21  28
ENDBRANCH   1  23
TORSDOF 9
ENDMDL
MODEL 3
REMARK VINA RESULT:      -6.0      3.041      8.691
REMARK  Name = pdb/CHEMBL3671430.pdb
REMARK                            x       y       z     vdW  Elec       q    Type
REMARK                         _______ _______ _______ _____ _____    ______ ____
ROOT
ATOM      1  C   LIG    1      -26.786  77.940  36.263  0.00  0.00    +0.197 C 
ATOM      2  O   LIG    1      -26.962  77.121  37.177  0.00  0.00    -0.287 OA
ENDROOT
BRANCH   1   3
ATOM      3  C   LIG    1      -26.359  79.313  36.540  0.00  0.00    +0.051 A 
ATOM      4  C   LIG    1      -25.101  79.905  36.236  0.00  0.00    +0.048 A 
ATOM      5  C   LIG    1      -23.914  79.471  35.654  0.00  0.00    +0.126 A 
ATOM      6  N   LIG    1      -22.901  80.345  35.472  0.00  0.00    -0.222 NA
ATOM      7  C   LIG    1      -23.062  81.608  35.887  0.00  0.00    +0.214 A 
ATOM      8  N   LIG    1      -24.136  82.118  36.507  0.00  0.00    -0.197 NA
ATOM      9  C   LIG    1      -25.131  81.226  36.664  0.00  0.00    +0.147 A 
ATOM     10  N   LIG    1      -26.348  81.450  37.279  0.00  0.00    -0.323 N 
ATOM     11  C   LIG    1      -27.109  80.308  37.144  0.00  0.00    +0.100 A 
BRANCH   7  12
ATOM     12  N   LIG    1      -22.039  82.482  35.568  0.00  0.00    -0.327 N 
ATOM     13  H   LIG    1      -21.835  83.038  36.390  0.00  0.00    +0.145 HD
ATOM     14  H   LIG    1      -21.269  81.957  35.179  0.00  0.00    +0.145 HD
ENDBRANCH   7  12
BRANCH  10  15
ATOM     15  C   LIG    1      -26.774  82.690  37.975  0.00  0.00    +0.064 C 
ATOM     16  C   LIG    1      -25.627  83.296  38.834  0.00  0.00    +0.036 C 
ATOM     17  C   LIG    1      -27.934  82.385  38.944  0.00  0.00    +0.036 C 
BRANCH  15  18
ATOM     18  C   LIG    1      -27.204  83.766  36.942  0.00  0.00    +0.183 C 
BRANCH  18  19
ATOM     19  O   LIG    1      -26.063  84.400  36.356  0.00  0.00    -0.393 OA
ATOM     20  H   LIG    1      -25.477  83.696  36.027  0.00  0.00    +0.209 HD
ENDBRANCH  18  19
ENDBRANCH  15  18
ENDBRANCH  10  15
ENDBRANCH   1   3
BRANCH   1  23
ATOM     21  C   LIG    1      -26.413  76.807  32.636  0.00  0.00    +0.052 A 
ATOM     22  C   LIG    1      -26.069  77.240  33.927  0.00  0.00    +0.038 A 
ATOM     23  C   LIG    1      -27.077  77.534  34.868  0.00  0.00    +0.042 A 
ATOM     24  C   LIG    1      -28.401  77.363  34.475  0.00  0.00    +0.122 A 
ATOM     25  N   LIG    1      -28.776  76.946  33.253  0.00  0.00    -0.261 NA
ATOM     26  C   LIG    1      -27.780  76.665  32.372  0.00  0.00    +0.134 A 
BRANCH  21  28
ATOM     27  C   LIG    1      -25.037  77.448  30.645  0.00  0.00    +0.223 C 
ATOM     28  N   LIG    1      -25.391  76.577  31.667  0.00  0.00    -0.284 N 
ATOM     29  H   LIG    1      -24.936  75.666  31.659  0.00  0.00    +0.155 HD
ATOM     30  O   LIG    1      -25.620  78.508  30.407  0.00  0.00    -0.275 OA
BRANCH  27  31
ATOM     31  C   LIG    1      -23.791  77.095  29.849  0.00  0.00    +0.151 C 
BRANCH  31  36
ATOM     32  C   LIG    1      -18.854  78.481  32.424  0.00  0.00    +0.045 C 
ATOM     33  C   LIG    1      -20.082  77.931  31.767  0.00  0.00    -0.032 A 
ATOM     34  C   LIG    1      -21.299  77.882  32.440  0.00  0.00    +0.114 A 
ATOM     35  N   LIG    1      -22.488  77.542  31.873  0.00  0.00    -0.259 NA
ATOM     36  C   LIG    1      -22.465  77.179  30.568  0.00  0.00    +0.050 A 
ATOM     37  C   LIG    1      -21.268  77.084  29.849  0.00  0.00    +0.024 A 
ATOM     38  C   LIG    1      -20.069  77.467  30.454  0.00  0.00    +0.006 A 
ENDBRANCH  31  36
ENDBRANCH  27  31
ENDBRANCH  21  28
ENDBRANCH   1  23
TORSDOF 9
ENDMDL
MODEL 4
REMARK VINA RESULT:      -5.9     19.475     22.560
REMARK  Name = pdb/CHEMBL3671430.pdb
REMARK                            x       y       z     vdW  Elec       q    Type
REMARK                         _______ _______ _______ _____ _____    ______ ____
ROOT
ATOM      1  C   LIG    1      -23.521  87.171  10.489  0.00  0.00    +0.197 C 
ATOM      2  O   LIG    1      -23.422  88.027   9.597  0.00  0.00    -0.287 OA
ENDROOT
BRANCH   1   3
ATOM      3  C   LIG    1      -22.389  86.835  11.354  0.00  0.00    +0.051 A 
ATOM      4  C   LIG    1      -22.213  87.183  12.723  0.00  0.00    +0.048 A 
ATOM      5  C   LIG    1      -22.937  87.909  13.664  0.00  0.00    +0.126 A 
ATOM      6  N   LIG    1      -22.481  88.002  14.931  0.00  0.00    -0.222 NA
ATOM      7  C   LIG    1      -21.319  87.409  15.239  0.00  0.00    +0.214 A 
ATOM      8  N   LIG    1      -20.516  86.735  14.403  0.00  0.00    -0.197 NA
ATOM      9  C   LIG    1      -21.004  86.651  13.152  0.00  0.00    +0.147 A 
ATOM     10  N   LIG    1      -20.397  86.038  12.072  0.00  0.00    -0.323 N 
ATOM     11  C   LIG    1      -21.269  86.098  11.004  0.00  0.00    +0.100 A 
BRANCH   7  12
ATOM     12  N   LIG    1      -20.964  87.438  16.575  0.00  0.00    -0.327 N 
ATOM     13  H   LIG    1      -20.389  88.258  16.728  0.00  0.00    +0.145 HD
ATOM     14  H   LIG    1      -21.799  87.365  17.138  0.00  0.00    +0.145 HD
ENDBRANCH   7  12
BRANCH  10  15
ATOM     15  C   LIG    1      -19.045  85.426  12.045  0.00  0.00    +0.064 C 
ATOM     16  C   LIG    1      -17.986  86.330  12.739  0.00  0.00    +0.036 C 
ATOM     17  C   LIG    1      -18.575  85.240  10.588  0.00  0.00    +0.036 C 
BRANCH  15  18
ATOM     18  C   LIG    1      -19.056  84.063  12.786  0.00  0.00    +0.183 C 
BRANCH  18  19
ATOM     19  O   LIG    1      -18.635  84.214  14.145  0.00  0.00    -0.393 OA
ATOM     20  H   LIG    1      -19.421  84.450  14.668  0.00  0.00    +0.209 HD
ENDBRANCH  18  19
ENDBRANCH  15  18
ENDBRANCH  10  15
ENDBRANCH   1   3
BRANCH   1  23
ATOM     21  C   LIG    1      -26.134  84.548  11.421  0.00  0.00    +0.052 A 
ATOM     22  C   LIG    1      -24.885  85.172  11.266  0.00  0.00    +0.038 A 
ATOM     23  C   LIG    1      -24.796  86.430  10.636  0.00  0.00    +0.042 A 
ATOM     24  C   LIG    1      -25.976  87.023  10.199  0.00  0.00    +0.122 A 
ATOM     25  N   LIG    1      -27.193  86.464  10.330  0.00  0.00    -0.261 NA
ATOM     26  C   LIG    1      -27.245  85.255  10.948  0.00  0.00    +0.134 A 
BRANCH  21  28
ATOM     27  C   LIG    1      -25.726  82.077  11.422  0.00  0.00    +0.223 C 
ATOM     28  N   LIG    1      -26.211  83.245  11.997  0.00  0.00    -0.284 N 
ATOM     29  H   LIG    1      -26.739  83.135  12.861  0.00  0.00    +0.155 HD
ATOM     30  O   LIG    1      -25.227  82.017  10.296  0.00  0.00    -0.275 OA
BRANCH  27  31
ATOM     31  C   LIG    1      -25.735  80.833  12.294  0.00  0.00    +0.151 C 
BRANCH  31  36
ATOM     32  C   LIG    1      -22.236  80.949  16.841  0.00  0.00    +0.045 C 
ATOM     33  C   LIG    1      -23.298  80.931  15.784  0.00  0.00    -0.032 A 
ATOM     34  C   LIG    1      -23.539  82.045  14.986  0.00  0.00    +0.114 A 
ATOM     35  N   LIG    1      -24.373  82.066  13.912  0.00  0.00    -0.259 NA
ATOM     36  C   LIG    1      -25.050  80.925  13.637  0.00  0.00    +0.050 A 
ATOM     37  C   LIG    1      -24.958  79.795  14.460  0.00  0.00    +0.024 A 
ATOM     38  C   LIG    1      -24.072  79.800  15.539  0.00  0.00    +0.006 A 
ENDBRANCH  31  36
ENDBRANCH  27  31
ENDBRANCH  21  28
ENDBRANCH   1  23
TORSDOF 9
ENDMDL
MODEL 5
REMARK VINA RESULT:      -5.9      4.517      9.498
REMARK  Name = pdb/CHEMBL3671430.pdb
REMARK                            x       y       z     vdW  Elec       q    Type
REMARK                         _______ _______ _______ _____ _____    ______ ____
ROOT
ATOM      1  C   LIG    1      -26.985  77.009  33.298  0.00  0.00    +0.197 C 
ATOM      2  O   LIG    1      -26.804  77.940  34.098  0.00  0.00    -0.287 OA
ENDROOT
BRANCH   1   3
ATOM      3  C   LIG    1      -25.873  76.418  32.552  0.00  0.00    +0.051 A 
ATOM      4  C   LIG    1      -25.753  75.073  32.100  0.00  0.00    +0.048 A 
ATOM      5  C   LIG    1      -26.528  73.921  32.193  0.00  0.00    +0.126 A 
ATOM      6  N   LIG    1      -26.117  72.789  31.584  0.00  0.00    -0.222 NA
ATOM      7  C   LIG    1      -24.951  72.803  30.925  0.00  0.00    +0.214 A 
ATOM      8  N   LIG    1      -24.102  73.835  30.818  0.00  0.00    -0.197 NA
ATOM      9  C   LIG    1      -24.545  74.951  31.427  0.00  0.00    +0.147 A 
ATOM     10  N   LIG    1      -23.885  76.163  31.504  0.00  0.00    -0.323 N 
ATOM     11  C   LIG    1      -24.722  77.063  32.130  0.00  0.00    +0.100 A 
BRANCH   7  12
ATOM     12  N   LIG    1      -24.641  71.652  30.224  0.00  0.00    -0.327 N 
ATOM     13  H   LIG    1      -23.680  71.408  30.431  0.00  0.00    +0.145 HD
ATOM     14  H   LIG    1      -25.336  70.947  30.427  0.00  0.00    +0.145 HD
ENDBRANCH   7  12
BRANCH  10  15
ATOM     15  C   LIG    1      -22.517  76.459  31.012  0.00  0.00    +0.064 C 
ATOM     16  C   LIG    1      -21.518  75.316  31.352  0.00  0.00    +0.036 C 
ATOM     17  C   LIG    1      -21.972  77.733  31.690  0.00  0.00    +0.036 C 
BRANCH  15  18
ATOM     18  C   LIG    1      -22.524  76.633  29.470  0.00  0.00    +0.183 C 
BRANCH  18  19
ATOM     19  O   LIG    1      -23.247  77.806  29.089  0.00  0.00    -0.393 OA
ATOM     20  H   LIG    1      -24.109  77.517  28.742  0.00  0.00    +0.209 HD
ENDBRANCH  18  19
ENDBRANCH  15  18
ENDBRANCH  10  15
ENDBRANCH   1   3
BRANCH   1  23
ATOM     21  C   LIG    1      -30.319  76.183  31.632  0.00  0.00    +0.052 A 
ATOM     22  C   LIG    1      -29.029  76.707  31.819  0.00  0.00    +0.038 A 
ATOM     23  C   LIG    1      -28.366  76.532  33.051  0.00  0.00    +0.042 A 
ATOM     24  C   LIG    1      -29.023  75.817  34.046  0.00  0.00    +0.122 A 
ATOM     25  N   LIG    1      -30.255  75.294  33.909  0.00  0.00    -0.261 NA
ATOM     26  C   LIG    1      -30.864  75.475  32.708  0.00  0.00    +0.134 A 
BRANCH  21  28
ATOM     27  C   LIG    1      -31.401  75.448  29.496  0.00  0.00    +0.223 C 
ATOM     28  N   LIG    1      -31.012  76.422  30.408  0.00  0.00    -0.284 N 
ATOM     29  H   LIG    1      -31.164  77.389  30.125  0.00  0.00    +0.155 HD
ATOM     30  O   LIG    1      -31.125  74.252  29.605  0.00  0.00    -0.275 OA
BRANCH  27  31
ATOM     31  C   LIG    1      -32.300  75.900  28.358  0.00  0.00    +0.151 C 
BRANCH  31  36
ATOM     32  C   LIG    1      -34.901  80.988  27.835  0.00  0.00    +0.045 C 
ATOM     33  C   LIG    1      -34.069  79.760  28.047  0.00  0.00    -0.032 A 
ATOM     34  C   LIG    1      -34.350  78.870  29.079  0.00  0.00    +0.114 A 
ATOM     35  N   LIG    1      -33.746  77.664  29.250  0.00  0.00    -0.259 NA
ATOM     36  C   LIG    1      -32.766  77.337  28.373  0.00  0.00    +0.050 A 
ATOM     37  C   LIG    1      -32.337  78.226  27.380  0.00  0.00    +0.024 A 
ATOM     38  C   LIG    1      -32.999  79.445  27.215  0.00  0.00    +0.006 A 
ENDBRANCH  31  36
ENDBRANCH  27  31
ENDBRANCH  21  28
ENDBRANCH   1  23
TORSDOF 9
ENDMDL
MODEL 6
REMARK VINA RESULT:      -5.9     12.527     16.963
REMARK  Name = pdb/CHEMBL3671430.pdb
REMARK                            x       y       z     vdW  Elec       q    Type
REMARK                         _______ _______ _______ _____ _____    ______ ____
ROOT
ATOM      1  C   LIG    1      -39.430  71.455  23.963  0.00  0.00    +0.197 C 
ATOM      2  O   LIG    1      -40.486  70.996  23.502  0.00  0.00    -0.287 OA
ENDROOT
BRANCH   1   3
ATOM      3  C   LIG    1      -38.284  70.591  24.251  0.00  0.00    +0.051 A 
ATOM      4  C   LIG    1      -37.667  69.653  23.377  0.00  0.00    +0.048 A 
ATOM      5  C   LIG    1      -37.888  69.215  22.074  0.00  0.00    +0.126 A 
ATOM      6  N   LIG    1      -37.049  68.314  21.521  0.00  0.00    -0.222 NA
ATOM      7  C   LIG    1      -36.035  67.845  22.260  0.00  0.00    +0.214 A 
ATOM      8  N   LIG    1      -35.762  68.154  23.536  0.00  0.00    -0.197 NA
ATOM      9  C   LIG    1      -36.609  69.062  24.055  0.00  0.00    +0.147 A 
ATOM     10  N   LIG    1      -36.593  69.560  25.344  0.00  0.00    -0.323 N 
ATOM     11  C   LIG    1      -37.569  70.531  25.435  0.00  0.00    +0.100 A 
BRANCH   7  12
ATOM     12  N   LIG    1      -35.142  67.017  21.604  0.00  0.00    -0.327 N 
ATOM     13  H   LIG    1      -34.226  67.446  21.650  0.00  0.00    +0.145 HD
ATOM     14  H   LIG    1      -35.221  66.084  21.982  0.00  0.00    +0.145 HD
ENDBRANCH   7  12
BRANCH  10  15
ATOM     15  C   LIG    1      -35.698  69.133  26.448  0.00  0.00    +0.064 C 
ATOM     16  C   LIG    1      -36.175  67.803  27.099  0.00  0.00    +0.036 C 
ATOM     17  C   LIG    1      -35.693  70.192  27.568  0.00  0.00    +0.036 C 
BRANCH  15  18
ATOM     18  C   LIG    1      -34.258  68.904  25.916  0.00  0.00    +0.183 C 
BRANCH  18  19
ATOM     19  O   LIG    1      -33.780  70.057  25.218  0.00  0.00    -0.393 OA
ATOM     20  H   LIG    1      -34.272  70.115  24.380  0.00  0.00    +0.209 HD
ENDBRANCH  18  19
ENDBRANCH  15  18
ENDBRANCH  10  15
ENDBRANCH   1   3
BRANCH   1  23
ATOM     21  C   LIG    1      -38.160  74.907  24.987  0.00  0.00    +0.052 A 
ATOM     22  C   LIG    1      -38.178  73.522  24.750  0.00  0.00    +0.038 A 
ATOM     23  C   LIG    1      -39.355  72.899  24.286  0.00  0.00    +0.042 A 
ATOM     24  C   LIG    1      -40.469  73.702  24.060  0.00  0.00    +0.122 A 
ATOM     25  N   LIG    1      -40.494  75.031  24.268  0.00  0.00    -0.261 NA
ATOM     26  C   LIG    1      -39.342  75.601  24.708  0.00  0.00    +0.134 A 
BRANCH  21  28
ATOM     27  C   LIG    1      -36.763  75.801  26.863  0.00  0.00    +0.223 C 
ATOM     28  N   LIG    1      -36.988  75.521  25.521  0.00  0.00    -0.284 N 
ATOM     29  H   LIG    1      -36.288  75.866  24.866  0.00  0.00    +0.155 HD
ATOM     30  O   LIG    1      -37.592  75.615  27.756  0.00  0.00    -0.275 OA
BRANCH  27  31
ATOM     31  C   LIG    1      -35.368  76.275  27.236  0.00  0.00    +0.151 C 
BRANCH  31  36
ATOM     32  C   LIG    1      -31.433  72.846  29.619  0.00  0.00    +0.045 C 
ATOM     33  C   LIG    1      -32.583  73.678  29.140  0.00  0.00    -0.032 A 
ATOM     34  C   LIG    1      -32.611  75.054  29.345  0.00  0.00    +0.114 A 
ATOM     35  N   LIG    1      -33.534  75.900  28.815  0.00  0.00    -0.259 NA
ATOM     36  C   LIG    1      -34.523  75.344  28.073  0.00  0.00    +0.050 A 
ATOM     37  C   LIG    1      -34.638  73.957  27.917  0.00  0.00    +0.024 A 
ATOM     38  C   LIG    1      -33.657  73.120  28.453  0.00  0.00    +0.006 A 
ENDBRANCH  31  36
ENDBRANCH  27  31
ENDBRANCH  21  28
ENDBRANCH   1  23
TORSDOF 9
ENDMDL
MODEL 7
REMARK VINA RESULT:      -5.8     15.793     18.653
REMARK  Name = pdb/CHEMBL3671430.pdb
REMARK                            x       y       z     vdW  Elec       q    Type
REMARK                         _______ _______ _______ _____ _____    ______ ____
ROOT
ATOM      1  C   LIG    1      -22.030  80.650  16.145  0.00  0.00    +0.197 C 
ATOM      2  O   LIG    1      -22.392  81.013  17.274  0.00  0.00    -0.287 OA
ENDROOT
BRANCH   1   3
ATOM      3  C   LIG    1      -22.961  80.629  15.015  0.00  0.00    +0.051 A 
ATOM      4  C   LIG    1      -24.085  79.774  14.836  0.00  0.00    +0.048 A 
ATOM      5  C   LIG    1      -24.665  78.732  15.555  0.00  0.00    +0.126 A 
ATOM      6  N   LIG    1      -25.796  78.155  15.098  0.00  0.00    -0.222 NA
ATOM      7  C   LIG    1      -26.315  78.589  13.941  0.00  0.00    +0.214 A 
ATOM      8  N   LIG    1      -25.812  79.542  13.144  0.00  0.00    -0.197 NA
ATOM      9  C   LIG    1      -24.692  80.105  13.632  0.00  0.00    +0.147 A 
ATOM     10  N   LIG    1      -23.939  81.096  13.030  0.00  0.00    -0.323 N 
ATOM     11  C   LIG    1      -22.931  81.451  13.902  0.00  0.00    +0.100 A 
BRANCH   7  12
ATOM     12  N   LIG    1      -27.535  78.042  13.586  0.00  0.00    -0.327 N 
ATOM     13  H   LIG    1      -27.367  77.341  12.874  0.00  0.00    +0.145 HD
ATOM     14  H   LIG    1      -28.010  77.730  14.421  0.00  0.00    +0.145 HD
ENDBRANCH   7  12
BRANCH  10  15
ATOM     15  C   LIG    1      -24.158  81.679  11.683  0.00  0.00    +0.064 C 
ATOM     16  C   LIG    1      -24.142  80.592  10.571  0.00  0.00    +0.036 C 
ATOM     17  C   LIG    1      -23.027  82.671  11.343  0.00  0.00    +0.036 C 
BRANCH  15  18
ATOM     18  C   LIG    1      -25.535  82.392  11.622  0.00  0.00    +0.183 C 
BRANCH  18  19
ATOM     19  O   LIG    1      -25.901  82.912  12.903  0.00  0.00    -0.393 OA
ATOM     20  H   LIG    1      -26.669  82.402  13.215  0.00  0.00    +0.209 HD
ENDBRANCH  18  19
ENDBRANCH  15  18
ENDBRANCH  10  15
ENDBRANCH   1   3
BRANCH   1  23
ATOM     21  C   LIG    1      -18.971  78.405  15.720  0.00  0.00    +0.052 A 
ATOM     22  C   LIG    1      -20.298  78.799  15.959  0.00  0.00    +0.038 A 
ATOM     23  C   LIG    1      -20.642  80.166  15.956  0.00  0.00    +0.042 A 
ATOM     24  C   LIG    1      -19.635  81.089  15.692  0.00  0.00    +0.122 A 
ATOM     25  N   LIG    1      -18.353  80.757  15.453  0.00  0.00    -0.261 NA
ATOM     26  C   LIG    1      -18.056  79.431  15.457  0.00  0.00    +0.134 A 
BRANCH  21  28
ATOM     27  C   LIG    1      -18.157  76.368  16.928  0.00  0.00    +0.223 C 
ATOM     28  N   LIG    1      -18.615  77.025  15.793  0.00  0.00    -0.284 N 
ATOM     29  H   LIG    1      -18.607  76.488  14.928  0.00  0.00    +0.155 HD
ATOM     30  O   LIG    1      -17.934  76.924  18.006  0.00  0.00    -0.275 OA
BRANCH  27  31
ATOM     31  C   LIG    1      -18.026  74.857  16.834  0.00  0.00    +0.151 C 
BRANCH  31  36
ATOM     32  C   LIG    1      -22.872  72.572  18.890  0.00  0.00    +0.045 C 
ATOM     33  C   LIG    1      -21.571  72.990  18.274  0.00  0.00    -0.032 A 
ATOM     34  C   LIG    1      -21.537  73.801  17.144  0.00  0.00    +0.114 A 
ATOM     35  N   LIG    1      -20.411  74.348  16.614  0.00  0.00    -0.259 NA
ATOM     36  C   LIG    1      -19.235  74.033  17.210  0.00  0.00    +0.050 A 
ATOM     37  C   LIG    1      -19.167  73.129  18.277  0.00  0.00    +0.024 A 
ATOM     38  C   LIG    1      -20.346  72.608  18.814  0.00  0.00    +0.006 A 
ENDBRANCH  31  36
ENDBRANCH  27  31
ENDBRANCH  21  28
ENDBRANCH   1  23
TORSDOF 9
ENDMDL
MODEL 8
REMARK VINA RESULT:      -5.8     12.571     16.888
REMARK  Name = pdb/CHEMBL3671430.pdb
REMARK                            x       y       z     vdW  Elec       q    Type
REMARK                         _______ _______ _______ _____ _____    ______ ____
ROOT
ATOM      1  C   LIG    1      -39.543  72.647  25.570  0.00  0.00    +0.197 C 
ATOM      2  O   LIG    1      -40.449  72.454  26.394  0.00  0.00    -0.287 OA
ENDROOT
BRANCH   1   3
ATOM      3  C   LIG    1      -38.862  71.533  24.909  0.00  0.00    +0.051 A 
ATOM      4  C   LIG    1      -37.585  70.989  25.226  0.00  0.00    +0.048 A 
ATOM      5  C   LIG    1      -36.587  71.274  26.153  0.00  0.00    +0.126 A 
ATOM      6  N   LIG    1      -35.485  70.496  26.208  0.00  0.00    -0.222 NA
ATOM      7  C   LIG    1      -35.374  69.480  25.342  0.00  0.00    +0.214 A 
ATOM      8  N   LIG    1      -36.245  69.150  24.377  0.00  0.00    -0.197 NA
ATOM      9  C   LIG    1      -37.336  69.937  24.355  0.00  0.00    +0.147 A 
ATOM     10  N   LIG    1      -38.392  69.855  23.468  0.00  0.00    -0.323 N 
ATOM     11  C   LIG    1      -39.340  70.781  23.849  0.00  0.00    +0.100 A 
BRANCH   7  12
ATOM     12  N   LIG    1      -34.284  68.649  25.524  0.00  0.00    -0.327 N 
ATOM     13  H   LIG    1      -33.514  69.019  24.978  0.00  0.00    +0.145 HD
ATOM     14  H   LIG    1      -34.118  68.538  26.514  0.00  0.00    +0.145 HD
ENDBRANCH   7  12
BRANCH  10  15
ATOM     15  C   LIG    1      -38.500  68.943  22.302  0.00  0.00    +0.064 C 
ATOM     16  C   LIG    1      -37.259  69.044  21.370  0.00  0.00    +0.036 C 
ATOM     17  C   LIG    1      -39.725  69.320  21.443  0.00  0.00    +0.036 C 
BRANCH  15  18
ATOM     18  C   LIG    1      -38.610  67.470  22.778  0.00  0.00    +0.183 C 
BRANCH  18  19
ATOM     19  O   LIG    1      -37.327  66.838  22.792  0.00  0.00    -0.393 OA
ATOM     20  H   LIG    1      -36.750  67.337  22.187  0.00  0.00    +0.209 HD
ENDBRANCH  18  19
ENDBRANCH  15  18
ENDBRANCH  10  15
ENDBRANCH   1   3
BRANCH   1  23
ATOM     21  C   LIG    1      -37.515  75.880  25.472  0.00  0.00    +0.052 A 
ATOM     22  C   LIG    1      -37.902  74.574  25.811  0.00  0.00    +0.038 A 
ATOM     23  C   LIG    1      -39.102  74.036  25.300  0.00  0.00    +0.042 A 
ATOM     24  C   LIG    1      -39.859  74.833  24.448  0.00  0.00    +0.122 A 
ATOM     25  N   LIG    1      -39.524  76.086  24.093  0.00  0.00    -0.261 NA
ATOM     26  C   LIG    1      -38.359  76.572  24.597  0.00  0.00    +0.134 A 
BRANCH  21  28
ATOM     27  C   LIG    1      -36.241  76.995  27.317  0.00  0.00    +0.223 C 
ATOM     28  N   LIG    1      -36.336  76.444  26.046  0.00  0.00    -0.284 N 
ATOM     29  H   LIG    1      -35.512  76.534  25.454  0.00  0.00    +0.155 HD
ATOM     30  O   LIG    1      -37.196  77.130  28.085  0.00  0.00    -0.275 OA
BRANCH  27  31
ATOM     31  C   LIG    1      -34.847  77.357  27.801  0.00  0.00    +0.151 C 
BRANCH  31  36
ATOM     32  C   LIG    1      -31.730  72.952  29.753  0.00  0.00    +0.045 C 
ATOM     33  C   LIG    1      -32.412  74.113  29.095  0.00  0.00    -0.032 A 
ATOM     34  C   LIG    1      -33.602  73.945  28.394  0.00  0.00    +0.114 A 
ATOM     35  N   LIG    1      -34.362  74.959  27.899  0.00  0.00    -0.259 NA
ATOM     36  C   LIG    1      -33.890  76.218  28.066  0.00  0.00    +0.050 A 
ATOM     37  C   LIG    1      -32.644  76.468  28.653  0.00  0.00    +0.024 A 
ATOM     38  C   LIG    1      -31.902  75.405  29.174  0.00  0.00    +0.006 A 
ENDBRANCH  31  36
ENDBRANCH  27  31
ENDBRANCH  21  28
ENDBRANCH   1  23
TORSDOF 9
ENDMDL
MODEL 9
REMARK VINA RESULT:      -5.8      2.966      5.839
REMARK  Name = pdb/CHEMBL3671430.pdb
REMARK                            x       y       z     vdW  Elec       q    Type
REMARK                         _______ _______ _______ _____ _____    ______ ____
ROOT
ATOM      1  C   LIG    1      -22.529  78.555  35.434  0.00  0.00    +0.197 C 
ATOM      2  O   LIG    1      -22.148  77.749  36.296  0.00  0.00    -0.287 OA
ENDROOT
BRANCH   1   3
ATOM      3  C   LIG    1      -22.963  78.108  34.110  0.00  0.00    +0.051 A 
ATOM      4  C   LIG    1      -24.289  77.799  33.692  0.00  0.00    +0.048 A 
ATOM      5  C   LIG    1      -25.541  77.774  34.300  0.00  0.00    +0.126 A 
ATOM      6  N   LIG    1      -26.632  77.468  33.567  0.00  0.00    -0.222 NA
ATOM      7  C   LIG    1      -26.471  77.168  32.271  0.00  0.00    +0.214 A 
ATOM      8  N   LIG    1      -25.312  77.108  31.600  0.00  0.00    -0.197 NA
ATOM      9  C   LIG    1      -24.245  77.428  32.355  0.00  0.00    +0.147 A 
ATOM     10  N   LIG    1      -22.923  77.438  31.950  0.00  0.00    -0.323 N 
ATOM     11  C   LIG    1      -22.161  77.911  32.998  0.00  0.00    +0.100 A 
BRANCH   7  12
ATOM     12  N   LIG    1      -27.634  76.980  31.547  0.00  0.00    -0.327 N 
ATOM     13  H   LIG    1      -28.416  77.232  32.140  0.00  0.00    +0.145 HD
ATOM     14  H   LIG    1      -27.557  77.475  30.670  0.00  0.00    +0.145 HD
ENDBRANCH   7  12
BRANCH  10  15
ATOM     15  C   LIG    1      -22.399  77.010  30.629  0.00  0.00    +0.064 C 
ATOM     16  C   LIG    1      -23.238  77.593  29.456  0.00  0.00    +0.036 C 
ATOM     17  C   LIG    1      -22.471  75.475  30.499  0.00  0.00    +0.036 C 
BRANCH  15  18
ATOM     18  C   LIG    1      -20.937  77.497  30.446  0.00  0.00    +0.183 C 
BRANCH  18  19
ATOM     19  O   LIG    1      -20.454  77.191  29.135  0.00  0.00    -0.393 OA
ATOM     20  H   LIG    1      -19.698  77.778  28.959  0.00  0.00    +0.209 HD
ENDBRANCH  18  19
ENDBRANCH  15  18
ENDBRANCH  10  15
ENDBRANCH   1   3
BRANCH   1  23
ATOM     21  C   LIG    1      -23.494  82.109  36.444  0.00  0.00    +0.052 A 
ATOM     22  C   LIG    1      -23.618  80.748  36.118  0.00  0.00    +0.038 A 
ATOM     23  C   LIG    1      -22.482  80.005  35.736  0.00  0.00    +0.042 A 
ATOM     24  C   LIG    1      -21.255  80.661  35.714  0.00  0.00    +0.122 A 
ATOM     25  N   LIG    1      -21.090  81.960  36.022  0.00  0.00    -0.261 NA
ATOM     26  C   LIG    1      -22.203  82.645  36.393  0.00  0.00    +0.134 A 
BRANCH  21  28
ATOM     27  C   LIG    1      -25.191  83.035  38.035  0.00  0.00    +0.223 C 
ATOM     28  N   LIG    1      -24.657  82.871  36.763  0.00  0.00    -0.284 N 
ATOM     29  H   LIG    1      -25.199  83.261  35.994  0.00  0.00    +0.155 HD
ATOM     30  O   LIG    1      -24.759  82.474  39.043  0.00  0.00    -0.275 OA
BRANCH  27  31
ATOM     31  C   LIG    1      -26.316  84.048  38.177  0.00  0.00    +0.151 C 
BRANCH  31  36
ATOM     32  C   LIG    1      -30.062  85.720  34.164  0.00  0.00    +0.045 C 
ATOM     33  C   LIG    1      -29.065  85.116  35.106  0.00  0.00    -0.032 A 
ATOM     34  C   LIG    1      -27.749  85.565  35.146  0.00  0.00    +0.114 A 
ATOM     35  N   LIG    1      -26.825  85.182  36.067  0.00  0.00    -0.259 NA
ATOM     36  C   LIG    1      -27.212  84.257  36.979  0.00  0.00    +0.050 A 
ATOM     37  C   LIG    1      -28.480  83.664  36.937  0.00  0.00    +0.024 A 
ATOM     38  C   LIG    1      -29.413  84.102  35.994  0.00  0.00    +0.006 A 
ENDBRANCH  31  36
ENDBRANCH  27  31
ENDBRANCH  21  28
ENDBRANCH   1  23
TORSDOF 9
ENDMDL
