MODEL 1
REMARK VINA RESULT:      -6.5      0.000      0.000
REMARK  Name = pdb/CHEMBL3952185.pdb
REMARK                            x       y       z     vdW  Elec       q    Type
REMARK                         _______ _______ _______ _____ _____    ______ ____
ROOT
ATOM      1  C   LIG    1      -36.155  69.144  25.123  0.00  0.00    +0.149 A 
ATOM      2  N   LIG    1      -37.119  70.064  24.960  0.00  0.00    -0.160 NA
ATOM      3  N   LIG    1      -36.727  71.137  25.689  0.00  0.00    -0.218 N 
ATOM      4  C   LIG    1      -35.408  70.996  26.148  0.00  0.00    +0.129 A 
ATOM      5  C   LIG    1      -35.087  69.682  25.888  0.00  0.00    +0.078 A 
ENDROOT
BRANCH   3   6
ATOM      6  C   LIG    1      -37.615  72.241  25.840  0.00  0.00    +0.067 A 
ATOM      7  C   LIG    1      -38.109  72.895  24.699  0.00  0.00    +0.028 A 
ATOM      8  C   LIG    1      -38.920  74.026  24.834  0.00  0.00    +0.002 A 
ATOM      9  C   LIG    1      -39.268  74.489  26.100  0.00  0.00    +0.000 A 
ATOM     10  C   LIG    1      -38.839  73.802  27.233  0.00  0.00    +0.002 A 
ATOM     11  C   LIG    1      -38.027  72.672  27.105  0.00  0.00    +0.028 A 
ENDBRANCH   3   6
BRANCH   4  12
ATOM     12  N   LIG    1      -34.564  71.994  26.679  0.00  0.00    -0.266 N 
ATOM     13  H   LIG    1      -33.948  72.475  26.037  0.00  0.00    +0.157 HD
ATOM     14  C   LIG    1      -34.450  72.276  28.093  0.00  0.00    +0.251 C 
ATOM     15  O   LIG    1      -35.113  71.665  28.907  0.00  0.00    -0.270 OA
BRANCH  14  16
ATOM     16  C   LIG    1      -33.432  73.260  28.562  0.00  0.00    +0.056 A 
ATOM     17  C   LIG    1      -32.255  72.931  29.225  0.00  0.00    +0.054 A 
ATOM     18 CL   LIG    1      -31.717  71.311  29.437  0.00  0.00    -0.083 Cl
ATOM     19  C   LIG    1      -31.420  73.946  29.699  0.00  0.00    +0.041 A 
ATOM     20  C   LIG    1      -31.715  75.297  29.459  0.00  0.00    +0.052 A 
ATOM     21 CL   LIG    1      -30.680  76.440  30.252  0.00  0.00    -0.083 Cl
ATOM     22  C   LIG    1      -32.813  75.670  28.657  0.00  0.00    +0.022 A 
ATOM     23  C   LIG    1      -33.675  74.619  28.256  0.00  0.00    +0.026 A 
BRANCH  22  24
ATOM     24  C   LIG    1      -33.036  77.055  28.158  0.00  0.00    +0.107 A 
ATOM     25  C   LIG    1      -32.355  77.624  27.080  0.00  0.00    +0.149 A 
ATOM     26  F   LIG    1      -31.493  76.912  26.339  0.00  0.00    -0.203 F 
ATOM     27  C   LIG    1      -32.545  78.967  26.763  0.00  0.00    +0.042 A 
ATOM     28  C   LIG    1      -33.440  79.722  27.511  0.00  0.00    +0.023 A 
ATOM     29  C   LIG    1      -34.092  79.099  28.557  0.00  0.00    +0.111 A 
ATOM     30  N   LIG    1      -33.889  77.807  28.904  0.00  0.00    -0.252 NA
ENDBRANCH  22  24
ENDBRANCH  14  16
ENDBRANCH   4  12
BRANCH   1  32
ATOM     31  N   LIG    1      -35.189  67.319  23.938  0.00  0.00    -0.240 NA
ATOM     32  C   LIG    1      -36.223  67.805  24.524  0.00  0.00    +0.236 C 
BRANCH  32  33
ATOM     33  O   LIG    1      -37.411  67.175  24.644  0.00  0.00    -0.491 OA
ATOM     34  H   LIG    1      -38.122  67.797  24.851  0.00  0.00    +0.294 HD
ENDBRANCH  32  33
BRANCH  31  35
ATOM     35  C   LIG    1      -35.199  65.951  23.414  0.00  0.00    +0.240 C 
BRANCH  35  38
ATOM     36  C   LIG    1      -33.842  64.841  20.052  0.00  0.00    +0.174 C 
ATOM     37  N   LIG    1      -34.531  64.842  21.334  0.00  0.00    -0.257 NA
ATOM     38  C   LIG    1      -34.506  65.896  22.069  0.00  0.00    +0.204 C 
BRANCH  38  39
ATOM     39  O   LIG    1      -33.846  67.028  21.767  0.00  0.00    -0.494 OA
ATOM     40  H   LIG    1      -34.152  67.785  22.286  0.00  0.00    +0.293 HD
ENDBRANCH  38  39
ENDBRANCH  35  38
ENDBRANCH  31  35
ENDBRANCH   1  32
TORSDOF 9
ENDMDL
MODEL 2
REMARK VINA RESULT:      -6.4      5.208     11.139
REMARK  Name = pdb/CHEMBL3952185.pdb
REMARK                            x       y       z     vdW  Elec       q    Type
REMARK                         _______ _______ _______ _____ _____    ______ ____
ROOT
ATOM      1  C   LIG    1      -37.126  79.847  27.605  0.00  0.00    +0.149 A 
ATOM      2  N   LIG    1      -36.042  79.099  27.861  0.00  0.00    -0.160 NA
ATOM      3  N   LIG    1      -36.446  77.812  27.726  0.00  0.00    -0.218 N 
ATOM      4  C   LIG    1      -37.734  77.731  27.173  0.00  0.00    +0.129 A 
ATOM      5  C   LIG    1      -38.210  79.023  27.206  0.00  0.00    +0.078 A 
ENDROOT
BRANCH   3   6
ATOM      6  C   LIG    1      -35.553  76.759  28.076  0.00  0.00    +0.067 A 
ATOM      7  C   LIG    1      -35.780  76.018  29.248  0.00  0.00    +0.028 A 
ATOM      8  C   LIG    1      -34.871  75.032  29.643  0.00  0.00    +0.002 A 
ATOM      9  C   LIG    1      -33.752  74.759  28.860  0.00  0.00    +0.000 A 
ATOM     10  C   LIG    1      -33.561  75.442  27.661  0.00  0.00    +0.002 A 
ATOM     11  C   LIG    1      -34.466  76.430  27.261  0.00  0.00    +0.028 A 
ENDBRANCH   3   6
BRANCH   4  12
ATOM     12  N   LIG    1      -38.371  76.598  26.624  0.00  0.00    -0.266 N 
ATOM     13  H   LIG    1      -39.024  76.099  27.214  0.00  0.00    +0.157 HD
ATOM     14  C   LIG    1      -38.052  76.051  25.324  0.00  0.00    +0.251 C 
ATOM     15  O   LIG    1      -37.215  76.573  24.616  0.00  0.00    -0.270 OA
BRANCH  14  16
ATOM     16  C   LIG    1      -38.690  74.774  24.892  0.00  0.00    +0.056 A 
ATOM     17  C   LIG    1      -39.862  74.684  24.149  0.00  0.00    +0.054 A 
ATOM     18 CL   LIG    1      -40.648  76.052  23.462  0.00  0.00    -0.083 Cl
ATOM     19  C   LIG    1      -40.418  73.430  23.881  0.00  0.00    +0.041 A 
ATOM     20  C   LIG    1      -39.776  72.252  24.293  0.00  0.00    +0.052 A 
ATOM     21 CL   LIG    1      -40.668  70.787  24.036  0.00  0.00    -0.083 Cl
ATOM     22  C   LIG    1      -38.509  72.291  24.910  0.00  0.00    +0.022 A 
ATOM     23  C   LIG    1      -38.013  73.580  25.229  0.00  0.00    +0.026 A 
BRANCH  22  24
ATOM     24  C   LIG    1      -37.667  71.085  25.141  0.00  0.00    +0.107 A 
ATOM     25  C   LIG    1      -37.291  70.182  24.144  0.00  0.00    +0.149 A 
ATOM     26  F   LIG    1      -37.595  70.395  22.854  0.00  0.00    -0.203 F 
ATOM     27  C   LIG    1      -36.603  69.018  24.477  0.00  0.00    +0.042 A 
ATOM     28  C   LIG    1      -36.270  68.782  25.805  0.00  0.00    +0.023 A 
ATOM     29  C   LIG    1      -36.659  69.718  26.745  0.00  0.00    +0.111 A 
ATOM     30  N   LIG    1      -37.363  70.834  26.443  0.00  0.00    -0.252 NA
ENDBRANCH  22  24
ENDBRANCH  14  16
ENDBRANCH   4  12
BRANCH   1  32
ATOM     31  N   LIG    1      -36.014  81.952  27.538  0.00  0.00    -0.240 NA
ATOM     32  C   LIG    1      -37.118  81.314  27.690  0.00  0.00    +0.236 C 
BRANCH  32  33
ATOM     33  O   LIG    1      -38.316  81.887  27.930  0.00  0.00    -0.491 OA
ATOM     34  H   LIG    1      -38.231  82.652  28.517  0.00  0.00    +0.294 HD
ENDBRANCH  32  33
BRANCH  31  35
ATOM     35  C   LIG    1      -35.992  83.417  27.525  0.00  0.00    +0.240 C 
BRANCH  35  38
ATOM     36  C   LIG    1      -37.729  84.756  24.432  0.00  0.00    +0.174 C 
ATOM     37  N   LIG    1      -37.489  84.266  25.781  0.00  0.00    -0.257 NA
ATOM     38  C   LIG    1      -36.299  83.937  26.137  0.00  0.00    +0.204 C 
BRANCH  38  39
ATOM     39  O   LIG    1      -35.220  83.972  25.334  0.00  0.00    -0.494 OA
ATOM     40  H   LIG    1      -35.415  83.665  24.438  0.00  0.00    +0.293 HD
ENDBRANCH  38  39
ENDBRANCH  35  38
ENDBRANCH  31  35
ENDBRANCH   1  32
TORSDOF 9
ENDMDL
MODEL 3
REMARK VINA RESULT:      -6.4      8.837     15.546
REMARK  Name = pdb/CHEMBL3952185.pdb
REMARK                            x       y       z     vdW  Elec       q    Type
REMARK                         _______ _______ _______ _____ _____    ______ ____
ROOT
ATOM      1  C   LIG    1      -31.105  86.986  31.139  0.00  0.00    +0.149 A 
ATOM      2  N   LIG    1      -32.268  87.640  31.284  0.00  0.00    -0.160 NA
ATOM      3  N   LIG    1      -33.159  86.977  30.506  0.00  0.00    -0.218 N 
ATOM      4  C   LIG    1      -32.628  85.768  30.029  0.00  0.00    +0.129 A 
ATOM      5  C   LIG    1      -31.286  85.832  30.334  0.00  0.00    +0.078 A 
ENDROOT
BRANCH   3   6
ATOM      6  C   LIG    1      -34.467  87.514  30.328  0.00  0.00    +0.067 A 
ATOM      7  C   LIG    1      -35.461  87.250  31.285  0.00  0.00    +0.028 A 
ATOM      8  C   LIG    1      -36.767  87.707  31.085  0.00  0.00    +0.002 A 
ATOM      9  C   LIG    1      -37.080  88.453  29.951  0.00  0.00    +0.000 A 
ATOM     10  C   LIG    1      -36.081  88.777  29.035  0.00  0.00    +0.002 A 
ATOM     11  C   LIG    1      -34.774  88.322  29.229  0.00  0.00    +0.028 A 
ENDBRANCH   3   6
BRANCH   4  12
ATOM     12  N   LIG    1      -33.322  84.689  29.443  0.00  0.00    -0.266 N 
ATOM     13  H   LIG    1      -33.401  84.677  28.434  0.00  0.00    +0.157 HD
ATOM     14  C   LIG    1      -34.021  83.678  30.205  0.00  0.00    +0.251 C 
ATOM     15  O   LIG    1      -34.020  83.701  31.419  0.00  0.00    -0.270 OA
BRANCH  14  16
ATOM     16  C   LIG    1      -34.833  82.653  29.488  0.00  0.00    +0.056 A 
ATOM     17  C   LIG    1      -36.177  82.794  29.159  0.00  0.00    +0.054 A 
ATOM     18 CL   LIG    1      -37.050  84.261  29.374  0.00  0.00    -0.083 Cl
ATOM     19  C   LIG    1      -36.860  81.727  28.568  0.00  0.00    +0.041 A 
ATOM     20  C   LIG    1      -36.195  80.536  28.238  0.00  0.00    +0.052 A 
ATOM     21 CL   LIG    1      -37.209  79.249  27.667  0.00  0.00    -0.083 Cl
ATOM     22  C   LIG    1      -34.802  80.409  28.410  0.00  0.00    +0.022 A 
ATOM     23  C   LIG    1      -34.158  81.481  29.077  0.00  0.00    +0.026 A 
BRANCH  22  24
ATOM     24  C   LIG    1      -34.003  79.283  27.853  0.00  0.00    +0.107 A 
ATOM     25  C   LIG    1      -33.940  78.006  28.416  0.00  0.00    +0.149 A 
ATOM     26  F   LIG    1      -34.690  77.669  29.476  0.00  0.00    -0.203 F 
ATOM     27  C   LIG    1      -33.070  77.053  27.892  0.00  0.00    +0.042 A 
ATOM     28  C   LIG    1      -32.290  77.378  26.789  0.00  0.00    +0.023 A 
ATOM     29  C   LIG    1      -32.405  78.654  26.270  0.00  0.00    +0.111 A 
ATOM     30  N   LIG    1      -33.216  79.604  26.791  0.00  0.00    -0.252 NA
ENDBRANCH  22  24
ENDBRANCH  14  16
ENDBRANCH   4  12
BRANCH   1  32
ATOM     31  N   LIG    1      -29.756  87.338  33.069  0.00  0.00    -0.240 NA
ATOM     32  C   LIG    1      -29.863  87.419  31.792  0.00  0.00    +0.236 C 
BRANCH  32  33
ATOM     33  O   LIG    1      -28.904  87.884  30.964  0.00  0.00    -0.491 OA
ATOM     34  H   LIG    1      -29.189  88.689  30.508  0.00  0.00    +0.294 HD
ENDBRANCH  32  33
BRANCH  31  35
ATOM     35  C   LIG    1      -28.496  87.676  33.738  0.00  0.00    +0.240 C 
BRANCH  35  38
ATOM     36  C   LIG    1      -28.423  84.558  35.894  0.00  0.00    +0.174 C 
ATOM     37  N   LIG    1      -28.876  85.604  34.989  0.00  0.00    -0.257 NA
ATOM     38  C   LIG    1      -28.078  86.559  34.670  0.00  0.00    +0.204 C 
BRANCH  38  39
ATOM     39  O   LIG    1      -26.828  86.706  35.145  0.00  0.00    -0.494 OA
ATOM     40  H   LIG    1      -26.478  85.890  35.526  0.00  0.00    +0.293 HD
ENDBRANCH  38  39
ENDBRANCH  35  38
ENDBRANCH  31  35
ENDBRANCH   1  32
TORSDOF 9
ENDMDL
MODEL 4
REMARK VINA RESULT:      -6.4     15.040     19.812
REMARK  Name = pdb/CHEMBL3952185.pdb
REMARK                            x       y       z     vdW  Elec       q    Type
REMARK                         _______ _______ _______ _____ _____    ______ ____
ROOT
ATOM      1  C   LIG    1      -24.107  82.962  37.229  0.00  0.00    +0.149 A 
ATOM      2  N   LIG    1      -23.062  83.475  37.897  0.00  0.00    -0.160 NA
ATOM      3  N   LIG    1      -21.997  82.713  37.547  0.00  0.00    -0.218 N 
ATOM      4  C   LIG    1      -22.308  81.844  36.489  0.00  0.00    +0.129 A 
ATOM      5  C   LIG    1      -23.678  81.921  36.366  0.00  0.00    +0.078 A 
ENDROOT
BRANCH   3   6
ATOM      6  C   LIG    1      -20.749  82.913  38.205  0.00  0.00    +0.067 A 
ATOM      7  C   LIG    1      -20.180  81.865  38.947  0.00  0.00    +0.028 A 
ATOM      8  C   LIG    1      -18.995  82.071  39.659  0.00  0.00    +0.002 A 
ATOM      9  C   LIG    1      -18.356  83.308  39.610  0.00  0.00    +0.000 A 
ATOM     10  C   LIG    1      -18.879  84.328  38.819  0.00  0.00    +0.002 A 
ATOM     11  C   LIG    1      -20.065  84.129  38.106  0.00  0.00    +0.028 A 
ENDBRANCH   3   6
BRANCH   4  12
ATOM     12  N   LIG    1      -21.415  81.119  35.673  0.00  0.00    -0.266 N 
ATOM     13  H   LIG    1      -21.114  81.552  34.809  0.00  0.00    +0.157 HD
ATOM     14  C   LIG    1      -21.008  79.758  35.944  0.00  0.00    +0.251 C 
ATOM     15  O   LIG    1      -21.409  79.171  36.929  0.00  0.00    -0.270 OA
BRANCH  14  16
ATOM     16  C   LIG    1      -20.163  79.035  34.950  0.00  0.00    +0.056 A 
ATOM     17  C   LIG    1      -18.787  78.864  35.052  0.00  0.00    +0.054 A 
ATOM     18 CL   LIG    1      -17.885  79.309  36.448  0.00  0.00    -0.083 Cl
ATOM     19  C   LIG    1      -18.087  78.249  34.011  0.00  0.00    +0.041 A 
ATOM     20  C   LIG    1      -18.758  77.738  32.889  0.00  0.00    +0.052 A 
ATOM     21 CL   LIG    1      -17.741  77.158  31.610  0.00  0.00    -0.083 Cl
ATOM     22  C   LIG    1      -20.166  77.750  32.817  0.00  0.00    +0.022 A 
ATOM     23  C   LIG    1      -20.836  78.445  33.855  0.00  0.00    +0.026 A 
BRANCH  22  24
ATOM     24  C   LIG    1      -20.944  77.008  31.787  0.00  0.00    +0.107 A 
ATOM     25  C   LIG    1      -21.102  77.426  30.464  0.00  0.00    +0.149 A 
ATOM     26  F   LIG    1      -20.469  78.510  29.990  0.00  0.00    -0.203 F 
ATOM     27  C   LIG    1      -21.948  76.728  29.606  0.00  0.00    +0.042 A 
ATOM     28  C   LIG    1      -22.607  75.598  30.073  0.00  0.00    +0.023 A 
ATOM     29  C   LIG    1      -22.402  75.227  31.388  0.00  0.00    +0.111 A 
ATOM     30  N   LIG    1      -21.615  75.917  32.246  0.00  0.00    -0.252 NA
ENDBRANCH  22  24
ENDBRANCH  14  16
ENDBRANCH   4  12
BRANCH   1  32
ATOM     31  N   LIG    1      -26.105  83.895  36.329  0.00  0.00    -0.240 NA
ATOM     32  C   LIG    1      -25.474  83.483  37.368  0.00  0.00    +0.236 C 
BRANCH  32  33
ATOM     33  O   LIG    1      -25.968  83.486  38.624  0.00  0.00    -0.491 OA
ATOM     34  H   LIG    1      -26.921  83.318  38.630  0.00  0.00    +0.294 HD
ENDBRANCH  32  33
BRANCH  31  35
ATOM     35  C   LIG    1      -27.500  84.333  36.424  0.00  0.00    +0.240 C 
BRANCH  35  38
ATOM     36  C   LIG    1      -27.760  87.248  34.013  0.00  0.00    +0.174 C 
ATOM     37  N   LIG    1      -27.384  86.424  35.153  0.00  0.00    -0.257 NA
ATOM     38  C   LIG    1      -27.852  85.232  35.258  0.00  0.00    +0.204 C 
BRANCH  38  39
ATOM     39  O   LIG    1      -28.719  84.668  34.398  0.00  0.00    -0.494 OA
ATOM     40  H   LIG    1      -29.084  83.837  34.731  0.00  0.00    +0.293 HD
ENDBRANCH  38  39
ENDBRANCH  35  38
ENDBRANCH  31  35
ENDBRANCH   1  32
TORSDOF 9
ENDMDL
MODEL 5
REMARK VINA RESULT:      -6.3     16.984     20.230
REMARK  Name = pdb/CHEMBL3952185.pdb
REMARK                            x       y       z     vdW  Elec       q    Type
REMARK                         _______ _______ _______ _____ _____    ______ ____
ROOT
ATOM      1  C   LIG    1      -22.778  82.776  15.337  0.00  0.00    +0.149 A 
ATOM      2  N   LIG    1      -23.935  82.250  14.907  0.00  0.00    -0.160 NA
ATOM      3  N   LIG    1      -23.716  80.916  14.812  0.00  0.00    -0.218 N 
ATOM      4  C   LIG    1      -22.487  80.552  15.385  0.00  0.00    +0.129 A 
ATOM      5  C   LIG    1      -21.841  81.747  15.612  0.00  0.00    +0.078 A 
ENDROOT
BRANCH   3   6
ATOM      6  C   LIG    1      -24.719  80.082  14.238  0.00  0.00    +0.067 A 
ATOM      7  C   LIG    1      -25.057  80.236  12.883  0.00  0.00    +0.028 A 
ATOM      8  C   LIG    1      -26.092  79.478  12.327  0.00  0.00    +0.002 A 
ATOM      9  C   LIG    1      -26.770  78.544  13.106  0.00  0.00    +0.000 A 
ATOM     10  C   LIG    1      -26.390  78.337  14.431  0.00  0.00    +0.002 A 
ATOM     11  C   LIG    1      -25.358  79.093  14.993  0.00  0.00    +0.028 A 
ENDBRANCH   3   6
BRANCH   4  12
ATOM     12  N   LIG    1      -22.042  79.258  15.732  0.00  0.00    -0.266 N 
ATOM     13  H   LIG    1      -22.136  78.977  16.699  0.00  0.00    +0.157 HD
ATOM     14  C   LIG    1      -21.359  78.374  14.814  0.00  0.00    +0.251 C 
ATOM     15  O   LIG    1      -21.154  78.705  13.664  0.00  0.00    -0.270 OA
BRANCH  14  16
ATOM     16  C   LIG    1      -20.813  77.080  15.317  0.00  0.00    +0.056 A 
ATOM     17  C   LIG    1      -19.534  76.905  15.834  0.00  0.00    +0.054 A 
ATOM     18 CL   LIG    1      -18.456  78.210  16.139  0.00  0.00    -0.083 Cl
ATOM     19  C   LIG    1      -19.100  75.625  16.189  0.00  0.00    +0.041 A 
ATOM     20  C   LIG    1      -19.958  74.518  16.095  0.00  0.00    +0.052 A 
ATOM     21 CL   LIG    1      -19.226  72.978  16.410  0.00  0.00    -0.083 Cl
ATOM     22  C   LIG    1      -21.309  74.674  15.725  0.00  0.00    +0.022 A 
ATOM     23  C   LIG    1      -21.692  75.973  15.304  0.00  0.00    +0.026 A 
BRANCH  22  24
ATOM     24  C   LIG    1      -22.327  73.595  15.848  0.00  0.00    +0.107 A 
ATOM     25  C   LIG    1      -23.073  73.341  17.002  0.00  0.00    +0.149 A 
ATOM     26  F   LIG    1      -22.987  74.132  18.081  0.00  0.00    -0.203 F 
ATOM     27  C   LIG    1      -23.915  72.233  17.060  0.00  0.00    +0.042 A 
ATOM     28  C   LIG    1      -24.026  71.404  15.951  0.00  0.00    +0.023 A 
ATOM     29  C   LIG    1      -23.272  71.715  14.835  0.00  0.00    +0.111 A 
ATOM     30  N   LIG    1      -22.419  72.764  14.775  0.00  0.00    -0.252 NA
ENDBRANCH  22  24
ENDBRANCH  14  16
ENDBRANCH   4  12
BRANCH   1  32
ATOM     31  N   LIG    1      -22.181  84.941  14.548  0.00  0.00    -0.240 NA
ATOM     32  C   LIG    1      -22.583  84.219  15.530  0.00  0.00    +0.236 C 
BRANCH  32  33
ATOM     33  O   LIG    1      -22.852  84.681  16.769  0.00  0.00    -0.491 OA
ATOM     34  H   LIG    1      -22.347  84.203  17.442  0.00  0.00    +0.294 HD
ENDBRANCH  32  33
BRANCH  31  35
ATOM     35  C   LIG    1      -22.067  86.396  14.685  0.00  0.00    +0.240 C 
BRANCH  35  38
ATOM     36  C   LIG    1      -18.846  87.080  12.804  0.00  0.00    +0.174 C 
ATOM     37  N   LIG    1      -20.188  86.619  13.128  0.00  0.00    -0.257 NA
ATOM     38  C   LIG    1      -20.679  86.856  14.291  0.00  0.00    +0.204 C 
BRANCH  38  39
ATOM     39  O   LIG    1      -20.027  87.484  15.287  0.00  0.00    -0.494 OA
ATOM     40  H   LIG    1      -20.154  87.051  16.142  0.00  0.00    +0.293 HD
ENDBRANCH  38  39
ENDBRANCH  35  38
ENDBRANCH  31  35
ENDBRANCH   1  32
TORSDOF 9
ENDMDL
MODEL 6
REMARK VINA RESULT:      -6.2      4.888     10.147
REMARK  Name = pdb/CHEMBL3952185.pdb
REMARK                            x       y       z     vdW  Elec       q    Type
REMARK                         _______ _______ _______ _____ _____    ______ ____
ROOT
ATOM      1  C   LIG    1      -37.557  77.123  26.554  0.00  0.00    +0.149 A 
ATOM      2  N   LIG    1      -38.867  77.353  26.372  0.00  0.00    -0.160 NA
ATOM      3  N   LIG    1      -39.275  76.434  25.463  0.00  0.00    -0.218 N 
ATOM      4  C   LIG    1      -38.282  75.473  25.218  0.00  0.00    +0.129 A 
ATOM      5  C   LIG    1      -37.152  75.977  25.822  0.00  0.00    +0.078 A 
ENDROOT
BRANCH   3   6
ATOM      6  C   LIG    1      -40.600  76.506  24.944  0.00  0.00    +0.067 A 
ATOM      7  C   LIG    1      -41.693  76.476  25.826  0.00  0.00    +0.028 A 
ATOM      8  C   LIG    1      -42.999  76.470  25.326  0.00  0.00    +0.002 A 
ATOM      9  C   LIG    1      -43.222  76.526  23.952  0.00  0.00    +0.000 A 
ATOM     10  C   LIG    1      -42.142  76.629  23.078  0.00  0.00    +0.002 A 
ATOM     11  C   LIG    1      -40.834  76.634  23.571  0.00  0.00    +0.028 A 
ENDBRANCH   3   6
BRANCH   4  12
ATOM     12  N   LIG    1      -38.424  74.226  24.573  0.00  0.00    -0.266 N 
ATOM     13  H   LIG    1      -38.089  74.152  23.621  0.00  0.00    +0.157 HD
ATOM     14  C   LIG    1      -39.122  73.100  25.152  0.00  0.00    +0.251 C 
ATOM     15  O   LIG    1      -39.610  73.172  26.261  0.00  0.00    -0.270 OA
BRANCH  14  16
ATOM     16  C   LIG    1      -39.329  71.870  24.334  0.00  0.00    +0.056 A 
ATOM     17  C   LIG    1      -40.446  71.620  23.545  0.00  0.00    +0.054 A 
ATOM     18 CL   LIG    1      -41.674  72.790  23.255  0.00  0.00    -0.083 Cl
ATOM     19  C   LIG    1      -40.573  70.389  22.894  0.00  0.00    +0.041 A 
ATOM     20  C   LIG    1      -39.559  69.423  22.970  0.00  0.00    +0.052 A 
ATOM     21 CL   LIG    1      -39.934  67.889  22.252  0.00  0.00    -0.083 Cl
ATOM     22  C   LIG    1      -38.343  69.695  23.629  0.00  0.00    +0.022 A 
ATOM     23  C   LIG    1      -38.280  70.922  24.336  0.00  0.00    +0.026 A 
BRANCH  22  24
ATOM     24  C   LIG    1      -37.140  68.822  23.533  0.00  0.00    +0.107 A 
ATOM     25  C   LIG    1      -36.541  68.434  22.333  0.00  0.00    +0.149 A 
ATOM     26  F   LIG    1      -36.964  68.908  21.151  0.00  0.00    -0.203 F 
ATOM     27  C   LIG    1      -35.492  67.517  22.340  0.00  0.00    +0.042 A 
ATOM     28  C   LIG    1      -35.032  67.020  23.552  0.00  0.00    +0.023 A 
ATOM     29  C   LIG    1      -35.657  67.452  24.706  0.00  0.00    +0.111 A 
ATOM     30  N   LIG    1      -36.704  68.310  24.715  0.00  0.00    -0.252 NA
ENDBRANCH  22  24
ENDBRANCH  14  16
ENDBRANCH   4  12
BRANCH   1  32
ATOM     31  N   LIG    1      -35.928  77.369  28.273  0.00  0.00    -0.240 NA
ATOM     32  C   LIG    1      -36.721  77.942  27.442  0.00  0.00    +0.236 C 
BRANCH  32  33
ATOM     33  O   LIG    1      -36.864  79.277  27.305  0.00  0.00    -0.491 OA
ATOM     34  H   LIG    1      -37.769  79.513  27.057  0.00  0.00    +0.294 HD
ENDBRANCH  32  33
BRANCH  31  35
ATOM     35  C   LIG    1      -35.017  78.159  29.105  0.00  0.00    +0.240 C 
BRANCH  35  38
ATOM     36  C   LIG    1      -32.288  79.090  26.642  0.00  0.00    +0.174 C 
ATOM     37  N   LIG    1      -33.591  78.946  27.274  0.00  0.00    -0.257 NA
ATOM     38  C   LIG    1      -33.687  78.343  28.404  0.00  0.00    +0.204 C 
BRANCH  38  39
ATOM     39  O   LIG    1      -32.659  77.778  29.064  0.00  0.00    -0.494 OA
ATOM     40  H   LIG    1      -32.846  76.868  29.331  0.00  0.00    +0.293 HD
ENDBRANCH  38  39
ENDBRANCH  35  38
ENDBRANCH  31  35
ENDBRANCH   1  32
TORSDOF 9
ENDMDL
MODEL 7
REMARK VINA RESULT:      -6.1     17.853     20.323
REMARK  Name = pdb/CHEMBL3952185.pdb
REMARK                            x       y       z     vdW  Elec       q    Type
REMARK                         _______ _______ _______ _____ _____    ______ ____
ROOT
ATOM      1  C   LIG    1      -24.700  78.971  14.455  0.00  0.00    +0.149 A 
ATOM      2  N   LIG    1      -23.602  78.602  15.133  0.00  0.00    -0.160 NA
ATOM      3  N   LIG    1      -22.610  79.412  14.690  0.00  0.00    -0.218 N 
ATOM      4  C   LIG    1      -23.110  80.448  13.885  0.00  0.00    +0.129 A 
ATOM      5  C   LIG    1      -24.420  80.099  13.642  0.00  0.00    +0.078 A 
ENDROOT
BRANCH   3   6
ATOM      6  C   LIG    1      -21.271  79.174  15.116  0.00  0.00    +0.067 A 
ATOM      7  C   LIG    1      -20.773  79.846  16.245  0.00  0.00    +0.028 A 
ATOM      8  C   LIG    1      -19.439  79.680  16.629  0.00  0.00    +0.002 A 
ATOM      9  C   LIG    1      -18.607  78.823  15.913  0.00  0.00    +0.000 A 
ATOM     10  C   LIG    1      -19.116  78.101  14.835  0.00  0.00    +0.002 A 
ATOM     11  C   LIG    1      -20.449  78.264  14.445  0.00  0.00    +0.028 A 
ENDBRANCH   3   6
BRANCH   4  12
ATOM     12  N   LIG    1      -22.449  81.629  13.483  0.00  0.00    -0.266 N 
ATOM     13  H   LIG    1      -21.987  81.621  12.584  0.00  0.00    +0.157 HD
ATOM     14  C   LIG    1      -22.299  82.790  14.332  0.00  0.00    +0.251 C 
ATOM     15  O   LIG    1      -22.769  82.810  15.451  0.00  0.00    -0.270 OA
BRANCH  14  16
ATOM     16  C   LIG    1      -21.470  83.937  13.860  0.00  0.00    +0.056 A 
ATOM     17  C   LIG    1      -20.080  83.958  13.843  0.00  0.00    +0.054 A 
ATOM     18 CL   LIG    1      -19.114  82.579  14.196  0.00  0.00    -0.083 Cl
ATOM     19  C   LIG    1      -19.410  85.125  13.465  0.00  0.00    +0.041 A 
ATOM     20  C   LIG    1      -20.117  86.259  13.037  0.00  0.00    +0.052 A 
ATOM     21 CL   LIG    1      -19.157  87.678  12.764  0.00  0.00    -0.083 Cl
ATOM     22  C   LIG    1      -21.518  86.229  12.890  0.00  0.00    +0.022 A 
ATOM     23  C   LIG    1      -22.167  85.056  13.350  0.00  0.00    +0.026 A 
BRANCH  22  24
ATOM     24  C   LIG    1      -22.298  87.299  12.209  0.00  0.00    +0.107 A 
ATOM     25  C   LIG    1      -22.842  88.412  12.854  0.00  0.00    +0.149 A 
ATOM     26  F   LIG    1      -22.617  88.649  14.155  0.00  0.00    -0.203 F 
ATOM     27  C   LIG    1      -23.658  89.297  12.153  0.00  0.00    +0.042 A 
ATOM     28  C   LIG    1      -23.899  89.076  10.803  0.00  0.00    +0.023 A 
ATOM     29  C   LIG    1      -23.322  87.965  10.218  0.00  0.00    +0.111 A 
ATOM     30  N   LIG    1      -22.560  87.073  10.893  0.00  0.00    -0.252 NA
ENDBRANCH  22  24
ENDBRANCH  14  16
ENDBRANCH   4  12
BRANCH   1  32
ATOM     31  N   LIG    1      -26.425  77.521  13.689  0.00  0.00    -0.240 NA
ATOM     32  C   LIG    1      -25.997  78.300  14.615  0.00  0.00    +0.236 C 
BRANCH  32  33
ATOM     33  O   LIG    1      -26.653  78.571  15.763  0.00  0.00    -0.491 OA
ATOM     34  H   LIG    1      -27.528  78.947  15.590  0.00  0.00    +0.294 HD
ENDBRANCH  32  33
BRANCH  31  35
ATOM     35  C   LIG    1      -27.670  76.767  13.861  0.00  0.00    +0.240 C 
BRANCH  35  38
ATOM     36  C   LIG    1      -26.275  73.299  14.501  0.00  0.00    +0.174 C 
ATOM     37  N   LIG    1      -26.502  74.735  14.576  0.00  0.00    -0.257 NA
ATOM     38  C   LIG    1      -27.395  75.278  13.829  0.00  0.00    +0.204 C 
BRANCH  38  39
ATOM     39  O   LIG    1      -28.141  74.622  12.922  0.00  0.00    -0.494 OA
ATOM     40  H   LIG    1      -29.090  74.753  13.058  0.00  0.00    +0.293 HD
ENDBRANCH  38  39
ENDBRANCH  35  38
ENDBRANCH  31  35
ENDBRANCH   1  32
TORSDOF 9
ENDMDL
MODEL 8
REMARK VINA RESULT:      -6.1      8.834     15.964
REMARK  Name = pdb/CHEMBL3952185.pdb
REMARK                            x       y       z     vdW  Elec       q    Type
REMARK                         _______ _______ _______ _____ _____    ______ ____
ROOT
ATOM      1  C   LIG    1      -31.575  87.104  30.603  0.00  0.00    +0.149 A 
ATOM      2  N   LIG    1      -32.755  87.741  30.553  0.00  0.00    -0.160 NA
ATOM      3  N   LIG    1      -33.571  86.943  29.822  0.00  0.00    -0.218 N 
ATOM      4  C   LIG    1      -32.986  85.689  29.581  0.00  0.00    +0.129 A 
ATOM      5  C   LIG    1      -31.675  85.834  29.977  0.00  0.00    +0.078 A 
ENDROOT
BRANCH   3   6
ATOM      6  C   LIG    1      -34.867  87.411  29.461  0.00  0.00    +0.067 A 
ATOM      7  C   LIG    1      -35.961  87.135  30.297  0.00  0.00    +0.028 A 
ATOM      8  C   LIG    1      -37.250  87.523  29.918  0.00  0.00    +0.002 A 
ATOM      9  C   LIG    1      -37.450  88.212  28.724  0.00  0.00    +0.000 A 
ATOM     10  C   LIG    1      -36.358  88.550  27.927  0.00  0.00    +0.002 A 
ATOM     11  C   LIG    1      -35.068  88.164  28.300  0.00  0.00    +0.028 A 
ENDBRANCH   3   6
BRANCH   4  12
ATOM     12  N   LIG    1      -33.616  84.514  29.119  0.00  0.00    -0.266 N 
ATOM     13  H   LIG    1      -33.541  84.301  28.133  0.00  0.00    +0.157 HD
ATOM     14  C   LIG    1      -34.452  83.675  29.948  0.00  0.00    +0.251 C 
ATOM     15  O   LIG    1      -34.634  83.939  31.120  0.00  0.00    -0.270 OA
BRANCH  14  16
ATOM     16  C   LIG    1      -35.177  82.527  29.330  0.00  0.00    +0.056 A 
ATOM     17  C   LIG    1      -36.543  82.496  29.075  0.00  0.00    +0.054 A 
ATOM     18 CL   LIG    1      -37.568  83.864  29.271  0.00  0.00    -0.083 Cl
ATOM     19  C   LIG    1      -37.128  81.329  28.576  0.00  0.00    +0.041 A 
ATOM     20  C   LIG    1      -36.348  80.205  28.264  0.00  0.00    +0.052 A 
ATOM     21 CL   LIG    1      -37.234  78.782  27.817  0.00  0.00    -0.083 Cl
ATOM     22  C   LIG    1      -34.942  80.246  28.360  0.00  0.00    +0.022 A 
ATOM     23  C   LIG    1      -34.392  81.419  28.936  0.00  0.00    +0.026 A 
BRANCH  22  24
ATOM     24  C   LIG    1      -34.048  79.190  27.811  0.00  0.00    +0.107 A 
ATOM     25  C   LIG    1      -33.880  77.925  28.379  0.00  0.00    +0.149 A 
ATOM     26  F   LIG    1      -34.603  77.529  29.437  0.00  0.00    -0.203 F 
ATOM     27  C   LIG    1      -32.930  77.047  27.862  0.00  0.00    +0.042 A 
ATOM     28  C   LIG    1      -32.176  77.433  26.762  0.00  0.00    +0.023 A 
ATOM     29  C   LIG    1      -32.396  78.692  26.237  0.00  0.00    +0.111 A 
ATOM     30  N   LIG    1      -33.287  79.572  26.751  0.00  0.00    -0.252 NA
ENDBRANCH  22  24
ENDBRANCH  14  16
ENDBRANCH   4  12
BRANCH   1  32
ATOM     31  N   LIG    1      -30.356  87.707  32.557  0.00  0.00    -0.240 NA
ATOM     32  C   LIG    1      -30.396  87.665  31.274  0.00  0.00    +0.236 C 
BRANCH  32  33
ATOM     33  O   LIG    1      -29.418  88.107  30.456  0.00  0.00    -0.491 OA
ATOM     34  H   LIG    1      -29.688  88.904  29.979  0.00  0.00    +0.294 HD
ENDBRANCH  32  33
BRANCH  31  35
ATOM     35  C   LIG    1      -29.156  88.175  33.254  0.00  0.00    +0.240 C 
BRANCH  35  38
ATOM     36  C   LIG    1      -29.654  91.424  35.144  0.00  0.00    +0.174 C 
ATOM     37  N   LIG    1      -29.520  90.007  34.839  0.00  0.00    -0.257 NA
ATOM     38  C   LIG    1      -29.299  89.635  33.630  0.00  0.00    +0.204 C 
BRANCH  38  39
ATOM     39  O   LIG    1      -29.213  90.464  32.574  0.00  0.00    -0.494 OA
ATOM     40  H   LIG    1      -28.722  90.076  31.837  0.00  0.00    +0.293 HD
ENDBRANCH  38  39
ENDBRANCH  35  38
ENDBRANCH  31  35
ENDBRANCH   1  32
TORSDOF 9
ENDMDL
MODEL 9
REMARK VINA RESULT:      -6.1      3.667      4.696
REMARK  Name = pdb/CHEMBL3952185.pdb
REMARK                            x       y       z     vdW  Elec       q    Type
REMARK                         _______ _______ _______ _____ _____    ______ ____
ROOT
ATOM      1  C   LIG    1      -40.639  72.633  23.529  0.00  0.00    +0.149 A 
ATOM      2  N   LIG    1      -40.878  73.953  23.491  0.00  0.00    -0.160 NA
ATOM      3  N   LIG    1      -39.982  74.511  24.340  0.00  0.00    -0.218 N 
ATOM      4  C   LIG    1      -39.021  73.579  24.763  0.00  0.00    +0.129 A 
ATOM      5  C   LIG    1      -39.507  72.361  24.341  0.00  0.00    +0.078 A 
ENDROOT
BRANCH   3   6
ATOM      6  C   LIG    1      -40.072  75.902  24.635  0.00  0.00    +0.067 A 
ATOM      7  C   LIG    1      -39.877  76.843  23.610  0.00  0.00    +0.028 A 
ATOM      8  C   LIG    1      -39.888  78.210  23.901  0.00  0.00    +0.002 A 
ATOM      9  C   LIG    1      -40.122  78.647  25.202  0.00  0.00    +0.000 A 
ATOM     10  C   LIG    1      -40.386  77.719  26.208  0.00  0.00    +0.002 A 
ATOM     11  C   LIG    1      -40.376  76.351  25.925  0.00  0.00    +0.028 A 
ENDBRANCH   3   6
BRANCH   4  12
ATOM     12  N   LIG    1      -37.789  73.834  25.402  0.00  0.00    -0.266 N 
ATOM     13  H   LIG    1      -36.961  73.874  24.821  0.00  0.00    +0.157 HD
ATOM     14  C   LIG    1      -37.634  73.919  26.837  0.00  0.00    +0.251 C 
ATOM     15  O   LIG    1      -38.590  73.795  27.576  0.00  0.00    -0.270 OA
BRANCH  14  16
ATOM     16  C   LIG    1      -36.267  74.061  27.417  0.00  0.00    +0.056 A 
ATOM     17  C   LIG    1      -35.514  73.015  27.939  0.00  0.00    +0.054 A 
ATOM     18 CL   LIG    1      -35.985  71.365  27.820  0.00  0.00    -0.083 Cl
ATOM     19  C   LIG    1      -34.282  73.283  28.542  0.00  0.00    +0.041 A 
ATOM     20  C   LIG    1      -33.758  74.585  28.570  0.00  0.00    +0.052 A 
ATOM     21 CL   LIG    1      -32.306  74.786  29.496  0.00  0.00    -0.083 Cl
ATOM     22  C   LIG    1      -34.414  75.647  27.915  0.00  0.00    +0.022 A 
ATOM     23  C   LIG    1      -35.693  75.352  27.380  0.00  0.00    +0.026 A 
BRANCH  22  24
ATOM     24  C   LIG    1      -33.797  76.983  27.691  0.00  0.00    +0.107 A 
ATOM     25  C   LIG    1      -34.244  78.168  28.281  0.00  0.00    +0.149 A 
ATOM     26  F   LIG    1      -35.232  78.171  29.189  0.00  0.00    -0.203 F 
ATOM     27  C   LIG    1      -33.678  79.388  27.917  0.00  0.00    +0.042 A 
ATOM     28  C   LIG    1      -32.649  79.408  26.985  0.00  0.00    +0.023 A 
ATOM     29  C   LIG    1      -32.242  78.202  26.446  0.00  0.00    +0.111 A 
ATOM     30  N   LIG    1      -32.807  77.013  26.759  0.00  0.00    -0.252 NA
ENDBRANCH  22  24
ENDBRANCH  14  16
ENDBRANCH   4  12
BRANCH   1  32
ATOM     31  N   LIG    1      -40.947  70.495  22.527  0.00  0.00    -0.240 NA
ATOM     32  C   LIG    1      -41.435  71.657  22.773  0.00  0.00    +0.236 C 
BRANCH  32  33
ATOM     33  O   LIG    1      -42.656  72.081  22.384  0.00  0.00    -0.491 OA
ATOM     34  H   LIG    1      -43.355  71.508  22.728  0.00  0.00    +0.294 HD
ENDBRANCH  32  33
BRANCH  31  35
ATOM     35  C   LIG    1      -41.752  69.472  21.856  0.00  0.00    +0.240 C 
BRANCH  35  38
ATOM     36  C   LIG    1      -40.312  66.397  20.167  0.00  0.00    +0.174 C 
ATOM     37  N   LIG    1      -41.212  67.288  20.886  0.00  0.00    -0.257 NA
ATOM     38  C   LIG    1      -40.860  68.503  21.109  0.00  0.00    +0.204 C 
BRANCH  38  39
ATOM     39  O   LIG    1      -39.676  69.037  20.758  0.00  0.00    -0.494 OA
ATOM     40  H   LIG    1      -39.367  69.701  21.390  0.00  0.00    +0.293 HD
ENDBRANCH  38  39
ENDBRANCH  35  38
ENDBRANCH  31  35
ENDBRANCH   1  32
TORSDOF 9
ENDMDL
