MODEL 1
REMARK VINA RESULT:      -5.8      0.000      0.000
REMARK  Name = pdb/CHEMBL3675980.pdb
REMARK                            x       y       z     vdW  Elec       q    Type
REMARK                         _______ _______ _______ _____ _____    ______ ____
ROOT
ATOM      1  C   LIG    1      -23.653  79.514  34.875  0.00  0.00    +0.126 A 
ATOM      2  N   LIG    1      -23.765  78.995  33.667  0.00  0.00    -0.212 NA
ATOM      3  C   LIG    1      -24.880  78.239  33.383  0.00  0.00    +0.170 A 
ATOM      4  C   LIG    1      -25.291  77.564  32.241  0.00  0.00    +0.100 A 
ATOM      5  C   LIG    1      -26.518  76.967  32.606  0.00  0.00    +0.150 A 
ATOM      6  N   LIG    1      -26.880  77.231  33.859  0.00  0.00    -0.173 NA
ATOM      7  N   LIG    1      -25.881  78.011  34.332  0.00  0.00    -0.221 N 
ATOM      8  C   LIG    1      -25.781  78.553  35.598  0.00  0.00    +0.118 A 
ATOM      9  C   LIG    1      -24.728  79.308  35.922  0.00  0.00    +0.063 A 
ENDROOT
BRANCH   1  11
ATOM     10  C   LIG    1      -21.385  79.738  35.967  0.00  0.00    +0.107 C 
ATOM     11  N   LIG    1      -22.532  80.267  35.210  0.00  0.00    -0.308 N 
ATOM     12  C   LIG    1      -22.507  81.729  35.213  0.00  0.00    +0.107 C 
ATOM     13  C   LIG    1      -21.596  82.101  36.370  0.00  0.00    +0.021 C 
ATOM     14  C   LIG    1      -20.569  80.989  36.360  0.00  0.00    +0.029 C 
BRANCH  10  18
ATOM     15  F   LIG    1      -18.759  78.611  31.990  0.00  0.00    -0.204 F 
ATOM     16  C   LIG    1      -19.271  78.258  33.175  0.00  0.00    +0.142 A 
ATOM     17  C   LIG    1      -19.977  79.181  33.936  0.00  0.00    +0.046 A 
ATOM     18  C   LIG    1      -20.535  78.789  35.157  0.00  0.00    -0.006 A 
ATOM     19  C   LIG    1      -20.320  77.468  35.552  0.00  0.00    +0.116 A 
ATOM     20  N   LIG    1      -19.639  76.546  34.828  0.00  0.00    -0.260 NA
ATOM     21  C   LIG    1      -19.126  76.968  33.650  0.00  0.00    +0.149 A 
ENDBRANCH  10  18
ENDBRANCH   1  11
BRANCH   4  22
ATOM     22  C   LIG    1      -24.638  77.450  30.957  0.00  0.00    +0.249 C 
ATOM     23  N   LIG    1      -23.276  77.618  30.966  0.00  0.00    -0.311 N 
ATOM     24  H   LIG    1      -22.835  77.789  31.867  0.00  0.00    +0.149 HD
ATOM     25  O   LIG    1      -25.282  77.202  29.936  0.00  0.00    -0.270 OA
BRANCH  23  26
ATOM     26  C   LIG    1      -22.476  77.479  29.775  0.00  0.00    +0.108 C 
BRANCH  26  27
ATOM     27  C   LIG    1      -21.725  76.186  29.827  0.00  0.00    +0.006 C 
ATOM     28  C   LIG    1      -21.270  75.561  31.124  0.00  0.00    +0.005 C 
ATOM     29  C   LIG    1      -20.265  76.205  30.214  0.00  0.00    +0.005 C 
ENDBRANCH  26  27
ENDBRANCH  23  26
ENDBRANCH   4  22
TORSDOF 5
ENDMDL
MODEL 2
REMARK VINA RESULT:      -5.6      1.932      5.194
REMARK  Name = pdb/CHEMBL3675980.pdb
REMARK                            x       y       z     vdW  Elec       q    Type
REMARK                         _______ _______ _______ _____ _____    ______ ____
ROOT
ATOM      1  C   LIG    1      -21.145  77.142  31.173  0.00  0.00    +0.126 A 
ATOM      2  N   LIG    1      -22.094  77.441  32.040  0.00  0.00    -0.212 NA
ATOM      3  C   LIG    1      -23.400  77.434  31.605  0.00  0.00    +0.170 A 
ATOM      4  C   LIG    1      -24.604  77.701  32.244  0.00  0.00    +0.100 A 
ATOM      5  C   LIG    1      -25.581  77.540  31.237  0.00  0.00    +0.150 A 
ATOM      6  N   LIG    1      -25.071  77.194  30.058  0.00  0.00    -0.173 NA
ATOM      7  N   LIG    1      -23.739  77.128  30.284  0.00  0.00    -0.221 N 
ATOM      8  C   LIG    1      -22.758  76.807  29.367  0.00  0.00    +0.118 A 
ATOM      9  C   LIG    1      -21.476  76.781  29.739  0.00  0.00    +0.063 A 
ENDROOT
BRANCH   1  11
ATOM     10  C   LIG    1      -19.161  78.305  32.221  0.00  0.00    +0.107 C 
ATOM     11  N   LIG    1      -19.811  77.157  31.567  0.00  0.00    -0.308 N 
ATOM     12  C   LIG    1      -18.802  76.234  31.048  0.00  0.00    +0.107 C 
ATOM     13  C   LIG    1      -17.524  77.054  30.977  0.00  0.00    +0.021 C 
ATOM     14  C   LIG    1      -17.652  77.979  32.169  0.00  0.00    +0.029 C 
BRANCH  10  18
ATOM     15  F   LIG    1      -20.637  81.117  35.950  0.00  0.00    -0.204 F 
ATOM     16  C   LIG    1      -20.307  79.911  35.471  0.00  0.00    +0.142 A 
ATOM     17  C   LIG    1      -19.983  79.755  34.129  0.00  0.00    +0.046 A 
ATOM     18  C   LIG    1      -19.608  78.495  33.650  0.00  0.00    -0.006 A 
ATOM     19  C   LIG    1      -19.607  77.446  34.571  0.00  0.00    +0.116 A 
ATOM     20  N   LIG    1      -19.915  77.571  35.885  0.00  0.00    -0.260 NA
ATOM     21  C   LIG    1      -20.262  78.810  36.305  0.00  0.00    +0.149 A 
ENDBRANCH  10  18
ENDBRANCH   1  11
BRANCH   4  22
ATOM     22  C   LIG    1      -24.850  78.081  33.616  0.00  0.00    +0.249 C 
ATOM     23  N   LIG    1      -23.746  78.464  34.335  0.00  0.00    -0.311 N 
ATOM     24  H   LIG    1      -22.852  78.468  33.846  0.00  0.00    +0.149 HD
ATOM     25  O   LIG    1      -25.991  78.069  34.085  0.00  0.00    -0.270 OA
BRANCH  23  26
ATOM     26  C   LIG    1      -23.836  78.924  35.698  0.00  0.00    +0.108 C 
BRANCH  26  27
ATOM     27  C   LIG    1      -24.050  80.405  35.711  0.00  0.00    +0.006 C 
ATOM     28  C   LIG    1      -23.700  81.266  36.900  0.00  0.00    +0.005 C 
ATOM     29  C   LIG    1      -25.139  80.976  36.587  0.00  0.00    +0.005 C 
ENDBRANCH  26  27
ENDBRANCH  23  26
ENDBRANCH   4  22
TORSDOF 5
ENDMDL
MODEL 3
REMARK VINA RESULT:      -5.4     18.592     21.429
REMARK  Name = pdb/CHEMBL3675980.pdb
REMARK                            x       y       z     vdW  Elec       q    Type
REMARK                         _______ _______ _______ _____ _____    ______ ____
ROOT
ATOM      1  C   LIG    1      -23.423  86.088  12.230  0.00  0.00    +0.126 A 
ATOM      2  N   LIG    1      -23.809  84.867  12.549  0.00  0.00    -0.212 NA
ATOM      3  C   LIG    1      -24.573  84.168  11.641  0.00  0.00    +0.170 A 
ATOM      4  C   LIG    1      -25.134  82.898  11.667  0.00  0.00    +0.100 A 
ATOM      5  C   LIG    1      -25.817  82.788  10.436  0.00  0.00    +0.150 A 
ATOM      6  N   LIG    1      -25.708  83.874   9.675  0.00  0.00    -0.173 NA
ATOM      7  N   LIG    1      -24.946  84.715  10.411  0.00  0.00    -0.221 N 
ATOM      8  C   LIG    1      -24.544  85.989  10.061  0.00  0.00    +0.118 A 
ATOM      9  C   LIG    1      -23.788  86.705  10.896  0.00  0.00    +0.063 A 
ENDROOT
BRANCH   1  11
ATOM     10  C   LIG    1      -21.997  86.268  14.309  0.00  0.00    +0.107 C 
ATOM     11  N   LIG    1      -22.667  86.836  13.127  0.00  0.00    -0.308 N 
ATOM     12  C   LIG    1      -22.759  88.291  13.249  0.00  0.00    +0.107 C 
ATOM     13  C   LIG    1      -22.557  88.571  14.729  0.00  0.00    +0.021 C 
ATOM     14  C   LIG    1      -21.573  87.498  15.143  0.00  0.00    +0.029 C 
BRANCH  10  18
ATOM     15  F   LIG    1      -19.681  81.972  13.902  0.00  0.00    -0.204 F 
ATOM     16  C   LIG    1      -19.671  83.306  13.791  0.00  0.00    +0.142 A 
ATOM     17  C   LIG    1      -20.824  84.039  14.042  0.00  0.00    +0.046 A 
ATOM     18  C   LIG    1      -20.790  85.434  13.954  0.00  0.00    -0.006 A 
ATOM     19  C   LIG    1      -19.573  86.012  13.586  0.00  0.00    +0.116 A 
ATOM     20  N   LIG    1      -18.433  85.322  13.339  0.00  0.00    -0.260 NA
ATOM     21  C   LIG    1      -18.512  83.975  13.446  0.00  0.00    +0.149 A 
ENDBRANCH  10  18
ENDBRANCH   1  11
BRANCH   4  22
ATOM     22  C   LIG    1      -25.078  81.891  12.702  0.00  0.00    +0.249 C 
ATOM     23  N   LIG    1      -24.265  82.180  13.769  0.00  0.00    -0.311 N 
ATOM     24  H   LIG    1      -23.785  83.078  13.758  0.00  0.00    +0.149 HD
ATOM     25  O   LIG    1      -25.739  80.853  12.617  0.00  0.00    -0.270 OA
BRANCH  23  26
ATOM     26  C   LIG    1      -24.147  81.302  14.906  0.00  0.00    +0.108 C 
BRANCH  26  27
ATOM     27  C   LIG    1      -22.729  81.297  15.387  0.00  0.00    +0.006 C 
ATOM     28  C   LIG    1      -22.241  80.365  16.469  0.00  0.00    +0.005 C 
ATOM     29  C   LIG    1      -22.426  81.824  16.769  0.00  0.00    +0.005 C 
ENDBRANCH  26  27
ENDBRANCH  23  26
ENDBRANCH   4  22
TORSDOF 5
ENDMDL
MODEL 4
REMARK VINA RESULT:      -5.3     12.821     15.672
REMARK  Name = pdb/CHEMBL3675980.pdb
REMARK                            x       y       z     vdW  Elec       q    Type
REMARK                         _______ _______ _______ _____ _____    ______ ____
ROOT
ATOM      1  C   LIG    1      -36.545  75.634  27.424  0.00  0.00    +0.126 A 
ATOM      2  N   LIG    1      -36.960  74.622  26.686  0.00  0.00    -0.212 NA
ATOM      3  C   LIG    1      -37.998  74.839  25.807  0.00  0.00    +0.170 A 
ATOM      4  C   LIG    1      -38.660  74.008  24.913  0.00  0.00    +0.100 A 
ATOM      5  C   LIG    1      -39.643  74.834  24.325  0.00  0.00    +0.150 A 
ATOM      6  N   LIG    1      -39.622  76.084  24.782  0.00  0.00    -0.173 NA
ATOM      7  N   LIG    1      -38.616  76.086  25.685  0.00  0.00    -0.221 N 
ATOM      8  C   LIG    1      -38.189  77.157  26.447  0.00  0.00    +0.118 A 
ATOM      9  C   LIG    1      -37.175  77.007  27.302  0.00  0.00    +0.063 A 
ENDROOT
BRANCH   1  11
ATOM     10  C   LIG    1      -34.086  75.457  27.977  0.00  0.00    +0.107 C 
ATOM     11  N   LIG    1      -35.513  75.453  28.339  0.00  0.00    -0.308 N 
ATOM     12  C   LIG    1      -35.697  74.856  29.661  0.00  0.00    +0.107 C 
ATOM     13  C   LIG    1      -34.422  74.068  29.914  0.00  0.00    +0.021 C 
ATOM     14  C   LIG    1      -33.366  74.910  29.230  0.00  0.00    +0.029 C 
BRANCH  10  18
ATOM     15  F   LIG    1      -33.774  80.277  28.789  0.00  0.00    -0.204 F 
ATOM     16  C   LIG    1      -33.461  79.207  28.049  0.00  0.00    +0.142 A 
ATOM     17  C   LIG    1      -33.878  77.940  28.437  0.00  0.00    +0.046 A 
ATOM     18  C   LIG    1      -33.571  76.835  27.636  0.00  0.00    -0.006 A 
ATOM     19  C   LIG    1      -32.827  77.082  26.482  0.00  0.00    +0.116 A 
ATOM     20  N   LIG    1      -32.409  78.307  26.078  0.00  0.00    -0.260 NA
ATOM     21  C   LIG    1      -32.738  79.346  26.879  0.00  0.00    +0.149 A 
ENDBRANCH  10  18
ENDBRANCH   1  11
BRANCH   4  22
ATOM     22  C   LIG    1      -38.443  72.608  24.628  0.00  0.00    +0.249 C 
ATOM     23  N   LIG    1      -37.176  72.142  24.868  0.00  0.00    -0.311 N 
ATOM     24  H   LIG    1      -36.499  72.805  25.241  0.00  0.00    +0.149 HD
ATOM     25  O   LIG    1      -39.359  71.894  24.213  0.00  0.00    -0.270 OA
BRANCH  23  26
ATOM     26  C   LIG    1      -36.818  70.757  24.688  0.00  0.00    +0.108 C 
BRANCH  26  27
ATOM     27  C   LIG    1      -36.074  70.273  25.893  0.00  0.00    +0.006 C 
ATOM     28  C   LIG    1      -34.774  70.890  26.348  0.00  0.00    +0.005 C 
ATOM     29  C   LIG    1      -34.770  69.537  25.698  0.00  0.00    +0.005 C 
ENDBRANCH  26  27
ENDBRANCH  23  26
ENDBRANCH   4  22
TORSDOF 5
ENDMDL
MODEL 5
REMARK VINA RESULT:      -5.2      1.921      3.299
REMARK  Name = pdb/CHEMBL3675980.pdb
REMARK                            x       y       z     vdW  Elec       q    Type
REMARK                         _______ _______ _______ _____ _____    ______ ____
ROOT
ATOM      1  C   LIG    1      -22.637  77.838  35.077  0.00  0.00    +0.126 A 
ATOM      2  N   LIG    1      -23.121  77.690  33.858  0.00  0.00    -0.212 NA
ATOM      3  C   LIG    1      -24.468  77.441  33.718  0.00  0.00    +0.170 A 
ATOM      4  C   LIG    1      -25.274  77.235  32.606  0.00  0.00    +0.100 A 
ATOM      5  C   LIG    1      -26.562  77.013  33.140  0.00  0.00    +0.150 A 
ATOM      6  N   LIG    1      -26.599  77.075  34.469  0.00  0.00    -0.173 NA
ATOM      7  N   LIG    1      -25.320  77.339  34.821  0.00  0.00    -0.221 N 
ATOM      8  C   LIG    1      -24.829  77.498  36.102  0.00  0.00    +0.118 A 
ATOM      9  C   LIG    1      -23.534  77.757  36.295  0.00  0.00    +0.063 A 
ENDROOT
BRANCH   1  11
ATOM     10  C   LIG    1      -20.592  79.306  34.851  0.00  0.00    +0.107 C 
ATOM     11  N   LIG    1      -21.277  78.070  35.263  0.00  0.00    -0.308 N 
ATOM     12  C   LIG    1      -20.301  77.011  35.514  0.00  0.00    +0.107 C 
ATOM     13  C   LIG    1      -19.038  77.469  34.804  0.00  0.00    +0.021 C 
ATOM     14  C   LIG    1      -19.088  78.973  34.967  0.00  0.00    +0.029 C 
BRANCH  10  18
ATOM     15  F   LIG    1      -23.462  83.078  36.087  0.00  0.00    -0.204 F 
ATOM     16  C   LIG    1      -22.357  82.351  36.291  0.00  0.00    +0.142 A 
ATOM     17  C   LIG    1      -22.112  81.219  35.525  0.00  0.00    +0.046 A 
ATOM     18  C   LIG    1      -20.937  80.487  35.726  0.00  0.00    -0.006 A 
ATOM     19  C   LIG    1      -20.077  80.942  36.728  0.00  0.00    +0.116 A 
ATOM     20  N   LIG    1      -20.290  82.043  37.488  0.00  0.00    -0.260 NA
ATOM     21  C   LIG    1      -21.434  82.724  37.250  0.00  0.00    +0.149 A 
ENDBRANCH  10  18
ENDBRANCH   1  11
BRANCH   4  22
ATOM     22  C   LIG    1      -24.920  77.221  31.205  0.00  0.00    +0.249 C 
ATOM     23  N   LIG    1      -23.607  77.503  30.922  0.00  0.00    -0.311 N 
ATOM     24  H   LIG    1      -22.988  77.679  31.711  0.00  0.00    +0.149 HD
ATOM     25  O   LIG    1      -25.756  76.954  30.340  0.00  0.00    -0.270 OA
BRANCH  23  26
ATOM     26  C   LIG    1      -23.087  77.472  29.578  0.00  0.00    +0.108 C 
BRANCH  26  27
ATOM     27  C   LIG    1      -22.009  76.438  29.484  0.00  0.00    +0.006 C 
ATOM     28  C   LIG    1      -21.092  76.112  30.637  0.00  0.00    +0.005 C 
ATOM     29  C   LIG    1      -20.567  76.887  29.464  0.00  0.00    +0.005 C 
ENDBRANCH  26  27
ENDBRANCH  23  26
ENDBRANCH   4  22
TORSDOF 5
ENDMDL
MODEL 6
REMARK VINA RESULT:      -5.2     18.438     21.703
REMARK  Name = pdb/CHEMBL3675980.pdb
REMARK                            x       y       z     vdW  Elec       q    Type
REMARK                         _______ _______ _______ _____ _____    ______ ____
ROOT
ATOM      1  C   LIG    1      -20.344  81.908  14.049  0.00  0.00    +0.126 A 
ATOM      2  N   LIG    1      -20.246  83.224  14.060  0.00  0.00    -0.212 NA
ATOM      3  C   LIG    1      -19.102  83.797  13.548  0.00  0.00    +0.170 A 
ATOM      4  C   LIG    1      -18.690  85.116  13.418  0.00  0.00    +0.100 A 
ATOM      5  C   LIG    1      -17.408  85.030  12.833  0.00  0.00    +0.150 A 
ATOM      6  N   LIG    1      -17.021  83.779  12.596  0.00  0.00    -0.173 NA
ATOM      7  N   LIG    1      -18.057  83.026  13.031  0.00  0.00    -0.221 N 
ATOM      8  C   LIG    1      -18.148  81.649  13.007  0.00  0.00    +0.118 A 
ATOM      9  C   LIG    1      -19.242  81.042  13.474  0.00  0.00    +0.063 A 
ENDROOT
BRANCH   1  11
ATOM     10  C   LIG    1      -22.796  81.932  14.661  0.00  0.00    +0.107 C 
ATOM     11  N   LIG    1      -21.474  81.289  14.574  0.00  0.00    -0.308 N 
ATOM     12  C   LIG    1      -21.424  80.116  15.446  0.00  0.00    +0.107 C 
ATOM     13  C   LIG    1      -22.570  80.309  16.425  0.00  0.00    +0.021 C 
ATOM     14  C   LIG    1      -23.619  81.003  15.582  0.00  0.00    +0.029 C 
BRANCH  10  18
ATOM     15  F   LIG    1      -24.422  84.613  10.899  0.00  0.00    -0.204 F 
ATOM     16  C   LIG    1      -24.281  83.423  11.495  0.00  0.00    +0.142 A 
ATOM     17  C   LIG    1      -23.580  83.315  12.689  0.00  0.00    +0.046 A 
ATOM     18  C   LIG    1      -23.470  82.071  13.318  0.00  0.00    -0.006 A 
ATOM     19  C   LIG    1      -24.066  80.986  12.674  0.00  0.00    +0.116 A 
ATOM     20  N   LIG    1      -24.758  81.062  11.510  0.00  0.00    -0.260 NA
ATOM     21  C   LIG    1      -24.847  82.288  10.945  0.00  0.00    +0.149 A 
ENDBRANCH  10  18
ENDBRANCH   1  11
BRANCH   4  22
ATOM     22  C   LIG    1      -19.372  86.332  13.799  0.00  0.00    +0.249 C 
ATOM     23  N   LIG    1      -20.551  86.165  14.481  0.00  0.00    -0.311 N 
ATOM     24  H   LIG    1      -20.841  85.209  14.679  0.00  0.00    +0.149 HD
ATOM     25  O   LIG    1      -18.897  87.438  13.531  0.00  0.00    -0.270 OA
BRANCH  23  26
ATOM     26  C   LIG    1      -21.318  87.279  14.976  0.00  0.00    +0.108 C 
BRANCH  26  27
ATOM     27  C   LIG    1      -22.607  87.372  14.222  0.00  0.00    +0.006 C 
ATOM     28  C   LIG    1      -22.734  86.958  12.776  0.00  0.00    +0.005 C 
ATOM     29  C   LIG    1      -22.744  88.415  13.138  0.00  0.00    +0.005 C 
ENDBRANCH  26  27
ENDBRANCH  23  26
ENDBRANCH   4  22
TORSDOF 5
ENDMDL
MODEL 7
REMARK VINA RESULT:      -5.1     17.282     21.361
REMARK  Name = pdb/CHEMBL3675980.pdb
REMARK                            x       y       z     vdW  Elec       q    Type
REMARK                         _______ _______ _______ _____ _____    ______ ____
ROOT
ATOM      1  C   LIG    1      -36.777  68.413  22.705  0.00  0.00    +0.126 A 
ATOM      2  N   LIG    1      -36.934  69.410  23.555  0.00  0.00    -0.212 NA
ATOM      3  C   LIG    1      -36.080  69.488  24.633  0.00  0.00    +0.170 A 
ATOM      4  C   LIG    1      -35.980  70.385  25.689  0.00  0.00    +0.100 A 
ATOM      5  C   LIG    1      -34.907  69.896  26.466  0.00  0.00    +0.150 A 
ATOM      6  N   LIG    1      -34.354  68.794  25.967  0.00  0.00    -0.173 NA
ATOM      7  N   LIG    1      -35.069  68.547  24.846  0.00  0.00    -0.221 N 
ATOM      8  C   LIG    1      -34.889  67.501  23.962  0.00  0.00    +0.118 A 
ATOM      9  C   LIG    1      -35.678  67.387  22.891  0.00  0.00    +0.063 A 
ENDROOT
BRANCH   1  11
ATOM     10  C   LIG    1      -38.953  67.637  21.679  0.00  0.00    +0.107 C 
ATOM     11  N   LIG    1      -37.632  68.285  21.615  0.00  0.00    -0.308 N 
ATOM     12  C   LIG    1      -37.196  68.407  20.224  0.00  0.00    +0.107 C 
ATOM     13  C   LIG    1      -38.049  67.408  19.460  0.00  0.00    +0.021 C 
ATOM     14  C   LIG    1      -39.368  67.455  20.202  0.00  0.00    +0.029 C 
BRANCH  10  18
ATOM     15  F   LIG    1      -41.632  71.699  22.234  0.00  0.00    -0.204 F 
ATOM     16  C   LIG    1      -41.262  70.490  22.672  0.00  0.00    +0.142 A 
ATOM     17  C   LIG    1      -40.382  69.714  21.928  0.00  0.00    +0.046 A 
ATOM     18  C   LIG    1      -39.978  68.467  22.414  0.00  0.00    -0.006 A 
ATOM     19  C   LIG    1      -40.519  68.062  23.635  0.00  0.00    +0.116 A 
ATOM     20  N   LIG    1      -41.377  68.798  24.383  0.00  0.00    -0.260 NA
ATOM     21  C   LIG    1      -41.731  70.003  23.877  0.00  0.00    +0.149 A 
ENDBRANCH  10  18
ENDBRANCH   1  11
BRANCH   4  22
ATOM     22  C   LIG    1      -36.779  71.553  25.980  0.00  0.00    +0.249 C 
ATOM     23  N   LIG    1      -37.199  72.273  24.889  0.00  0.00    -0.311 N 
ATOM     24  H   LIG    1      -36.933  71.923  23.971  0.00  0.00    +0.149 HD
ATOM     25  O   LIG    1      -37.067  71.854  27.140  0.00  0.00    -0.270 OA
BRANCH  23  26
ATOM     26  C   LIG    1      -38.049  73.430  25.012  0.00  0.00    +0.108 C 
BRANCH  26  27
ATOM     27  C   LIG    1      -39.364  73.154  24.353  0.00  0.00    +0.006 C 
ATOM     28  C   LIG    1      -40.331  74.251  23.978  0.00  0.00    +0.005 C 
ATOM     29  C   LIG    1      -40.634  73.357  25.145  0.00  0.00    +0.005 C 
ENDBRANCH  26  27
ENDBRANCH  23  26
ENDBRANCH   4  22
TORSDOF 5
ENDMDL
MODEL 8
REMARK VINA RESULT:      -5.0      2.480      4.992
REMARK  Name = pdb/CHEMBL3675980.pdb
REMARK                            x       y       z     vdW  Elec       q    Type
REMARK                         _______ _______ _______ _____ _____    ______ ____
ROOT
ATOM      1  C   LIG    1      -21.277  78.628  33.143  0.00  0.00    +0.126 A 
ATOM      2  N   LIG    1      -22.293  78.026  32.555  0.00  0.00    -0.212 NA
ATOM      3  C   LIG    1      -22.063  77.367  31.368  0.00  0.00    +0.170 A 
ATOM      4  C   LIG    1      -22.893  76.655  30.512  0.00  0.00    +0.100 A 
ATOM      5  C   LIG    1      -22.048  76.248  29.457  0.00  0.00    +0.150 A 
ATOM      6  N   LIG    1      -20.787  76.646  29.609  0.00  0.00    -0.173 NA
ATOM      7  N   LIG    1      -20.796  77.327  30.778  0.00  0.00    -0.221 N 
ATOM      8  C   LIG    1      -19.722  77.948  31.384  0.00  0.00    +0.118 A 
ATOM      9  C   LIG    1      -19.886  78.586  32.545  0.00  0.00    +0.063 A 
ENDROOT
BRANCH   1  11
ATOM     10  C   LIG    1      -22.767  79.878  34.756  0.00  0.00    +0.107 C 
ATOM     11  N   LIG    1      -21.471  79.322  34.333  0.00  0.00    -0.308 N 
ATOM     12  C   LIG    1      -20.386  79.924  35.107  0.00  0.00    +0.107 C 
ATOM     13  C   LIG    1      -20.982  81.196  35.688  0.00  0.00    +0.021 C 
ATOM     14  C   LIG    1      -22.422  80.807  35.942  0.00  0.00    +0.029 C 
BRANCH  10  18
ATOM     15  F   LIG    1      -27.326  78.210  35.403  0.00  0.00    -0.204 F 
ATOM     16  C   LIG    1      -26.004  78.036  35.519  0.00  0.00    +0.142 A 
ATOM     17  C   LIG    1      -25.126  78.995  35.031  0.00  0.00    +0.046 A 
ATOM     18  C   LIG    1      -23.748  78.816  35.190  0.00  0.00    -0.006 A 
ATOM     19  C   LIG    1      -23.334  77.642  35.822  0.00  0.00    +0.116 A 
ATOM     20  N   LIG    1      -24.169  76.691  36.309  0.00  0.00    -0.260 NA
ATOM     21  C   LIG    1      -25.493  76.913  36.142  0.00  0.00    +0.149 A 
ENDBRANCH  10  18
ENDBRANCH   1  11
BRANCH   4  22
ATOM     22  C   LIG    1      -24.308  76.384  30.622  0.00  0.00    +0.249 C 
ATOM     23  N   LIG    1      -24.650  75.326  31.427  0.00  0.00    -0.311 N 
ATOM     24  H   LIG    1      -23.891  74.832  31.892  0.00  0.00    +0.149 HD
ATOM     25  O   LIG    1      -25.137  77.082  30.034  0.00  0.00    -0.270 OA
BRANCH  23  26
ATOM     26  C   LIG    1      -26.022  74.966  31.682  0.00  0.00    +0.108 C 
BRANCH  26  27
ATOM     27  C   LIG    1      -26.572  75.834  32.769  0.00  0.00    +0.006 C 
ATOM     28  C   LIG    1      -27.897  75.559  33.438  0.00  0.00    +0.005 C 
ATOM     29  C   LIG    1      -27.771  76.702  32.473  0.00  0.00    +0.005 C 
ENDBRANCH  26  27
ENDBRANCH  23  26
ENDBRANCH   4  22
TORSDOF 5
ENDMDL
MODEL 9
REMARK VINA RESULT:      -5.0     12.347     15.657
REMARK  Name = pdb/CHEMBL3675980.pdb
REMARK                            x       y       z     vdW  Elec       q    Type
REMARK                         _______ _______ _______ _____ _____    ______ ____
ROOT
ATOM      1  C   LIG    1      -33.494  74.012  28.537  0.00  0.00    +0.126 A 
ATOM      2  N   LIG    1      -34.166  73.264  27.683  0.00  0.00    -0.212 NA
ATOM      3  C   LIG    1      -34.204  71.904  27.897  0.00  0.00    +0.170 A 
ATOM      4  C   LIG    1      -34.801  70.860  27.203  0.00  0.00    +0.100 A 
ATOM      5  C   LIG    1      -34.445  69.703  27.930  0.00  0.00    +0.150 A 
ATOM      6  N   LIG    1      -33.696  69.963  28.999  0.00  0.00    -0.173 NA
ATOM      7  N   LIG    1      -33.551  71.307  28.980  0.00  0.00    -0.221 N 
ATOM      8  C   LIG    1      -32.849  72.078  29.885  0.00  0.00    +0.118 A 
ATOM      9  C   LIG    1      -32.795  73.404  29.735  0.00  0.00    +0.063 A 
ENDROOT
BRANCH   1  11
ATOM     10  C   LIG    1      -34.160  76.116  27.305  0.00  0.00    +0.107 C 
ATOM     11  N   LIG    1      -33.415  75.388  28.346  0.00  0.00    -0.308 N 
ATOM     12  C   LIG    1      -32.324  76.217  28.860  0.00  0.00    +0.107 C 
ATOM     13  C   LIG    1      -32.115  77.285  27.800  0.00  0.00    +0.021 C 
ATOM     14  C   LIG    1      -33.516  77.521  27.279  0.00  0.00    +0.029 C 
BRANCH  10  18
ATOM     15  F   LIG    1      -38.836  76.527  25.907  0.00  0.00    -0.204 F 
ATOM     16  C   LIG    1      -37.923  76.449  26.884  0.00  0.00    +0.142 A 
ATOM     17  C   LIG    1      -36.581  76.267  26.576  0.00  0.00    +0.046 A 
ATOM     18  C   LIG    1      -35.635  76.221  27.605  0.00  0.00    -0.006 A 
ATOM     19  C   LIG    1      -36.118  76.341  28.910  0.00  0.00    +0.116 A 
ATOM     20  N   LIG    1      -37.421  76.522  29.238  0.00  0.00    -0.260 NA
ATOM     21  C   LIG    1      -38.298  76.570  28.209  0.00  0.00    +0.149 A 
ENDBRANCH  10  18
ENDBRANCH   1  11
BRANCH   4  22
ATOM     22  C   LIG    1      -35.596  70.897  25.997  0.00  0.00    +0.249 C 
ATOM     23  N   LIG    1      -36.573  71.860  25.958  0.00  0.00    -0.311 N 
ATOM     24  H   LIG    1      -36.649  72.478  26.763  0.00  0.00    +0.149 HD
ATOM     25  O   LIG    1      -35.381  70.113  25.070  0.00  0.00    -0.270 OA
BRANCH  23  26
ATOM     26  C   LIG    1      -37.410  72.059  24.802  0.00  0.00    +0.108 C 
BRANCH  26  27
ATOM     27  C   LIG    1      -38.241  73.289  24.995  0.00  0.00    +0.006 C 
ATOM     28  C   LIG    1      -39.556  73.274  25.735  0.00  0.00    +0.005 C 
ATOM     29  C   LIG    1      -39.543  73.415  24.240  0.00  0.00    +0.005 C 
ENDBRANCH  26  27
ENDBRANCH  23  26
ENDBRANCH   4  22
TORSDOF 5
ENDMDL
