MODEL 1
REMARK VINA RESULT:      -5.1      0.000      0.000
REMARK  Name = pdb/CHEMBL3676020.pdb
REMARK                            x       y       z     vdW  Elec       q    Type
REMARK                         _______ _______ _______ _____ _____    ______ ____
ROOT
ATOM      1  C   LIG    1      -23.680  79.707  34.890  0.00  0.00    +0.126 A 
ATOM      2  N   LIG    1      -23.913  79.175  33.712  0.00  0.00    -0.212 NA
ATOM      3  C   LIG    1      -24.986  78.311  33.611  0.00  0.00    +0.170 A 
ATOM      4  C   LIG    1      -25.461  77.519  32.594  0.00  0.00    +0.100 A 
ATOM      5  C   LIG    1      -26.547  76.812  33.158  0.00  0.00    +0.150 A 
ATOM      6  N   LIG    1      -26.780  77.144  34.429  0.00  0.00    -0.173 NA
ATOM      7  N   LIG    1      -25.823  78.054  34.710  0.00  0.00    -0.221 N 
ATOM      8  C   LIG    1      -25.611  78.669  35.929  0.00  0.00    +0.118 A 
ATOM      9  C   LIG    1      -24.572  79.492  36.086  0.00  0.00    +0.063 A 
ENDROOT
BRANCH   1  11
ATOM     10  C   LIG    1      -21.380  79.910  35.848  0.00  0.00    +0.110 C 
ATOM     11  N   LIG    1      -22.543  80.463  35.122  0.00  0.00    -0.308 N 
ATOM     12  C   LIG    1      -22.733  81.874  35.484  0.00  0.00    +0.107 C 
ATOM     13  C   LIG    1      -21.593  82.230  36.426  0.00  0.00    +0.021 C 
ATOM     14  C   LIG    1      -20.545  81.162  36.164  0.00  0.00    +0.029 C 
BRANCH  10  16
ATOM     15  C   LIG    1      -20.804  77.530  35.131  0.00  0.00    +0.220 A 
ATOM     16  C   LIG    1      -20.615  78.910  35.005  0.00  0.00    +0.037 A 
ATOM     17  C   LIG    1      -19.658  79.326  34.063  0.00  0.00    +0.050 A 
ATOM     18  C   LIG    1      -19.004  78.400  33.268  0.00  0.00    +0.142 A 
ATOM     19  F   LIG    1      -18.121  78.802  32.346  0.00  0.00    -0.204 F 
ATOM     20  C   LIG    1      -19.285  77.064  33.446  0.00  0.00    +0.153 A 
ATOM     21  N   LIG    1      -20.165  76.610  34.365  0.00  0.00    -0.218 NA
BRANCH  15  23
ATOM     22  C   LIG    1      -22.654  76.162  35.683  0.00  0.00    +0.279 C 
ATOM     23  O   LIG    1      -21.654  77.085  36.120  0.00  0.00    -0.479 OA
ENDBRANCH  15  23
ENDBRANCH  10  16
ENDBRANCH   1  11
BRANCH   4  24
ATOM     24  C   LIG    1      -24.993  77.334  31.225  0.00  0.00    +0.249 C 
ATOM     25  N   LIG    1      -23.698  77.704  30.963  0.00  0.00    -0.309 N 
ATOM     26  H   LIG    1      -23.160  78.088  31.732  0.00  0.00    +0.149 HD
ATOM     27  O   LIG    1      -25.730  76.887  30.365  0.00  0.00    -0.270 OA
BRANCH  25  28
ATOM     28  C   LIG    1      -23.108  77.544  29.642  0.00  0.00    +0.138 C 
BRANCH  28  29
ATOM     29  C   LIG    1      -21.767  76.792  29.685  0.00  0.00    +0.157 C 
BRANCH  29  30
ATOM     30  O   LIG    1      -20.723  77.600  30.260  0.00  0.00    -0.388 OA
ATOM     31  H   LIG    1      -20.634  78.404  29.714  0.00  0.00    +0.210 HD
ENDBRANCH  29  30
BRANCH  29  32
ATOM     32  C   LIG    1      -21.858  75.511  30.523  0.00  0.00    +0.188 C 
BRANCH  32  33
ATOM     33  O   LIG    1      -21.821  75.850  31.911  0.00  0.00    -0.392 OA
ATOM     34  H   LIG    1      -21.865  76.827  31.948  0.00  0.00    +0.210 HD
ENDBRANCH  32  33
ENDBRANCH  29  32
ENDBRANCH  28  29
ENDBRANCH  25  28
ENDBRANCH   4  24
TORSDOF 9
ENDMDL
MODEL 2
REMARK VINA RESULT:      -5.0     18.283     21.289
REMARK  Name = pdb/CHEMBL3676020.pdb
REMARK                            x       y       z     vdW  Elec       q    Type
REMARK                         _______ _______ _______ _____ _____    ______ ____
ROOT
ATOM      1  C   LIG    1      -19.582  81.636  13.393  0.00  0.00    +0.126 A 
ATOM      2  N   LIG    1      -19.710  82.918  13.644  0.00  0.00    -0.212 NA
ATOM      3  C   LIG    1      -19.434  83.794  12.612  0.00  0.00    +0.170 A 
ATOM      4  C   LIG    1      -19.369  85.164  12.536  0.00  0.00    +0.100 A 
ATOM      5  C   LIG    1      -18.955  85.438  11.213  0.00  0.00    +0.150 A 
ATOM      6  N   LIG    1      -18.797  84.335  10.479  0.00  0.00    -0.173 NA
ATOM      7  N   LIG    1      -19.081  83.329  11.333  0.00  0.00    -0.221 N 
ATOM      8  C   LIG    1      -19.014  81.977  11.059  0.00  0.00    +0.118 A 
ATOM      9  C   LIG    1      -19.246  81.090  12.028  0.00  0.00    +0.063 A 
ENDROOT
BRANCH   1  11
ATOM     10  C   LIG    1      -20.569  80.908  15.570  0.00  0.00    +0.110 C 
ATOM     11  N   LIG    1      -19.691  80.693  14.401  0.00  0.00    -0.308 N 
ATOM     12  C   LIG    1      -18.463  80.005  14.819  0.00  0.00    +0.107 C 
ATOM     13  C   LIG    1      -18.618  79.720  16.305  0.00  0.00    +0.021 C 
ATOM     14  C   LIG    1      -20.114  79.813  16.549  0.00  0.00    +0.029 C 
BRANCH  10  16
ATOM     15  C   LIG    1      -22.884  81.882  15.119  0.00  0.00    +0.220 A 
ATOM     16  C   LIG    1      -22.034  80.775  15.205  0.00  0.00    +0.037 A 
ATOM     17  C   LIG    1      -22.616  79.520  14.951  0.00  0.00    +0.050 A 
ATOM     18  C   LIG    1      -23.944  79.423  14.571  0.00  0.00    +0.142 A 
ATOM     19  F   LIG    1      -24.483  78.231  14.294  0.00  0.00    -0.204 F 
ATOM     20  C   LIG    1      -24.689  80.578  14.484  0.00  0.00    +0.153 A 
ATOM     21  N   LIG    1      -24.190  81.802  14.756  0.00  0.00    -0.218 NA
BRANCH  15  23
ATOM     22  C   LIG    1      -22.791  83.598  16.746  0.00  0.00    +0.279 C 
ATOM     23  O   LIG    1      -22.374  83.114  15.468  0.00  0.00    -0.479 OA
ENDBRANCH  15  23
ENDBRANCH  10  16
ENDBRANCH   1  11
BRANCH   4  24
ATOM     24  C   LIG    1      -19.602  86.192  13.544  0.00  0.00    +0.249 C 
ATOM     25  N   LIG    1      -20.794  86.128  14.223  0.00  0.00    -0.309 N 
ATOM     26  H   LIG    1      -21.431  85.381  13.972  0.00  0.00    +0.149 HD
ATOM     27  O   LIG    1      -18.780  87.066  13.751  0.00  0.00    -0.270 OA
BRANCH  25  28
ATOM     28  C   LIG    1      -21.129  87.082  15.270  0.00  0.00    +0.138 C 
BRANCH  28  29
ATOM     29  C   LIG    1      -22.282  88.016  14.864  0.00  0.00    +0.157 C 
BRANCH  29  30
ATOM     30  O   LIG    1      -22.509  89.040  15.849  0.00  0.00    -0.388 OA
ATOM     31  H   LIG    1      -21.891  89.772  15.666  0.00  0.00    +0.210 HD
ENDBRANCH  29  30
BRANCH  29  32
ATOM     32  C   LIG    1      -21.999  88.727  13.534  0.00  0.00    +0.188 C 
BRANCH  32  33
ATOM     33  O   LIG    1      -20.729  89.377  13.606  0.00  0.00    -0.392 OA
ATOM     34  H   LIG    1      -20.152  88.906  12.971  0.00  0.00    +0.210 HD
ENDBRANCH  32  33
ENDBRANCH  29  32
ENDBRANCH  28  29
ENDBRANCH  25  28
ENDBRANCH   4  24
TORSDOF 9
ENDMDL
MODEL 3
REMARK VINA RESULT:      -4.9     13.638     16.842
REMARK  Name = pdb/CHEMBL3676020.pdb
REMARK                            x       y       z     vdW  Elec       q    Type
REMARK                         _______ _______ _______ _____ _____    ______ ____
ROOT
ATOM      1  C   LIG    1      -39.197  79.312  26.756  0.00  0.00    +0.126 A 
ATOM      2  N   LIG    1      -38.120  78.577  26.914  0.00  0.00    -0.212 NA
ATOM      3  C   LIG    1      -38.035  77.415  26.173  0.00  0.00    +0.170 A 
ATOM      4  C   LIG    1      -37.129  76.382  26.149  0.00  0.00    +0.100 A 
ATOM      5  C   LIG    1      -37.658  75.453  25.225  0.00  0.00    +0.150 A 
ATOM      6  N   LIG    1      -38.799  75.866  24.668  0.00  0.00    -0.173 NA
ATOM      7  N   LIG    1      -39.034  77.060  25.252  0.00  0.00    -0.221 N 
ATOM      8  C   LIG    1      -40.132  77.872  25.042  0.00  0.00    +0.118 A 
ATOM      9  C   LIG    1      -40.275  78.993  25.751  0.00  0.00    +0.063 A 
ENDROOT
BRANCH   1  11
ATOM     10  C   LIG    1      -38.344  81.287  28.027  0.00  0.00    +0.110 C 
ATOM     11  N   LIG    1      -39.440  80.412  27.561  0.00  0.00    -0.308 N 
ATOM     12  C   LIG    1      -40.446  80.265  28.620  0.00  0.00    +0.107 C 
ATOM     13  C   LIG    1      -39.985  81.146  29.772  0.00  0.00    +0.021 C 
ATOM     14  C   LIG    1      -39.015  82.122  29.130  0.00  0.00    +0.029 C 
BRANCH  10  16
ATOM     15  C   LIG    1      -36.475  82.600  26.888  0.00  0.00    +0.220 A 
ATOM     16  C   LIG    1      -37.799  82.152  26.907  0.00  0.00    +0.037 A 
ATOM     17  C   LIG    1      -38.613  82.561  25.836  0.00  0.00    +0.050 A 
ATOM     18  C   LIG    1      -38.085  83.309  24.797  0.00  0.00    +0.142 A 
ATOM     19  F   LIG    1      -38.853  83.665  23.761  0.00  0.00    -0.204 F 
ATOM     20  C   LIG    1      -36.759  83.674  24.856  0.00  0.00    +0.153 A 
ATOM     21  N   LIG    1      -35.946  83.341  25.881  0.00  0.00    -0.218 NA
BRANCH  15  23
ATOM     22  C   LIG    1      -35.390  83.422  28.824  0.00  0.00    +0.279 C 
ATOM     23  O   LIG    1      -35.681  82.309  27.976  0.00  0.00    -0.479 OA
ENDBRANCH  15  23
ENDBRANCH  10  16
ENDBRANCH   1  11
BRANCH   4  24
ATOM     24  C   LIG    1      -35.898  76.168  26.903  0.00  0.00    +0.249 C 
ATOM     25  N   LIG    1      -34.895  77.084  26.713  0.00  0.00    -0.309 N 
ATOM     26  H   LIG    1      -35.072  77.838  26.059  0.00  0.00    +0.149 HD
ATOM     27  O   LIG    1      -35.777  75.211  27.647  0.00  0.00    -0.270 OA
BRANCH  25  28
ATOM     28  C   LIG    1      -33.630  76.992  27.429  0.00  0.00    +0.138 C 
BRANCH  28  29
ATOM     29  C   LIG    1      -32.705  78.187  27.140  0.00  0.00    +0.157 C 
BRANCH  29  30
ATOM     30  O   LIG    1      -32.621  78.467  25.731  0.00  0.00    -0.388 OA
ATOM     31  H   LIG    1      -33.089  79.308  25.566  0.00  0.00    +0.210 HD
ENDBRANCH  29  30
BRANCH  29  32
ATOM     32  C   LIG    1      -33.198  79.469  27.825  0.00  0.00    +0.188 C 
BRANCH  32  33
ATOM     33  O   LIG    1      -34.031  80.197  26.921  0.00  0.00    -0.392 OA
ATOM     34  H   LIG    1      -33.424  80.740  26.378  0.00  0.00    +0.210 HD
ENDBRANCH  32  33
ENDBRANCH  29  32
ENDBRANCH  28  29
ENDBRANCH  25  28
ENDBRANCH   4  24
TORSDOF 9
ENDMDL
MODEL 4
REMARK VINA RESULT:      -4.8     14.267     18.031
REMARK  Name = pdb/CHEMBL3676020.pdb
REMARK                            x       y       z     vdW  Elec       q    Type
REMARK                         _______ _______ _______ _____ _____    ______ ____
ROOT
ATOM      1  C   LIG    1      -39.083  76.548  26.768  0.00  0.00    +0.126 A 
ATOM      2  N   LIG    1      -37.800  76.284  26.868  0.00  0.00    -0.212 NA
ATOM      3  C   LIG    1      -37.328  75.910  28.111  0.00  0.00    +0.170 A 
ATOM      4  C   LIG    1      -36.069  75.659  28.600  0.00  0.00    +0.100 A 
ATOM      5  C   LIG    1      -36.257  75.403  29.977  0.00  0.00    +0.150 A 
ATOM      6  N   LIG    1      -37.538  75.451  30.346  0.00  0.00    -0.173 NA
ATOM      7  N   LIG    1      -38.194  75.768  29.209  0.00  0.00    -0.221 N 
ATOM      8  C   LIG    1      -39.553  75.982  29.080  0.00  0.00    +0.118 A 
ATOM      9  C   LIG    1      -40.055  76.370  27.906  0.00  0.00    +0.063 A 
ENDROOT
BRANCH   1  11
ATOM     10  C   LIG    1      -39.336  76.472  24.282  0.00  0.00    +0.110 C 
ATOM     11  N   LIG    1      -39.618  77.072  25.603  0.00  0.00    -0.308 N 
ATOM     12  C   LIG    1      -39.675  78.535  25.485  0.00  0.00    +0.107 C 
ATOM     13  C   LIG    1      -39.488  78.851  24.008  0.00  0.00    +0.021 C 
ATOM     14  C   LIG    1      -39.827  77.550  23.302  0.00  0.00    +0.029 C 
BRANCH  10  16
ATOM     15  C   LIG    1      -39.457  73.924  24.354  0.00  0.00    +0.220 A 
ATOM     16  C   LIG    1      -40.065  75.156  24.096  0.00  0.00    +0.037 A 
ATOM     17  C   LIG    1      -41.392  75.112  23.634  0.00  0.00    +0.050 A 
ATOM     18  C   LIG    1      -42.058  73.903  23.517  0.00  0.00    +0.142 A 
ATOM     19  F   LIG    1      -43.332  73.868  23.112  0.00  0.00    -0.204 F 
ATOM     20  C   LIG    1      -41.380  72.746  23.827  0.00  0.00    +0.153 A 
ATOM     21  N   LIG    1      -40.093  72.731  24.236  0.00  0.00    -0.218 NA
BRANCH  15  23
ATOM     22  C   LIG    1      -37.745  72.911  25.636  0.00  0.00    +0.279 C 
ATOM     23  O   LIG    1      -38.124  73.925  24.704  0.00  0.00    -0.479 OA
ENDBRANCH  15  23
ENDBRANCH  10  16
ENDBRANCH   1  11
BRANCH   4  24
ATOM     24  C   LIG    1      -34.765  75.677  27.946  0.00  0.00    +0.249 C 
ATOM     25  N   LIG    1      -34.427  76.831  27.284  0.00  0.00    -0.309 N 
ATOM     26  H   LIG    1      -35.106  77.583  27.286  0.00  0.00    +0.149 HD
ATOM     27  O   LIG    1      -34.032  74.706  27.982  0.00  0.00    -0.270 OA
BRANCH  25  28
ATOM     28  C   LIG    1      -33.142  76.979  26.615  0.00  0.00    +0.138 C 
BRANCH  28  29
ATOM     29  C   LIG    1      -32.518  78.366  26.846  0.00  0.00    +0.157 C 
BRANCH  29  30
ATOM     30  O   LIG    1      -32.359  79.090  25.612  0.00  0.00    -0.388 OA
ATOM     31  H   LIG    1      -31.467  79.486  25.613  0.00  0.00    +0.210 HD
ENDBRANCH  29  30
BRANCH  29  32
ATOM     32  C   LIG    1      -33.382  79.234  27.769  0.00  0.00    +0.188 C 
BRANCH  32  33
ATOM     33  O   LIG    1      -34.108  80.182  26.983  0.00  0.00    -0.392 OA
ATOM     34  H   LIG    1      -33.972  81.048  27.417  0.00  0.00    +0.210 HD
ENDBRANCH  32  33
ENDBRANCH  29  32
ENDBRANCH  28  29
ENDBRANCH  25  28
ENDBRANCH   4  24
TORSDOF 9
ENDMDL
MODEL 5
REMARK VINA RESULT:      -4.8     18.282     21.623
REMARK  Name = pdb/CHEMBL3676020.pdb
REMARK                            x       y       z     vdW  Elec       q    Type
REMARK                         _______ _______ _______ _____ _____    ______ ____
ROOT
ATOM      1  C   LIG    1      -20.268  81.713  14.202  0.00  0.00    +0.126 A 
ATOM      2  N   LIG    1      -20.224  82.999  13.941  0.00  0.00    -0.212 NA
ATOM      3  C   LIG    1      -19.043  83.497  13.426  0.00  0.00    +0.170 A 
ATOM      4  C   LIG    1      -18.610  84.767  13.130  0.00  0.00    +0.100 A 
ATOM      5  C   LIG    1      -17.270  84.608  12.710  0.00  0.00    +0.150 A 
ATOM      6  N   LIG    1      -16.876  83.334  12.701  0.00  0.00    -0.173 NA
ATOM      7  N   LIG    1      -17.954  82.654  13.145  0.00  0.00    -0.221 N 
ATOM      8  C   LIG    1      -18.032  81.292  13.360  0.00  0.00    +0.118 A 
ATOM      9  C   LIG    1      -19.142  80.764  13.881  0.00  0.00    +0.063 A 
ENDROOT
BRANCH   1  11
ATOM     10  C   LIG    1      -22.718  81.694  14.699  0.00  0.00    +0.110 C 
ATOM     11  N   LIG    1      -21.352  81.151  14.857  0.00  0.00    -0.308 N 
ATOM     12  C   LIG    1      -21.148  80.706  16.242  0.00  0.00    +0.107 C 
ATOM     13  C   LIG    1      -22.473  80.919  16.958  0.00  0.00    +0.021 C 
ATOM     14  C   LIG    1      -23.494  81.008  15.836  0.00  0.00    +0.029 C 
BRANCH  10  16
ATOM     15  C   LIG    1      -23.555  82.360  12.383  0.00  0.00    +0.220 A 
ATOM     16  C   LIG    1      -23.297  81.371  13.337  0.00  0.00    +0.037 A 
ATOM     17  C   LIG    1      -23.621  80.052  12.971  0.00  0.00    +0.050 A 
ATOM     18  C   LIG    1      -24.103  79.770  11.704  0.00  0.00    +0.142 A 
ATOM     19  F   LIG    1      -24.375  78.510  11.348  0.00  0.00    -0.204 F 
ATOM     20  C   LIG    1      -24.293  80.813  10.826  0.00  0.00    +0.153 A 
ATOM     21  N   LIG    1      -24.036  82.101  11.141  0.00  0.00    -0.218 NA
BRANCH  15  23
ATOM     22  C   LIG    1      -23.475  84.619  11.683  0.00  0.00    +0.279 C 
ATOM     23  O   LIG    1      -23.352  83.674  12.747  0.00  0.00    -0.479 OA
ENDBRANCH  15  23
ENDBRANCH  10  16
ENDBRANCH   1  11
BRANCH   4  24
ATOM     24  C   LIG    1      -19.281  86.059  13.239  0.00  0.00    +0.249 C 
ATOM     25  N   LIG    1      -19.795  86.381  14.470  0.00  0.00    -0.309 N 
ATOM     26  H   LIG    1      -19.683  85.701  15.213  0.00  0.00    +0.149 HD
ATOM     27  O   LIG    1      -19.385  86.794  12.275  0.00  0.00    -0.270 OA
BRANCH  25  28
ATOM     28  C   LIG    1      -20.464  87.652  14.710  0.00  0.00    +0.138 C 
BRANCH  28  29
ATOM     29  C   LIG    1      -21.766  87.487  15.512  0.00  0.00    +0.157 C 
BRANCH  29  30
ATOM     30  O   LIG    1      -22.499  88.723  15.596  0.00  0.00    -0.388 OA
ATOM     31  H   LIG    1      -22.013  89.317  16.198  0.00  0.00    +0.210 HD
ENDBRANCH  29  30
BRANCH  29  32
ATOM     32  C   LIG    1      -22.701  86.451  14.876  0.00  0.00    +0.188 C 
BRANCH  32  33
ATOM     33  O   LIG    1      -22.234  85.138  15.189  0.00  0.00    -0.392 OA
ATOM     34  H   LIG    1      -21.267  85.157  15.045  0.00  0.00    +0.210 HD
ENDBRANCH  32  33
ENDBRANCH  29  32
ENDBRANCH  28  29
ENDBRANCH  25  28
ENDBRANCH   4  24
TORSDOF 9
ENDMDL
MODEL 6
REMARK VINA RESULT:      -4.8     18.929     22.263
REMARK  Name = pdb/CHEMBL3676020.pdb
REMARK                            x       y       z     vdW  Elec       q    Type
REMARK                         _______ _______ _______ _____ _____    ______ ____
ROOT
ATOM      1  C   LIG    1      -20.609  84.463  11.574  0.00  0.00    +0.126 A 
ATOM      2  N   LIG    1      -21.414  83.724  12.303  0.00  0.00    -0.212 NA
ATOM      3  C   LIG    1      -22.499  83.156  11.665  0.00  0.00    +0.170 A 
ATOM      4  C   LIG    1      -23.572  82.423  12.112  0.00  0.00    +0.100 A 
ATOM      5  C   LIG    1      -24.373  82.212  10.967  0.00  0.00    +0.150 A 
ATOM      6  N   LIG    1      -23.845  82.736   9.859  0.00  0.00    -0.173 NA
ATOM      7  N   LIG    1      -22.704  83.320  10.285  0.00  0.00    -0.221 N 
ATOM      8  C   LIG    1      -21.817  84.044   9.512  0.00  0.00    +0.118 A 
ATOM      9  C   LIG    1      -20.766  84.635  10.084  0.00  0.00    +0.063 A 
ENDROOT
BRANCH   1  11
ATOM     10  C   LIG    1      -19.568  86.670  12.115  0.00  0.00    +0.110 C 
ATOM     11  N   LIG    1      -19.584  85.193  12.153  0.00  0.00    -0.308 N 
ATOM     12  C   LIG    1      -18.218  84.674  12.003  0.00  0.00    +0.107 C 
ATOM     13  C   LIG    1      -17.305  85.889  11.938  0.00  0.00    +0.021 C 
ATOM     14  C   LIG    1      -18.132  87.010  12.546  0.00  0.00    +0.029 C 
BRANCH  10  16
ATOM     15  C   LIG    1      -21.672  88.035  12.582  0.00  0.00    +0.220 A 
ATOM     16  C   LIG    1      -20.601  87.268  13.049  0.00  0.00    +0.037 A 
ATOM     17  C   LIG    1      -20.519  87.091  14.442  0.00  0.00    +0.050 A 
ATOM     18  C   LIG    1      -21.499  87.603  15.275  0.00  0.00    +0.142 A 
ATOM     19  F   LIG    1      -21.438  87.402  16.596  0.00  0.00    -0.204 F 
ATOM     20  C   LIG    1      -22.533  88.319  14.714  0.00  0.00    +0.153 A 
ATOM     21  N   LIG    1      -22.636  88.551  13.387  0.00  0.00    -0.218 NA
BRANCH  15  23
ATOM     22  C   LIG    1      -22.826  87.737  10.538  0.00  0.00    +0.279 C 
ATOM     23  O   LIG    1      -21.722  88.319  11.235  0.00  0.00    -0.479 OA
ENDBRANCH  15  23
ENDBRANCH  10  16
ENDBRANCH   1  11
BRANCH   4  24
ATOM     24  C   LIG    1      -23.927  81.961  13.450  0.00  0.00    +0.249 C 
ATOM     25  N   LIG    1      -22.888  81.739  14.319  0.00  0.00    -0.309 N 
ATOM     26  H   LIG    1      -21.950  81.900  13.971  0.00  0.00    +0.149 HD
ATOM     27  O   LIG    1      -25.089  81.772  13.760  0.00  0.00    -0.270 OA
BRANCH  25  28
ATOM     28  C   LIG    1      -23.117  81.302  15.688  0.00  0.00    +0.138 C 
BRANCH  28  29
ATOM     29  C   LIG    1      -22.374  82.175  16.714  0.00  0.00    +0.157 C 
BRANCH  29  30
ATOM     30  O   LIG    1      -20.947  82.092  16.549  0.00  0.00    -0.388 OA
ATOM     31  H   LIG    1      -20.545  82.082  17.438  0.00  0.00    +0.210 HD
ENDBRANCH  29  30
BRANCH  29  32
ATOM     32  C   LIG    1      -22.757  83.655  16.588  0.00  0.00    +0.188 C 
BRANCH  32  33
ATOM     33  O   LIG    1      -22.126  84.209  15.431  0.00  0.00    -0.392 OA
ATOM     34  H   LIG    1      -22.447  83.680  14.673  0.00  0.00    +0.210 HD
ENDBRANCH  32  33
ENDBRANCH  29  32
ENDBRANCH  28  29
ENDBRANCH  25  28
ENDBRANCH   4  24
TORSDOF 9
ENDMDL
MODEL 7
REMARK VINA RESULT:      -4.7      4.481      7.060
REMARK  Name = pdb/CHEMBL3676020.pdb
REMARK                            x       y       z     vdW  Elec       q    Type
REMARK                         _______ _______ _______ _____ _____    ______ ____
ROOT
ATOM      1  C   LIG    1      -25.640  76.666  31.665  0.00  0.00    +0.126 A 
ATOM      2  N   LIG    1      -26.864  76.383  31.282  0.00  0.00    -0.212 NA
ATOM      3  C   LIG    1      -27.876  76.593  32.198  0.00  0.00    +0.170 A 
ATOM      4  C   LIG    1      -29.224  76.329  32.185  0.00  0.00    +0.100 A 
ATOM      5  C   LIG    1      -29.684  76.709  33.466  0.00  0.00    +0.150 A 
ATOM      6  N   LIG    1      -28.718  77.211  34.237  0.00  0.00    -0.173 NA
ATOM      7  N   LIG    1      -27.612  77.134  33.468  0.00  0.00    -0.221 N 
ATOM      8  C   LIG    1      -26.330  77.492  33.839  0.00  0.00    +0.118 A 
ATOM      9  C   LIG    1      -25.313  77.285  33.000  0.00  0.00    +0.063 A 
ENDROOT
BRANCH   1  11
ATOM     10  C   LIG    1      -23.391  75.606  31.410  0.00  0.00    +0.110 C 
ATOM     11  N   LIG    1      -24.550  76.349  30.872  0.00  0.00    -0.308 N 
ATOM     12  C   LIG    1      -24.091  77.366  29.916  0.00  0.00    +0.107 C 
ATOM     13  C   LIG    1      -22.583  77.199  29.806  0.00  0.00    +0.021 C 
ATOM     14  C   LIG    1      -22.326  75.792  30.317  0.00  0.00    +0.029 C 
BRANCH  10  16
ATOM     15  C   LIG    1      -23.701  73.574  32.921  0.00  0.00    +0.220 A 
ATOM     16  C   LIG    1      -23.719  74.146  31.645  0.00  0.00    +0.037 A 
ATOM     17  C   LIG    1      -24.043  73.286  30.581  0.00  0.00    +0.050 A 
ATOM     18  C   LIG    1      -24.388  71.967  30.821  0.00  0.00    +0.142 A 
ATOM     19  F   LIG    1      -24.732  71.162  29.809  0.00  0.00    -0.204 F 
ATOM     20  C   LIG    1      -24.371  71.508  32.119  0.00  0.00    +0.153 A 
ATOM     21  N   LIG    1      -24.029  72.281  33.171  0.00  0.00    -0.218 NA
BRANCH  15  23
ATOM     22  C   LIG    1      -22.978  73.648  35.173  0.00  0.00    +0.279 C 
ATOM     23  O   LIG    1      -23.283  74.361  33.973  0.00  0.00    -0.479 OA
ENDBRANCH  15  23
ENDBRANCH  10  16
ENDBRANCH   1  11
BRANCH   4  24
ATOM     24  C   LIG    1      -30.076  75.742  31.155  0.00  0.00    +0.249 C 
ATOM     25  N   LIG    1      -30.578  76.602  30.211  0.00  0.00    -0.309 N 
ATOM     26  H   LIG    1      -30.332  77.581  30.297  0.00  0.00    +0.149 HD
ATOM     27  O   LIG    1      -30.332  74.552  31.157  0.00  0.00    -0.270 OA
BRANCH  25  28
ATOM     28  C   LIG    1      -31.418  76.131  29.119  0.00  0.00    +0.138 C 
BRANCH  28  29
ATOM     29  C   LIG    1      -32.858  76.665  29.215  0.00  0.00    +0.157 C 
BRANCH  29  30
ATOM     30  O   LIG    1      -33.123  77.250  30.503  0.00  0.00    -0.388 OA
ATOM     31  H   LIG    1      -32.427  76.948  31.116  0.00  0.00    +0.210 HD
ENDBRANCH  29  30
BRANCH  29  32
ATOM     32  C   LIG    1      -33.137  77.746  28.163  0.00  0.00    +0.188 C 
BRANCH  32  33
ATOM     33  O   LIG    1      -32.106  78.734  28.215  0.00  0.00    -0.392 OA
ATOM     34  H   LIG    1      -32.135  79.103  29.121  0.00  0.00    +0.210 HD
ENDBRANCH  32  33
ENDBRANCH  29  32
ENDBRANCH  28  29
ENDBRANCH  25  28
ENDBRANCH   4  24
TORSDOF 9
ENDMDL
MODEL 8
REMARK VINA RESULT:      -4.7      2.361      4.682
REMARK  Name = pdb/CHEMBL3676020.pdb
REMARK                            x       y       z     vdW  Elec       q    Type
REMARK                         _______ _______ _______ _____ _____    ______ ____
ROOT
ATOM      1  C   LIG    1      -20.742  78.995  34.173  0.00  0.00    +0.126 A 
ATOM      2  N   LIG    1      -21.438  78.514  33.168  0.00  0.00    -0.212 NA
ATOM      3  C   LIG    1      -20.731  77.946  32.127  0.00  0.00    +0.170 A 
ATOM      4  C   LIG    1      -21.103  77.442  30.904  0.00  0.00    +0.100 A 
ATOM      5  C   LIG    1      -19.891  77.084  30.272  0.00  0.00    +0.150 A 
ATOM      6  N   LIG    1      -18.820  77.306  31.036  0.00  0.00    -0.173 NA
ATOM      7  N   LIG    1      -19.330  77.839  32.167  0.00  0.00    -0.221 N 
ATOM      8  C   LIG    1      -18.610  78.287  33.258  0.00  0.00    +0.118 A 
ATOM      9  C   LIG    1      -19.244  78.868  34.278  0.00  0.00    +0.063 A 
ENDROOT
BRANCH   1  11
ATOM     10  C   LIG    1      -22.778  79.521  35.526  0.00  0.00    +0.110 C 
ATOM     11  N   LIG    1      -21.352  79.714  35.188  0.00  0.00    -0.308 N 
ATOM     12  C   LIG    1      -20.996  81.134  35.317  0.00  0.00    +0.107 C 
ATOM     13  C   LIG    1      -22.243  81.841  35.826  0.00  0.00    +0.021 C 
ATOM     14  C   LIG    1      -23.085  80.728  36.426  0.00  0.00    +0.029 C 
BRANCH  10  16
ATOM     15  C   LIG    1      -24.024  77.318  35.851  0.00  0.00    +0.220 A 
ATOM     16  C   LIG    1      -23.013  78.203  36.237  0.00  0.00    +0.037 A 
ATOM     17  C   LIG    1      -22.230  77.815  37.339  0.00  0.00    +0.050 A 
ATOM     18  C   LIG    1      -22.427  76.586  37.945  0.00  0.00    +0.142 A 
ATOM     19  F   LIG    1      -21.656  76.204  38.969  0.00  0.00    -0.204 F 
ATOM     20  C   LIG    1      -23.430  75.771  37.469  0.00  0.00    +0.153 A 
ATOM     21  N   LIG    1      -24.235  76.114  36.441  0.00  0.00    -0.218 NA
BRANCH  15  23
ATOM     22  C   LIG    1      -26.209  78.016  35.272  0.00  0.00    +0.279 C 
ATOM     23  O   LIG    1      -24.879  77.716  34.846  0.00  0.00    -0.479 OA
ENDBRANCH  15  23
ENDBRANCH  10  16
ENDBRANCH   1  11
BRANCH   4  24
ATOM     24  C   LIG    1      -22.416  77.310  30.281  0.00  0.00    +0.249 C 
ATOM     25  N   LIG    1      -23.497  77.669  31.046  0.00  0.00    -0.309 N 
ATOM     26  H   LIG    1      -23.313  77.991  31.989  0.00  0.00    +0.149 HD
ATOM     27  O   LIG    1      -22.532  76.886  29.146  0.00  0.00    -0.270 OA
BRANCH  25  28
ATOM     28  C   LIG    1      -24.856  77.606  30.527  0.00  0.00    +0.138 C 
BRANCH  28  29
ATOM     29  C   LIG    1      -25.879  77.212  31.606  0.00  0.00    +0.157 C 
BRANCH  29  30
ATOM     30  O   LIG    1      -27.214  77.607  31.243  0.00  0.00    -0.388 OA
ATOM     31  H   LIG    1      -27.531  76.989  30.557  0.00  0.00    +0.210 HD
ENDBRANCH  29  30
BRANCH  29  32
ATOM     32  C   LIG    1      -25.906  75.696  31.840  0.00  0.00    +0.188 C 
BRANCH  32  33
ATOM     33  O   LIG    1      -25.090  75.052  30.860  0.00  0.00    -0.392 OA
ATOM     34  H   LIG    1      -25.601  74.274  30.557  0.00  0.00    +0.210 HD
ENDBRANCH  32  33
ENDBRANCH  29  32
ENDBRANCH  28  29
ENDBRANCH  25  28
ENDBRANCH   4  24
TORSDOF 9
ENDMDL
MODEL 9
REMARK VINA RESULT:      -4.7      3.159      5.898
REMARK  Name = pdb/CHEMBL3676020.pdb
REMARK                            x       y       z     vdW  Elec       q    Type
REMARK                         _______ _______ _______ _____ _____    ______ ____
ROOT
ATOM      1  C   LIG    1      -21.511  74.673  32.146  0.00  0.00    +0.126 A 
ATOM      2  N   LIG    1      -22.818  74.578  32.051  0.00  0.00    -0.212 NA
ATOM      3  C   LIG    1      -23.390  73.370  32.401  0.00  0.00    +0.170 A 
ATOM      4  C   LIG    1      -24.675  72.888  32.339  0.00  0.00    +0.100 A 
ATOM      5  C   LIG    1      -24.582  71.546  32.772  0.00  0.00    +0.150 A 
ATOM      6  N   LIG    1      -23.343  71.195  33.119  0.00  0.00    -0.173 NA
ATOM      7  N   LIG    1      -22.611  72.306  32.886  0.00  0.00    -0.221 N 
ATOM      8  C   LIG    1      -21.245  72.435  33.046  0.00  0.00    +0.118 A 
ATOM      9  C   LIG    1      -20.640  73.573  32.699  0.00  0.00    +0.063 A 
ENDROOT
BRANCH   1  11
ATOM     10  C   LIG    1      -21.560  76.981  31.189  0.00  0.00    +0.110 C 
ATOM     11  N   LIG    1      -20.837  75.788  31.678  0.00  0.00    -0.308 N 
ATOM     12  C   LIG    1      -19.639  75.560  30.861  0.00  0.00    +0.107 C 
ATOM     13  C   LIG    1      -19.580  76.705  29.861  0.00  0.00    +0.021 C 
ATOM     14  C   LIG    1      -20.459  77.782  30.474  0.00  0.00    +0.029 C 
BRANCH  10  16
ATOM     15  C   LIG    1      -23.574  77.909  32.451  0.00  0.00    +0.220 A 
ATOM     16  C   LIG    1      -22.189  77.763  32.325  0.00  0.00    +0.037 A 
ATOM     17  C   LIG    1      -21.402  78.397  33.302  0.00  0.00    +0.050 A 
ATOM     18  C   LIG    1      -21.996  79.065  34.359  0.00  0.00    +0.142 A 
ATOM     19  F   LIG    1      -21.245  79.636  35.307  0.00  0.00    -0.204 F 
ATOM     20  C   LIG    1      -23.371  79.126  34.411  0.00  0.00    +0.153 A 
ATOM     21  N   LIG    1      -24.170  78.568  33.477  0.00  0.00    -0.218 NA
BRANCH  15  23
ATOM     22  C   LIG    1      -24.821  78.347  30.488  0.00  0.00    +0.279 C 
ATOM     23  O   LIG    1      -24.370  77.393  31.452  0.00  0.00    -0.479 OA
ENDBRANCH  15  23
ENDBRANCH  10  16
ENDBRANCH   1  11
BRANCH   4  24
ATOM     24  C   LIG    1      -25.914  73.516  31.895  0.00  0.00    +0.249 C 
ATOM     25  N   LIG    1      -26.063  74.851  32.179  0.00  0.00    -0.309 N 
ATOM     26  H   LIG    1      -25.310  75.304  32.683  0.00  0.00    +0.149 HD
ATOM     27  O   LIG    1      -26.771  72.872  31.316  0.00  0.00    -0.270 OA
BRANCH  25  28
ATOM     28  C   LIG    1      -27.244  75.594  31.763  0.00  0.00    +0.138 C 
BRANCH  28  29
ATOM     29  C   LIG    1      -27.815  76.466  32.894  0.00  0.00    +0.157 C 
BRANCH  29  30
ATOM     30  O   LIG    1      -26.879  77.478  33.310  0.00  0.00    -0.388 OA
ATOM     31  H   LIG    1      -27.162  78.324  32.916  0.00  0.00    +0.210 HD
ENDBRANCH  29  30
BRANCH  29  32
ATOM     32  C   LIG    1      -29.098  77.189  32.465  0.00  0.00    +0.188 C 
BRANCH  32  33
ATOM     33  O   LIG    1      -28.837  77.957  31.289  0.00  0.00    -0.392 OA
ATOM     34  H   LIG    1      -28.035  77.565  30.887  0.00  0.00    +0.210 HD
ENDBRANCH  32  33
ENDBRANCH  29  32
ENDBRANCH  28  29
ENDBRANCH  25  28
ENDBRANCH   4  24
TORSDOF 9
ENDMDL
