MODEL 1
REMARK VINA RESULT:      -5.4      0.000      0.000
REMARK  Name = pdb/CHEMBL209466.pdb
REMARK                            x       y       z     vdW  Elec       q    Type
REMARK                         _______ _______ _______ _____ _____    ______ ____
ROOT
ATOM      1  C   LIG    1      -35.366  76.086  27.381  0.00  0.00    +0.106 A 
ATOM      2  C   LIG    1      -36.556  75.646  26.793  0.00  0.00    +0.098 A 
ATOM      3  C   LIG    1      -36.805  74.290  27.229  0.00  0.00    +0.121 A 
ATOM      4  N   LIG    1      -35.931  73.747  28.064  0.00  0.00    -0.202 NA
ATOM      5  S   LIG    1      -34.748  74.841  28.369  0.00  0.00    +0.029 S 
ENDROOT
BRANCH   1  10
ATOM      6  C   LIG    1      -34.550  80.881  27.957  0.00  0.00    +0.129 C 
ATOM      7  N   LIG    1      -34.251  79.543  27.492  0.00  0.00    -0.302 N 
ATOM      8  H   LIG    1      -33.287  79.317  27.300  0.00  0.00    +0.150 HD
ATOM      9  C   LIG    1      -35.114  78.509  27.796  0.00  0.00    +0.304 C 
ATOM     10  N   LIG    1      -34.693  77.302  27.260  0.00  0.00    -0.262 N 
ATOM     11  H   LIG    1      -33.891  77.314  26.636  0.00  0.00    +0.157 HD
ATOM     12  O   LIG    1      -36.137  78.713  28.438  0.00  0.00    -0.253 OA
ENDBRANCH   1  10
BRANCH   2  13
ATOM     13  C   LIG    1      -37.369  76.487  25.911  0.00  0.00    +0.246 C 
ATOM     14  N   LIG    1      -38.328  77.267  26.496  0.00  0.00    -0.325 N 
ATOM     15  H   LIG    1      -38.862  77.905  25.919  0.00  0.00    +0.145 HD
ATOM     16  H   LIG    1      -38.427  77.354  27.496  0.00  0.00    +0.145 HD
ATOM     17  O   LIG    1      -37.221  76.502  24.693  0.00  0.00    -0.270 OA
ENDBRANCH   2  13
BRANCH   3  18
ATOM     18  S   LIG    1      -38.210  73.289  26.857  0.00  0.00    -0.097 S 
BRANCH  18  19
ATOM     19  C   LIG    1      -38.042  73.012  25.043  0.00  0.00    +0.080 C 
ATOM     20  C   LIG    1      -37.404  71.671  24.681  0.00  0.00    +0.024 C 
BRANCH  19  21
ATOM     21  C   LIG    1      -39.413  73.161  24.383  0.00  0.00    -0.034 A 
ATOM     22  C   LIG    1      -40.098  72.029  23.912  0.00  0.00    +0.006 A 
ATOM     23  C   LIG    1      -41.321  72.161  23.246  0.00  0.00    +0.020 A 
ATOM     24  C   LIG    1      -41.879  73.423  23.057  0.00  0.00    +0.041 A 
ATOM     25 CL   LIG    1      -43.363  73.584  22.200  0.00  0.00    -0.084 Cl
ATOM     26  C   LIG    1      -41.236  74.554  23.549  0.00  0.00    +0.020 A 
ATOM     27  C   LIG    1      -40.013  74.424  24.213  0.00  0.00    +0.006 A 
ENDBRANCH  19  21
ENDBRANCH  18  19
ENDBRANCH   3  18
TORSDOF 5
ENDMDL
MODEL 2
REMARK VINA RESULT:      -5.1      5.217      8.192
REMARK  Name = pdb/CHEMBL209466.pdb
REMARK                            x       y       z     vdW  Elec       q    Type
REMARK                         _______ _______ _______ _____ _____    ______ ____
ROOT
ATOM      1  C   LIG    1      -37.621  69.092  22.375  0.00  0.00    +0.106 A 
ATOM      2  C   LIG    1      -37.975  69.880  23.475  0.00  0.00    +0.098 A 
ATOM      3  C   LIG    1      -39.380  70.207  23.368  0.00  0.00    +0.121 A 
ATOM      4  N   LIG    1      -40.042  69.722  22.327  0.00  0.00    -0.202 NA
ATOM      5  S   LIG    1      -39.004  68.845  21.408  0.00  0.00    +0.029 S 
ENDROOT
BRANCH   1  10
ATOM      6  C   LIG    1      -34.262  65.605  21.640  0.00  0.00    +0.129 C 
ATOM      7  N   LIG    1      -34.769  66.960  21.649  0.00  0.00    -0.302 N 
ATOM      8  H   LIG    1      -34.328  67.631  21.038  0.00  0.00    +0.150 HD
ATOM      9  C   LIG    1      -36.071  67.196  22.043  0.00  0.00    +0.304 C 
ATOM     10  N   LIG    1      -36.390  68.545  22.014  0.00  0.00    -0.262 N 
ATOM     11  H   LIG    1      -35.642  69.205  21.821  0.00  0.00    +0.157 HD
ATOM     12  O   LIG    1      -36.795  66.276  22.402  0.00  0.00    -0.253 OA
ENDBRANCH   1  10
BRANCH   2  13
ATOM     13  C   LIG    1      -37.028  70.251  24.529  0.00  0.00    +0.246 C 
ATOM     14  N   LIG    1      -36.608  71.553  24.565  0.00  0.00    -0.325 N 
ATOM     15  H   LIG    1      -36.003  71.853  25.320  0.00  0.00    +0.145 HD
ATOM     16  H   LIG    1      -36.992  72.268  23.967  0.00  0.00    +0.145 HD
ATOM     17  O   LIG    1      -36.608  69.445  25.352  0.00  0.00    -0.270 OA
ENDBRANCH   2  13
BRANCH   3  18
ATOM     18  S   LIG    1      -40.360  71.104  24.528  0.00  0.00    -0.097 S 
BRANCH  18  19
ATOM     19  C   LIG    1      -41.185  72.368  23.471  0.00  0.00    +0.080 C 
ATOM     20  C   LIG    1      -42.710  72.357  23.573  0.00  0.00    +0.024 C 
BRANCH  19  21
ATOM     21  C   LIG    1      -40.624  73.750  23.809  0.00  0.00    -0.034 A 
ATOM     22  C   LIG    1      -41.342  74.908  23.468  0.00  0.00    +0.006 A 
ATOM     23  C   LIG    1      -40.807  76.177  23.713  0.00  0.00    +0.020 A 
ATOM     24  C   LIG    1      -39.557  76.302  24.313  0.00  0.00    +0.041 A 
ATOM     25 CL   LIG    1      -38.884  77.865  24.573  0.00  0.00    -0.084 Cl
ATOM     26  C   LIG    1      -38.845  75.169  24.693  0.00  0.00    +0.020 A 
ATOM     27  C   LIG    1      -39.378  73.900  24.449  0.00  0.00    +0.006 A 
ENDBRANCH  19  21
ENDBRANCH  18  19
ENDBRANCH   3  18
TORSDOF 5
ENDMDL
MODEL 3
REMARK VINA RESULT:      -5.0     14.000     17.051
REMARK  Name = pdb/CHEMBL209466.pdb
REMARK                            x       y       z     vdW  Elec       q    Type
REMARK                         _______ _______ _______ _____ _____    ______ ____
ROOT
ATOM      1  C   LIG    1      -25.534  74.886  31.525  0.00  0.00    +0.106 A 
ATOM      2  C   LIG    1      -24.837  76.047  31.177  0.00  0.00    +0.098 A 
ATOM      3  C   LIG    1      -23.540  75.663  30.664  0.00  0.00    +0.121 A 
ATOM      4  N   LIG    1      -23.267  74.368  30.604  0.00  0.00    -0.202 NA
ATOM      5  S   LIG    1      -24.559  73.532  31.171  0.00  0.00    +0.029 S 
ENDROOT
BRANCH   1  10
ATOM      6  C   LIG    1      -28.925  74.519  35.040  0.00  0.00    +0.129 C 
ATOM      7  N   LIG    1      -28.444  74.544  33.675  0.00  0.00    -0.302 N 
ATOM      8  H   LIG    1      -29.102  74.785  32.949  0.00  0.00    +0.150 HD
ATOM      9  C   LIG    1      -27.101  74.752  33.431  0.00  0.00    +0.304 C 
ATOM     10  N   LIG    1      -26.805  74.726  32.077  0.00  0.00    -0.262 N 
ATOM     11  H   LIG    1      -27.547  74.462  31.435  0.00  0.00    +0.157 HD
ATOM     12  O   LIG    1      -26.310  74.897  34.355  0.00  0.00    -0.253 OA
ENDBRANCH   1  10
BRANCH   2  13
ATOM     13  C   LIG    1      -25.403  77.391  31.317  0.00  0.00    +0.246 C 
ATOM     14  N   LIG    1      -25.540  78.136  30.178  0.00  0.00    -0.325 N 
ATOM     15  H   LIG    1      -25.987  79.043  30.235  0.00  0.00    +0.145 HD
ATOM     16  H   LIG    1      -25.361  77.766  29.257  0.00  0.00    +0.145 HD
ATOM     17  O   LIG    1      -25.740  77.855  32.402  0.00  0.00    -0.270 OA
ENDBRANCH   2  13
BRANCH   3  18
ATOM     18  S   LIG    1      -22.295  76.724  30.003  0.00  0.00    -0.097 S 
BRANCH  18  19
ATOM     19  C   LIG    1      -20.875  76.442  31.143  0.00  0.00    +0.080 C 
ATOM     20  C   LIG    1      -19.525  76.341  30.433  0.00  0.00    +0.024 C 
BRANCH  19  21
ATOM     21  C   LIG    1      -20.854  77.544  32.202  0.00  0.00    -0.034 A 
ATOM     22  C   LIG    1      -19.680  78.281  32.435  0.00  0.00    +0.006 A 
ATOM     23  C   LIG    1      -19.631  79.245  33.447  0.00  0.00    +0.020 A 
ATOM     24  C   LIG    1      -20.757  79.493  34.228  0.00  0.00    +0.041 A 
ATOM     25 CL   LIG    1      -20.679  80.650  35.500  0.00  0.00    -0.084 Cl
ATOM     26  C   LIG    1      -21.941  78.802  33.990  0.00  0.00    +0.020 A 
ATOM     27  C   LIG    1      -21.991  77.838  32.979  0.00  0.00    +0.006 A 
ENDBRANCH  19  21
ENDBRANCH  18  19
ENDBRANCH   3  18
TORSDOF 5
ENDMDL
MODEL 4
REMARK VINA RESULT:      -5.0     18.778     20.353
REMARK  Name = pdb/CHEMBL209466.pdb
REMARK                            x       y       z     vdW  Elec       q    Type
REMARK                         _______ _______ _______ _____ _____    ______ ____
ROOT
ATOM      1  C   LIG    1      -23.083  83.044  14.304  0.00  0.00    +0.106 A 
ATOM      2  C   LIG    1      -22.810  82.032  15.229  0.00  0.00    +0.098 A 
ATOM      3  C   LIG    1      -23.427  80.810  14.763  0.00  0.00    +0.121 A 
ATOM      4  N   LIG    1      -24.084  80.858  13.613  0.00  0.00    -0.202 NA
ATOM      5  S   LIG    1      -24.002  82.387  13.026  0.00  0.00    +0.029 S 
ENDROOT
BRANCH   1  10
ATOM      6  C   LIG    1      -20.146  86.952  14.003  0.00  0.00    +0.129 C 
ATOM      7  N   LIG    1      -21.409  86.268  14.181  0.00  0.00    -0.302 N 
ATOM      8  H   LIG    1      -22.254  86.784  13.991  0.00  0.00    +0.150 HD
ATOM      9  C   LIG    1      -21.454  84.890  14.094  0.00  0.00    +0.304 C 
ATOM     10  N   LIG    1      -22.730  84.393  14.309  0.00  0.00    -0.262 N 
ATOM     11  H   LIG    1      -23.450  85.048  14.603  0.00  0.00    +0.157 HD
ATOM     12  O   LIG    1      -20.436  84.241  13.886  0.00  0.00    -0.253 OA
ENDBRANCH   1  10
BRANCH   2  13
ATOM     13  C   LIG    1      -22.006  82.248  16.435  0.00  0.00    +0.246 C 
ATOM     14  N   LIG    1      -20.650  82.114  16.316  0.00  0.00    -0.325 N 
ATOM     15  H   LIG    1      -20.064  82.320  17.117  0.00  0.00    +0.145 HD
ATOM     16  H   LIG    1      -20.189  81.971  15.431  0.00  0.00    +0.145 HD
ATOM     17  O   LIG    1      -22.505  82.530  17.519  0.00  0.00    -0.270 OA
ENDBRANCH   2  13
BRANCH   3  18
ATOM     18  S   LIG    1      -23.326  79.211  15.503  0.00  0.00    -0.097 S 
BRANCH  18  19
ATOM     19  C   LIG    1      -22.133  78.332  14.407  0.00  0.00    +0.080 C 
ATOM     20  C   LIG    1      -20.865  79.132  14.110  0.00  0.00    +0.024 C 
BRANCH  19  21
ATOM     21  C   LIG    1      -21.792  76.975  15.021  0.00  0.00    -0.034 A 
ATOM     22  C   LIG    1      -22.816  76.076  15.365  0.00  0.00    +0.006 A 
ATOM     23  C   LIG    1      -22.518  74.861  15.991  0.00  0.00    +0.020 A 
ATOM     24  C   LIG    1      -21.195  74.525  16.266  0.00  0.00    +0.041 A 
ATOM     25 CL   LIG    1      -20.836  73.047  17.074  0.00  0.00    -0.084 Cl
ATOM     26  C   LIG    1      -20.163  75.383  15.900  0.00  0.00    +0.020 A 
ATOM     27  C   LIG    1      -20.459  76.598  15.276  0.00  0.00    +0.006 A 
ENDBRANCH  19  21
ENDBRANCH  18  19
ENDBRANCH   3  18
TORSDOF 5
ENDMDL
MODEL 5
REMARK VINA RESULT:      -5.0     17.394     19.080
REMARK  Name = pdb/CHEMBL209466.pdb
REMARK                            x       y       z     vdW  Elec       q    Type
REMARK                         _______ _______ _______ _____ _____    ______ ____
ROOT
ATOM      1  C   LIG    1      -26.439  76.739  13.339  0.00  0.00    +0.106 A 
ATOM      2  C   LIG    1      -25.511  77.424  14.131  0.00  0.00    +0.098 A 
ATOM      3  C   LIG    1      -24.243  76.733  14.045  0.00  0.00    +0.121 A 
ATOM      4  N   LIG    1      -24.184  75.658  13.273  0.00  0.00    -0.202 NA
ATOM      5  S   LIG    1      -25.661  75.410  12.606  0.00  0.00    +0.029 S 
ENDROOT
BRANCH   1  10
ATOM      6  C   LIG    1      -30.363  78.964  11.431  0.00  0.00    +0.129 C 
ATOM      7  N   LIG    1      -29.672  77.991  12.251  0.00  0.00    -0.302 N 
ATOM      8  H   LIG    1      -30.165  77.145  12.492  0.00  0.00    +0.150 HD
ATOM      9  C   LIG    1      -28.292  77.965  12.257  0.00  0.00    +0.304 C 
ATOM     10  N   LIG    1      -27.790  76.992  13.108  0.00  0.00    -0.262 N 
ATOM     11  H   LIG    1      -28.451  76.492  13.697  0.00  0.00    +0.157 HD
ATOM     12  O   LIG    1      -27.646  78.765  11.592  0.00  0.00    -0.253 OA
ENDBRANCH   1  10
BRANCH   2  13
ATOM     13  C   LIG    1      -25.840  78.642  14.874  0.00  0.00    +0.246 C 
ATOM     14  N   LIG    1      -25.942  79.804  14.159  0.00  0.00    -0.325 N 
ATOM     15  H   LIG    1      -26.231  80.650  14.636  0.00  0.00    +0.145 HD
ATOM     16  H   LIG    1      -25.895  79.834  13.152  0.00  0.00    +0.145 HD
ATOM     17  O   LIG    1      -26.014  78.648  16.088  0.00  0.00    -0.270 OA
ENDBRANCH   2  13
BRANCH   3  18
ATOM     18  S   LIG    1      -22.712  77.216  14.779  0.00  0.00    -0.097 S 
BRANCH  18  19
ATOM     19  C   LIG    1      -22.216  78.671  13.762  0.00  0.00    +0.080 C 
ATOM     20  C   LIG    1      -22.940  78.759  12.418  0.00  0.00    +0.024 C 
BRANCH  19  21
ATOM     21  C   LIG    1      -22.423  79.947  14.577  0.00  0.00    -0.034 A 
ATOM     22  C   LIG    1      -22.651  81.173  13.929  0.00  0.00    +0.006 A 
ATOM     23  C   LIG    1      -22.773  82.357  14.664  0.00  0.00    +0.020 A 
ATOM     24  C   LIG    1      -22.683  82.327  16.053  0.00  0.00    +0.041 A 
ATOM     25 CL   LIG    1      -22.792  83.792  16.950  0.00  0.00    -0.084 Cl
ATOM     26  C   LIG    1      -22.496  81.119  16.718  0.00  0.00    +0.020 A 
ATOM     27  C   LIG    1      -22.372  79.936  15.985  0.00  0.00    +0.006 A 
ENDBRANCH  19  21
ENDBRANCH  18  19
ENDBRANCH   3  18
TORSDOF 5
ENDMDL
MODEL 6
REMARK VINA RESULT:      -4.9     14.668     16.793
REMARK  Name = pdb/CHEMBL209466.pdb
REMARK                            x       y       z     vdW  Elec       q    Type
REMARK                         _______ _______ _______ _____ _____    ______ ____
ROOT
ATOM      1  C   LIG    1      -28.106  67.731  18.879  0.00  0.00    +0.106 A 
ATOM      2  C   LIG    1      -27.800  69.092  18.779  0.00  0.00    +0.098 A 
ATOM      3  C   LIG    1      -26.554  69.228  18.058  0.00  0.00    +0.121 A 
ATOM      4  N   LIG    1      -25.970  68.116  17.634  0.00  0.00    -0.202 NA
ATOM      5  S   LIG    1      -26.889  66.835  18.087  0.00  0.00    +0.029 S 
ENDROOT
BRANCH   1  10
ATOM      6  C   LIG    1      -32.704  66.141  19.441  0.00  0.00    +0.129 C 
ATOM      7  N   LIG    1      -31.318  66.315  19.820  0.00  0.00    -0.302 N 
ATOM      8  H   LIG    1      -30.920  65.650  20.466  0.00  0.00    +0.150 HD
ATOM      9  C   LIG    1      -30.462  66.992  18.974  0.00  0.00    +0.304 C 
ATOM     10  N   LIG    1      -29.180  67.089  19.493  0.00  0.00    -0.262 N 
ATOM     11  H   LIG    1      -29.028  66.764  20.444  0.00  0.00    +0.157 HD
ATOM     12  O   LIG    1      -30.865  67.463  17.917  0.00  0.00    -0.253 OA
ENDBRANCH   1  10
BRANCH   2  13
ATOM     13  C   LIG    1      -28.661  70.146  19.322  0.00  0.00    +0.246 C 
ATOM     14  N   LIG    1      -28.371  70.609  20.576  0.00  0.00    -0.325 N 
ATOM     15  H   LIG    1      -28.909  71.380  20.952  0.00  0.00    +0.145 HD
ATOM     16  H   LIG    1      -27.548  70.327  21.087  0.00  0.00    +0.145 HD
ATOM     17  O   LIG    1      -29.614  70.604  18.701  0.00  0.00    -0.270 OA
ENDBRANCH   2  13
BRANCH   3  18
ATOM     18  S   LIG    1      -25.754  70.726  17.578  0.00  0.00    -0.097 S 
BRANCH  18  19
ATOM     19  C   LIG    1      -24.223  70.120  16.750  0.00  0.00    +0.080 C 
ATOM     20  C   LIG    1      -24.292  70.160  15.223  0.00  0.00    +0.024 C 
BRANCH  19  21
ATOM     21  C   LIG    1      -23.025  70.919  17.263  0.00  0.00    -0.034 A 
ATOM     22  C   LIG    1      -21.716  70.508  16.958  0.00  0.00    +0.006 A 
ATOM     23  C   LIG    1      -20.614  71.192  17.479  0.00  0.00    +0.020 A 
ATOM     24  C   LIG    1      -20.805  72.301  18.299  0.00  0.00    +0.041 A 
ATOM     25 CL   LIG    1      -19.446  73.114  18.972  0.00  0.00    -0.084 Cl
ATOM     26  C   LIG    1      -22.092  72.748  18.583  0.00  0.00    +0.020 A 
ATOM     27  C   LIG    1      -23.195  72.065  18.064  0.00  0.00    +0.006 A 
ENDBRANCH  19  21
ENDBRANCH  18  19
ENDBRANCH   3  18
TORSDOF 5
ENDMDL
MODEL 7
REMARK VINA RESULT:      -4.8     17.921     20.090
REMARK  Name = pdb/CHEMBL209466.pdb
REMARK                            x       y       z     vdW  Elec       q    Type
REMARK                         _______ _______ _______ _____ _____    ______ ____
ROOT
ATOM      1  C   LIG    1      -31.719  95.106  23.631  0.00  0.00    +0.106 A 
ATOM      2  C   LIG    1      -31.397  95.028  22.272  0.00  0.00    +0.098 A 
ATOM      3  C   LIG    1      -31.876  93.762  21.763  0.00  0.00    +0.121 A 
ATOM      4  N   LIG    1      -32.506  92.961  22.611  0.00  0.00    -0.202 NA
ATOM      5  S   LIG    1      -32.552  93.687  24.081  0.00  0.00    +0.029 S 
ENDROOT
BRANCH   1  10
ATOM      6  C   LIG    1      -29.069  97.836  26.714  0.00  0.00    +0.129 C 
ATOM      7  N   LIG    1      -30.275  97.424  26.029  0.00  0.00    -0.302 N 
ATOM      8  H   LIG    1      -31.017  98.100  25.935  0.00  0.00    +0.150 HD
ATOM      9  C   LIG    1      -30.218  96.390  25.115  0.00  0.00    +0.304 C 
ATOM     10  N   LIG    1      -31.459  96.107  24.566  0.00  0.00    -0.262 N 
ATOM     11  H   LIG    1      -32.267  96.590  24.949  0.00  0.00    +0.157 HD
ATOM     12  O   LIG    1      -29.164  95.807  24.892  0.00  0.00    -0.253 OA
ENDBRANCH   1  10
BRANCH   2  13
ATOM     13  C   LIG    1      -30.709  96.101  21.552  0.00  0.00    +0.246 C 
ATOM     14  N   LIG    1      -29.346  96.157  21.662  0.00  0.00    -0.325 N 
ATOM     15  H   LIG    1      -28.838  96.849  21.125  0.00  0.00    +0.145 HD
ATOM     16  H   LIG    1      -28.805  95.445  22.130  0.00  0.00    +0.145 HD
ATOM     17  O   LIG    1      -31.307  96.934  20.879  0.00  0.00    -0.270 OA
ENDBRANCH   2  13
BRANCH   3  18
ATOM     18  S   LIG    1      -31.811  93.187  20.096  0.00  0.00    -0.097 S 
BRANCH  18  19
ATOM     19  C   LIG    1      -33.496  92.485  19.843  0.00  0.00    +0.080 C 
ATOM     20  C   LIG    1      -34.573  93.541  19.591  0.00  0.00    +0.024 C 
BRANCH  19  21
ATOM     21  C   LIG    1      -33.451  91.469  18.702  0.00  0.00    -0.034 A 
ATOM     22  C   LIG    1      -32.973  91.846  17.436  0.00  0.00    +0.006 A 
ATOM     23  C   LIG    1      -32.990  90.943  16.368  0.00  0.00    +0.020 A 
ATOM     24  C   LIG    1      -33.472  89.650  16.556  0.00  0.00    +0.041 A 
ATOM     25 CL   LIG    1      -33.531  88.556  15.229  0.00  0.00    -0.084 Cl
ATOM     26  C   LIG    1      -33.915  89.244  17.811  0.00  0.00    +0.020 A 
ATOM     27  C   LIG    1      -33.899  90.145  18.879  0.00  0.00    +0.006 A 
ENDBRANCH  19  21
ENDBRANCH  18  19
ENDBRANCH   3  18
TORSDOF 5
ENDMDL
MODEL 8
REMARK VINA RESULT:      -4.8      2.611      3.904
REMARK  Name = pdb/CHEMBL209466.pdb
REMARK                            x       y       z     vdW  Elec       q    Type
REMARK                         _______ _______ _______ _____ _____    ______ ____
ROOT
ATOM      1  C   LIG    1      -37.840  75.699  25.084  0.00  0.00    +0.106 A 
ATOM      2  C   LIG    1      -38.955  76.360  24.557  0.00  0.00    +0.098 A 
ATOM      3  C   LIG    1      -39.931  75.367  24.167  0.00  0.00    +0.121 A 
ATOM      4  N   LIG    1      -39.625  74.094  24.377  0.00  0.00    -0.202 NA
ATOM      5  S   LIG    1      -38.133  74.019  25.055  0.00  0.00    +0.029 S 
ENDROOT
BRANCH   1  10
ATOM      6  C   LIG    1      -34.662  77.376  28.412  0.00  0.00    +0.129 C 
ATOM      7  N   LIG    1      -35.100  77.002  27.084  0.00  0.00    -0.302 N 
ATOM      8  H   LIG    1      -34.392  76.763  26.406  0.00  0.00    +0.150 HD
ATOM      9  C   LIG    1      -36.371  76.492  26.906  0.00  0.00    +0.304 C 
ATOM     10  N   LIG    1      -36.638  76.205  25.576  0.00  0.00    -0.262 N 
ATOM     11  H   LIG    1      -35.948  76.484  24.883  0.00  0.00    +0.157 HD
ATOM     12  O   LIG    1      -37.138  76.371  27.853  0.00  0.00    -0.253 OA
ENDBRANCH   1  10
BRANCH   2  13
ATOM     13  C   LIG    1      -39.050  77.819  24.470  0.00  0.00    +0.246 C 
ATOM     14  N   LIG    1      -39.221  78.363  23.227  0.00  0.00    -0.325 N 
ATOM     15  H   LIG    1      -39.354  79.364  23.143  0.00  0.00    +0.145 HD
ATOM     16  H   LIG    1      -39.378  77.805  22.402  0.00  0.00    +0.145 HD
ATOM     17  O   LIG    1      -38.973  78.545  25.456  0.00  0.00    -0.270 OA
ENDBRANCH   2  13
BRANCH   3  18
ATOM     18  S   LIG    1      -41.549  75.654  23.526  0.00  0.00    -0.097 S 
BRANCH  18  19
ATOM     19  C   LIG    1      -42.466  74.142  24.048  0.00  0.00    +0.080 C 
ATOM     20  C   LIG    1      -43.723  74.437  24.867  0.00  0.00    +0.024 C 
BRANCH  19  21
ATOM     21  C   LIG    1      -42.802  73.307  22.813  0.00  0.00    -0.034 A 
ATOM     22  C   LIG    1      -42.143  72.088  22.582  0.00  0.00    +0.006 A 
ATOM     23  C   LIG    1      -42.394  71.350  21.421  0.00  0.00    +0.020 A 
ATOM     24  C   LIG    1      -43.316  71.814  20.486  0.00  0.00    +0.041 A 
ATOM     25 CL   LIG    1      -43.590  70.923  19.038  0.00  0.00    -0.084 Cl
ATOM     26  C   LIG    1      -44.008  72.999  20.713  0.00  0.00    +0.020 A 
ATOM     27  C   LIG    1      -43.757  73.738  21.872  0.00  0.00    +0.006 A 
ENDBRANCH  19  21
ENDBRANCH  18  19
ENDBRANCH   3  18
TORSDOF 5
ENDMDL
MODEL 9
REMARK VINA RESULT:      -4.7      3.856      4.391
REMARK  Name = pdb/CHEMBL209466.pdb
REMARK                            x       y       z     vdW  Elec       q    Type
REMARK                         _______ _______ _______ _____ _____    ______ ____
ROOT
ATOM      1  C   LIG    1      -39.104  77.017  23.977  0.00  0.00    +0.106 A 
ATOM      2  C   LIG    1      -40.212  76.200  24.223  0.00  0.00    +0.098 A 
ATOM      3  C   LIG    1      -39.768  75.039  24.962  0.00  0.00    +0.121 A 
ATOM      4  N   LIG    1      -38.481  74.968  25.269  0.00  0.00    -0.202 NA
ATOM      5  S   LIG    1      -37.725  76.297  24.677  0.00  0.00    +0.029 S 
ENDROOT
BRANCH   1  10
ATOM      6  C   LIG    1      -39.740  81.798  23.129  0.00  0.00    +0.129 C 
ATOM      7  N   LIG    1      -39.272  80.462  22.831  0.00  0.00    -0.302 N 
ATOM      8  H   LIG    1      -38.495  80.367  22.195  0.00  0.00    +0.150 HD
ATOM      9  C   LIG    1      -39.499  79.445  23.737  0.00  0.00    +0.304 C 
ATOM     10  N   LIG    1      -39.007  78.227  23.292  0.00  0.00    -0.262 N 
ATOM     11  H   LIG    1      -38.642  78.182  22.344  0.00  0.00    +0.157 HD
ATOM     12  O   LIG    1      -40.108  79.656  24.779  0.00  0.00    -0.253 OA
ENDBRANCH   1  10
BRANCH   2  13
ATOM     13  C   LIG    1      -41.569  76.544  23.789  0.00  0.00    +0.246 C 
ATOM     14  N   LIG    1      -42.304  77.353  24.611  0.00  0.00    -0.325 N 
ATOM     15  H   LIG    1      -43.220  77.659  24.307  0.00  0.00    +0.145 HD
ATOM     16  H   LIG    1      -41.920  77.789  25.436  0.00  0.00    +0.145 HD
ATOM     17  O   LIG    1      -42.051  76.128  22.740  0.00  0.00    -0.270 OA
ENDBRANCH   2  13
BRANCH   3  18
ATOM     18  S   LIG    1      -40.767  73.734  25.603  0.00  0.00    -0.097 S 
BRANCH  18  19
ATOM     19  C   LIG    1      -40.027  72.237  24.823  0.00  0.00    +0.080 C 
ATOM     20  C   LIG    1      -39.896  71.047  25.774  0.00  0.00    +0.024 C 
BRANCH  19  21
ATOM     21  C   LIG    1      -40.843  71.860  23.587  0.00  0.00    -0.034 A 
ATOM     22  C   LIG    1      -40.592  70.652  22.913  0.00  0.00    +0.006 A 
ATOM     23  C   LIG    1      -41.286  70.330  21.743  0.00  0.00    +0.020 A 
ATOM     24  C   LIG    1      -42.248  71.203  21.240  0.00  0.00    +0.041 A 
ATOM     25 CL   LIG    1      -43.069  70.822  19.776  0.00  0.00    -0.084 Cl
ATOM     26  C   LIG    1      -42.539  72.386  21.912  0.00  0.00    +0.020 A 
ATOM     27  C   LIG    1      -41.846  72.710  23.081  0.00  0.00    +0.006 A 
ENDBRANCH  19  21
ENDBRANCH  18  19
ENDBRANCH   3  18
TORSDOF 5
ENDMDL
