MODEL 1
REMARK VINA RESULT:      -5.9      0.000      0.000
REMARK  Name = pdb/CHEMBL3676094.pdb
REMARK                            x       y       z     vdW  Elec       q    Type
REMARK                         _______ _______ _______ _____ _____    ______ ____
ROOT
ATOM      1  C   LIG    1      -23.784  79.603  34.992  0.00  0.00    +0.126 A 
ATOM      2  N   LIG    1      -23.863  79.046  33.793  0.00  0.00    -0.212 NA
ATOM      3  C   LIG    1      -24.934  78.217  33.525  0.00  0.00    +0.170 A 
ATOM      4  C   LIG    1      -25.347  77.524  32.385  0.00  0.00    +0.100 A 
ATOM      5  C   LIG    1      -26.491  76.814  32.807  0.00  0.00    +0.150 A 
ATOM      6  N   LIG    1      -26.822  77.042  34.075  0.00  0.00    -0.173 NA
ATOM      7  N   LIG    1      -25.894  77.929  34.499  0.00  0.00    -0.221 N 
ATOM      8  C   LIG    1      -25.852  78.548  35.733  0.00  0.00    +0.118 A 
ATOM      9  C   LIG    1      -24.866  79.399  36.028  0.00  0.00    +0.063 A 
ENDROOT
BRANCH   1  11
ATOM     10  C   LIG    1      -21.418  79.925  35.940  0.00  0.00    +0.110 C 
ATOM     11  N   LIG    1      -22.680  80.388  35.312  0.00  0.00    -0.308 N 
ATOM     12  C   LIG    1      -22.734  81.849  35.287  0.00  0.00    +0.107 C 
ATOM     13  C   LIG    1      -21.712  82.277  36.332  0.00  0.00    +0.021 C 
ATOM     14  C   LIG    1      -20.630  81.221  36.204  0.00  0.00    +0.029 C 
BRANCH  10  19
ATOM     15  C   LIG    1      -20.121  75.220  34.759  0.00  0.00    +0.152 C 
ATOM     16  N   LIG    1      -20.020  76.651  34.516  0.00  0.00    -0.315 N 
ATOM     17  C   LIG    1      -20.676  77.524  35.393  0.00  0.00    +0.256 A 
ATOM     18  O   LIG    1      -21.286  77.149  36.391  0.00  0.00    -0.267 OA
ATOM     19  C   LIG    1      -20.628  78.993  35.047  0.00  0.00    +0.040 A 
ATOM     20  C   LIG    1      -19.921  79.368  33.964  0.00  0.00    +0.050 A 
ATOM     21  C   LIG    1      -19.225  78.411  33.153  0.00  0.00    +0.140 A 
ATOM     22  F   LIG    1      -18.509  78.858  32.104  0.00  0.00    -0.204 F 
ATOM     23  C   LIG    1      -19.302  77.106  33.423  0.00  0.00    +0.127 A 
ENDBRANCH  10  19
ENDBRANCH   1  11
BRANCH   4  24
ATOM     24  C   LIG    1      -24.802  77.479  31.039  0.00  0.00    +0.249 C 
ATOM     25  N   LIG    1      -23.468  77.790  30.944  0.00  0.00    -0.311 N 
ATOM     26  H   LIG    1      -22.950  77.932  31.816  0.00  0.00    +0.149 HD
ATOM     27  O   LIG    1      -25.500  77.200  30.067  0.00  0.00    -0.270 OA
BRANCH  25  28
ATOM     28  C   LIG    1      -22.751  77.706  29.696  0.00  0.00    +0.108 C 
BRANCH  28  29
ATOM     29  C   LIG    1      -21.960  76.440  29.662  0.00  0.00    +0.006 C 
ATOM     30  C   LIG    1      -21.436  75.804  30.927  0.00  0.00    +0.005 C 
ATOM     31  C   LIG    1      -20.481  76.449  29.964  0.00  0.00    +0.005 C 
ENDBRANCH  28  29
ENDBRANCH  25  28
ENDBRANCH   4  24
TORSDOF 5
ENDMDL
MODEL 2
REMARK VINA RESULT:      -5.3     18.350     21.907
REMARK  Name = pdb/CHEMBL3676094.pdb
REMARK                            x       y       z     vdW  Elec       q    Type
REMARK                         _______ _______ _______ _____ _____    ______ ____
ROOT
ATOM      1  C   LIG    1      -20.270  81.856  14.138  0.00  0.00    +0.126 A 
ATOM      2  N   LIG    1      -20.144  83.174  14.178  0.00  0.00    -0.212 NA
ATOM      3  C   LIG    1      -19.040  83.743  13.578  0.00  0.00    +0.170 A 
ATOM      4  C   LIG    1      -18.625  85.064  13.392  0.00  0.00    +0.100 A 
ATOM      5  C   LIG    1      -17.371  84.948  12.756  0.00  0.00    +0.150 A 
ATOM      6  N   LIG    1      -17.012  83.691  12.513  0.00  0.00    -0.173 NA
ATOM      7  N   LIG    1      -18.050  82.960  12.979  0.00  0.00    -0.221 N 
ATOM      8  C   LIG    1      -18.199  81.590  12.882  0.00  0.00    +0.118 A 
ATOM      9  C   LIG    1      -19.274  80.991  13.401  0.00  0.00    +0.063 A 
ENDROOT
BRANCH   1  11
ATOM     10  C   LIG    1      -22.775  81.592  14.650  0.00  0.00    +0.110 C 
ATOM     11  N   LIG    1      -21.339  81.249  14.794  0.00  0.00    -0.308 N 
ATOM     12  C   LIG    1      -21.140  80.338  15.920  0.00  0.00    +0.107 C 
ATOM     13  C   LIG    1      -22.402  80.499  16.757  0.00  0.00    +0.021 C 
ATOM     14  C   LIG    1      -23.478  80.726  15.711  0.00  0.00    +0.029 C 
BRANCH  10  19
ATOM     15  C   LIG    1      -24.167  83.289  10.134  0.00  0.00    +0.152 C 
ATOM     16  N   LIG    1      -23.991  82.183  11.062  0.00  0.00    -0.315 N 
ATOM     17  C   LIG    1      -23.579  82.469  12.370  0.00  0.00    +0.256 A 
ATOM     18  O   LIG    1      -23.412  83.610  12.793  0.00  0.00    -0.267 OA
ATOM     19  C   LIG    1      -23.313  81.285  13.269  0.00  0.00    +0.040 A 
ATOM     20  C   LIG    1      -23.539  80.052  12.779  0.00  0.00    +0.050 A 
ATOM     21  C   LIG    1      -24.023  79.851  11.444  0.00  0.00    +0.140 A 
ATOM     22  F   LIG    1      -24.260  78.592  11.030  0.00  0.00    -0.204 F 
ATOM     23  C   LIG    1      -24.214  80.888  10.626  0.00  0.00    +0.127 A 
ENDBRANCH  10  19
ENDBRANCH   1  11
BRANCH   4  24
ATOM     24  C   LIG    1      -19.261  86.326  13.732  0.00  0.00    +0.249 C 
ATOM     25  N   LIG    1      -20.453  86.211  14.401  0.00  0.00    -0.311 N 
ATOM     26  H   LIG    1      -20.750  85.274  14.687  0.00  0.00    +0.149 HD
ATOM     27  O   LIG    1      -18.763  87.406  13.421  0.00  0.00    -0.270 OA
BRANCH  25  28
ATOM     28  C   LIG    1      -21.170  87.364  14.890  0.00  0.00    +0.108 C 
BRANCH  28  29
ATOM     29  C   LIG    1      -22.506  87.436  14.226  0.00  0.00    +0.006 C 
ATOM     30  C   LIG    1      -22.677  87.106  12.763  0.00  0.00    +0.005 C 
ATOM     31  C   LIG    1      -22.810  88.528  13.229  0.00  0.00    +0.005 C 
ENDBRANCH  28  29
ENDBRANCH  25  28
ENDBRANCH   4  24
TORSDOF 5
ENDMDL
MODEL 3
REMARK VINA RESULT:      -5.3     18.643     21.716
REMARK  Name = pdb/CHEMBL3676094.pdb
REMARK                            x       y       z     vdW  Elec       q    Type
REMARK                         _______ _______ _______ _____ _____    ______ ____
ROOT
ATOM      1  C   LIG    1      -23.063  86.078  12.166  0.00  0.00    +0.126 A 
ATOM      2  N   LIG    1      -23.609  84.915  12.486  0.00  0.00    -0.212 NA
ATOM      3  C   LIG    1      -24.257  84.202  11.498  0.00  0.00    +0.170 A 
ATOM      4  C   LIG    1      -24.883  82.954  11.472  0.00  0.00    +0.100 A 
ATOM      5  C   LIG    1      -25.398  82.851  10.162  0.00  0.00    +0.150 A 
ATOM      6  N   LIG    1      -25.110  83.898   9.395  0.00  0.00    -0.173 NA
ATOM      7  N   LIG    1      -24.380  84.702  10.199  0.00  0.00    -0.221 N 
ATOM      8  C   LIG    1      -23.767  85.887   9.840  0.00  0.00    +0.118 A 
ATOM      9  C   LIG    1      -23.083  86.592  10.744  0.00  0.00    +0.063 A 
ENDROOT
BRANCH   1  11
ATOM     10  C   LIG    1      -21.680  86.351  14.314  0.00  0.00    +0.110 C 
ATOM     11  N   LIG    1      -22.463  86.850  13.157  0.00  0.00    -0.308 N 
ATOM     12  C   LIG    1      -22.749  88.276  13.308  0.00  0.00    +0.107 C 
ATOM     13  C   LIG    1      -22.546  88.541  14.794  0.00  0.00    +0.021 C 
ATOM     14  C   LIG    1      -21.400  87.612  15.152  0.00  0.00    +0.029 C 
BRANCH  10  19
ATOM     15  C   LIG    1      -19.176  82.107  13.354  0.00  0.00    +0.152 C 
ATOM     16  N   LIG    1      -19.201  83.558  13.448  0.00  0.00    -0.315 N 
ATOM     17  C   LIG    1      -20.368  84.176  13.916  0.00  0.00    +0.256 A 
ATOM     18  O   LIG    1      -21.354  83.555  14.305  0.00  0.00    -0.267 OA
ATOM     19  C   LIG    1      -20.385  85.686  13.902  0.00  0.00    +0.040 A 
ATOM     20  C   LIG    1      -19.274  86.331  13.500  0.00  0.00    +0.050 A 
ATOM     21  C   LIG    1      -18.097  85.618  13.096  0.00  0.00    +0.140 A 
ATOM     22  F   LIG    1      -17.009  86.326  12.739  0.00  0.00    -0.204 F 
ATOM     23  C   LIG    1      -18.088  84.284  13.058  0.00  0.00    +0.127 A 
ENDBRANCH  10  19
ENDBRANCH   1  11
BRANCH   4  24
ATOM     24  C   LIG    1      -25.025  81.930  12.493  0.00  0.00    +0.249 C 
ATOM     25  N   LIG    1      -24.260  82.123  13.617  0.00  0.00    -0.311 N 
ATOM     26  H   LIG    1      -23.735  82.999  13.689  0.00  0.00    +0.149 HD
ATOM     27  O   LIG    1      -25.765  80.960  12.340  0.00  0.00    -0.270 OA
BRANCH  25  28
ATOM     28  C   LIG    1      -24.348  81.250  14.761  0.00  0.00    +0.108 C 
BRANCH  28  29
ATOM     29  C   LIG    1      -22.999  80.680  15.055  0.00  0.00    +0.006 C 
ATOM     30  C   LIG    1      -22.839  79.312  15.672  0.00  0.00    +0.005 C 
ATOM     31  C   LIG    1      -22.520  80.536  16.480  0.00  0.00    +0.005 C 
ENDBRANCH  28  29
ENDBRANCH  25  28
ENDBRANCH   4  24
TORSDOF 5
ENDMDL
MODEL 4
REMARK VINA RESULT:      -5.2      2.110      5.296
REMARK  Name = pdb/CHEMBL3676094.pdb
REMARK                            x       y       z     vdW  Elec       q    Type
REMARK                         _______ _______ _______ _____ _____    ______ ____
ROOT
ATOM      1  C   LIG    1      -20.654  77.041  31.152  0.00  0.00    +0.126 A 
ATOM      2  N   LIG    1      -21.576  77.577  31.937  0.00  0.00    -0.212 NA
ATOM      3  C   LIG    1      -22.887  77.571  31.505  0.00  0.00    +0.170 A 
ATOM      4  C   LIG    1      -24.087  77.992  32.081  0.00  0.00    +0.100 A 
ATOM      5  C   LIG    1      -25.053  77.758  31.080  0.00  0.00    +0.150 A 
ATOM      6  N   LIG    1      -24.555  77.206  29.978  0.00  0.00    -0.173 NA
ATOM      7  N   LIG    1      -23.240  77.056  30.255  0.00  0.00    -0.221 N 
ATOM      8  C   LIG    1      -22.295  76.444  29.453  0.00  0.00    +0.118 A 
ATOM      9  C   LIG    1      -21.021  76.376  29.845  0.00  0.00    +0.063 A 
ENDROOT
BRANCH   1  11
ATOM     10  C   LIG    1      -18.768  77.723  32.759  0.00  0.00    +0.110 C 
ATOM     11  N   LIG    1      -19.315  77.094  31.532  0.00  0.00    -0.308 N 
ATOM     12  C   LIG    1      -18.234  76.737  30.614  0.00  0.00    +0.107 C 
ATOM     13  C   LIG    1      -17.056  77.582  31.079  0.00  0.00    +0.021 C 
ATOM     14  C   LIG    1      -17.241  77.627  32.585  0.00  0.00    +0.029 C 
BRANCH  10  19
ATOM     15  C   LIG    1      -21.313  77.893  37.084  0.00  0.00    +0.152 C 
ATOM     16  N   LIG    1      -20.474  77.163  36.147  0.00  0.00    -0.315 N 
ATOM     17  C   LIG    1      -19.990  77.838  35.020  0.00  0.00    +0.256 A 
ATOM     18  O   LIG    1      -20.190  79.032  34.807  0.00  0.00    -0.267 OA
ATOM     19  C   LIG    1      -19.207  77.016  34.024  0.00  0.00    +0.040 A 
ATOM     20  C   LIG    1      -18.981  75.720  34.308  0.00  0.00    +0.050 A 
ATOM     21  C   LIG    1      -19.460  75.122  35.520  0.00  0.00    +0.140 A 
ATOM     22  F   LIG    1      -19.169  73.829  35.757  0.00  0.00    -0.204 F 
ATOM     23  C   LIG    1      -20.195  75.827  36.382  0.00  0.00    +0.127 A 
ENDBRANCH  10  19
ENDBRANCH   1  11
BRANCH   4  24
ATOM     24  C   LIG    1      -24.379  78.550  33.391  0.00  0.00    +0.249 C 
ATOM     25  N   LIG    1      -23.387  79.339  33.918  0.00  0.00    -0.311 N 
ATOM     26  H   LIG    1      -22.580  79.548  33.324  0.00  0.00    +0.149 HD
ATOM     27  O   LIG    1      -25.432  78.309  33.977  0.00  0.00    -0.270 OA
BRANCH  25  28
ATOM     28  C   LIG    1      -23.551  80.041  35.167  0.00  0.00    +0.108 C 
BRANCH  28  29
ATOM     29  C   LIG    1      -22.783  81.321  35.122  0.00  0.00    +0.006 C 
ATOM     30  C   LIG    1      -21.802  81.689  36.208  0.00  0.00    +0.005 C 
ATOM     31  C   LIG    1      -23.097  82.440  36.085  0.00  0.00    +0.005 C 
ENDBRANCH  28  29
ENDBRANCH  25  28
ENDBRANCH   4  24
TORSDOF 5
ENDMDL
MODEL 5
REMARK VINA RESULT:      -5.2     11.607     15.137
REMARK  Name = pdb/CHEMBL3676094.pdb
REMARK                            x       y       z     vdW  Elec       q    Type
REMARK                         _______ _______ _______ _____ _____    ______ ____
ROOT
ATOM      1  C   LIG    1      -33.068  73.948  29.635  0.00  0.00    +0.126 A 
ATOM      2  N   LIG    1      -34.019  74.658  29.046  0.00  0.00    -0.212 NA
ATOM      3  C   LIG    1      -33.674  75.865  28.473  0.00  0.00    +0.170 A 
ATOM      4  C   LIG    1      -34.390  76.820  27.747  0.00  0.00    +0.100 A 
ATOM      5  C   LIG    1      -33.454  77.849  27.511  0.00  0.00    +0.150 A 
ATOM      6  N   LIG    1      -32.243  77.588  27.993  0.00  0.00    -0.173 NA
ATOM      7  N   LIG    1      -32.369  76.360  28.545  0.00  0.00    -0.221 N 
ATOM      8  C   LIG    1      -31.360  75.604  29.107  0.00  0.00    +0.118 A 
ATOM      9  C   LIG    1      -31.627  74.405  29.631  0.00  0.00    +0.063 A 
ENDROOT
BRANCH   1  11
ATOM     10  C   LIG    1      -34.656  71.986  30.118  0.00  0.00    +0.110 C 
ATOM     11  N   LIG    1      -33.400  72.760  30.281  0.00  0.00    -0.308 N 
ATOM     12  C   LIG    1      -32.626  72.249  31.411  0.00  0.00    +0.107 C 
ATOM     13  C   LIG    1      -33.640  71.465  32.233  0.00  0.00    +0.021 C 
ATOM     14  C   LIG    1      -34.550  70.870  31.174  0.00  0.00    +0.029 C 
BRANCH  10  19
ATOM     15  C   LIG    1      -37.141  71.905  25.757  0.00  0.00    +0.152 C 
ATOM     16  N   LIG    1      -36.074  71.398  26.605  0.00  0.00    -0.315 N 
ATOM     17  C   LIG    1      -35.985  71.873  27.920  0.00  0.00    +0.256 A 
ATOM     18  O   LIG    1      -36.795  72.654  28.414  0.00  0.00    -0.267 OA
ATOM     19  C   LIG    1      -34.805  71.397  28.732  0.00  0.00    +0.040 A 
ATOM     20  C   LIG    1      -33.957  70.517  28.167  0.00  0.00    +0.050 A 
ATOM     21  C   LIG    1      -34.158  70.032  26.832  0.00  0.00    +0.140 A 
ATOM     22  F   LIG    1      -33.292  69.127  26.340  0.00  0.00    -0.204 F 
ATOM     23  C   LIG    1      -35.171  70.485  26.089  0.00  0.00    +0.127 A 
ENDBRANCH  10  19
ENDBRANCH   1  11
BRANCH   4  24
ATOM     24  C   LIG    1      -35.769  76.841  27.289  0.00  0.00    +0.249 C 
ATOM     25  N   LIG    1      -36.284  75.617  26.945  0.00  0.00    -0.311 N 
ATOM     26  H   LIG    1      -35.706  74.791  27.122  0.00  0.00    +0.149 HD
ATOM     27  O   LIG    1      -36.407  77.889  27.206  0.00  0.00    -0.270 OA
BRANCH  25  28
ATOM     28  C   LIG    1      -37.663  75.449  26.556  0.00  0.00    +0.108 C 
BRANCH  28  29
ATOM     29  C   LIG    1      -37.773  75.534  25.069  0.00  0.00    +0.006 C 
ATOM     30  C   LIG    1      -38.229  76.800  24.384  0.00  0.00    +0.005 C 
ATOM     31  C   LIG    1      -39.126  75.596  24.401  0.00  0.00    +0.005 C 
ENDBRANCH  28  29
ENDBRANCH  25  28
ENDBRANCH   4  24
TORSDOF 5
ENDMDL
MODEL 6
REMARK VINA RESULT:      -5.1      6.853     11.020
REMARK  Name = pdb/CHEMBL3676094.pdb
REMARK                            x       y       z     vdW  Elec       q    Type
REMARK                         _______ _______ _______ _____ _____    ______ ____
ROOT
ATOM      1  C   LIG    1      -31.785  75.544  31.069  0.00  0.00    +0.126 A 
ATOM      2  N   LIG    1      -30.491  75.824  31.101  0.00  0.00    -0.212 NA
ATOM      3  C   LIG    1      -29.986  76.460  32.217  0.00  0.00    +0.170 A 
ATOM      4  C   LIG    1      -28.700  76.849  32.598  0.00  0.00    +0.100 A 
ATOM      5  C   LIG    1      -28.888  77.508  33.831  0.00  0.00    +0.150 A 
ATOM      6  N   LIG    1      -30.153  77.521  34.240  0.00  0.00    -0.173 NA
ATOM      7  N   LIG    1      -30.815  76.846  33.274  0.00  0.00    -0.221 N 
ATOM      8  C   LIG    1      -32.155  76.510  33.276  0.00  0.00    +0.118 A 
ATOM      9  C   LIG    1      -32.686  75.849  32.245  0.00  0.00    +0.063 A 
ENDROOT
BRANCH   1  11
ATOM     10  C   LIG    1      -33.578  75.383  29.235  0.00  0.00    +0.110 C 
ATOM     11  N   LIG    1      -32.334  74.965  29.928  0.00  0.00    -0.308 N 
ATOM     12  C   LIG    1      -31.862  73.684  29.406  0.00  0.00    +0.107 C 
ATOM     13  C   LIG    1      -33.084  73.088  28.719  0.00  0.00    +0.021 C 
ATOM     14  C   LIG    1      -33.785  74.309  28.151  0.00  0.00    +0.029 C 
BRANCH  10  19
ATOM     15  C   LIG    1      -34.569  80.297  29.518  0.00  0.00    +0.152 C 
ATOM     16  N   LIG    1      -33.990  79.170  28.803  0.00  0.00    -0.315 N 
ATOM     17  C   LIG    1      -34.168  77.884  29.329  0.00  0.00    +0.256 A 
ATOM     18  O   LIG    1      -34.835  77.650  30.334  0.00  0.00    -0.267 OA
ATOM     19  C   LIG    1      -33.466  76.757  28.611  0.00  0.00    +0.040 A 
ATOM     20  C   LIG    1      -32.771  77.049  27.495  0.00  0.00    +0.050 A 
ATOM     21  C   LIG    1      -32.693  78.388  26.988  0.00  0.00    +0.140 A 
ATOM     22  F   LIG    1      -32.010  78.605  25.849  0.00  0.00    -0.204 F 
ATOM     23  C   LIG    1      -33.268  79.399  27.644  0.00  0.00    +0.127 A 
ENDBRANCH  10  19
ENDBRANCH   1  11
BRANCH   4  24
ATOM     24  C   LIG    1      -27.411  76.664  31.952  0.00  0.00    +0.249 C 
ATOM     25  N   LIG    1      -26.838  75.433  32.147  0.00  0.00    -0.311 N 
ATOM     26  H   LIG    1      -27.389  74.724  32.638  0.00  0.00    +0.149 HD
ATOM     27  O   LIG    1      -26.880  77.560  31.299  0.00  0.00    -0.270 OA
BRANCH  25  28
ATOM     28  C   LIG    1      -25.603  75.054  31.504  0.00  0.00    +0.108 C 
BRANCH  28  29
ATOM     29  C   LIG    1      -25.234  73.667  31.917  0.00  0.00    +0.006 C 
ATOM     30  C   LIG    1      -23.806  73.183  31.860  0.00  0.00    +0.005 C 
ATOM     31  C   LIG    1      -24.815  72.645  30.888  0.00  0.00    +0.005 C 
ENDBRANCH  28  29
ENDBRANCH  25  28
ENDBRANCH   4  24
TORSDOF 5
ENDMDL
MODEL 7
REMARK VINA RESULT:      -5.1     12.761     16.170
REMARK  Name = pdb/CHEMBL3676094.pdb
REMARK                            x       y       z     vdW  Elec       q    Type
REMARK                         _______ _______ _______ _____ _____    ______ ____
ROOT
ATOM      1  C   LIG    1      -34.535  79.929  28.287  0.00  0.00    +0.126 A 
ATOM      2  N   LIG    1      -35.134  80.725  27.415  0.00  0.00    -0.212 NA
ATOM      3  C   LIG    1      -35.762  81.860  27.888  0.00  0.00    +0.170 A 
ATOM      4  C   LIG    1      -36.429  82.916  27.264  0.00  0.00    +0.100 A 
ATOM      5  C   LIG    1      -36.888  83.715  28.332  0.00  0.00    +0.150 A 
ATOM      6  N   LIG    1      -36.532  83.259  29.529  0.00  0.00    -0.173 NA
ATOM      7  N   LIG    1      -35.811  82.150  29.254  0.00  0.00    -0.221 N 
ATOM      8  C   LIG    1      -35.142  81.356  30.166  0.00  0.00    +0.118 A 
ATOM      9  C   LIG    1      -34.476  80.274  29.757  0.00  0.00    +0.063 A 
ENDROOT
BRANCH   1  11
ATOM     10  C   LIG    1      -34.316  77.369  28.271  0.00  0.00    +0.110 C 
ATOM     11  N   LIG    1      -33.953  78.743  27.846  0.00  0.00    -0.308 N 
ATOM     12  C   LIG    1      -32.714  78.730  27.070  0.00  0.00    +0.107 C 
ATOM     13  C   LIG    1      -32.066  77.398  27.426  0.00  0.00    +0.021 C 
ATOM     14  C   LIG    1      -33.258  76.474  27.598  0.00  0.00    +0.029 C 
BRANCH  10  19
ATOM     15  C   LIG    1      -39.213  77.088  29.344  0.00  0.00    +0.152 C 
ATOM     16  N   LIG    1      -38.112  76.852  28.423  0.00  0.00    -0.315 N 
ATOM     17  C   LIG    1      -36.809  77.135  28.854  0.00  0.00    +0.256 A 
ATOM     18  O   LIG    1      -36.541  77.519  29.990  0.00  0.00    -0.267 OA
ATOM     19  C   LIG    1      -35.709  76.969  27.834  0.00  0.00    +0.040 A 
ATOM     20  C   LIG    1      -36.039  76.514  26.611  0.00  0.00    +0.050 A 
ATOM     21  C   LIG    1      -37.393  76.188  26.271  0.00  0.00    +0.140 A 
ATOM     22  F   LIG    1      -37.648  75.705  25.041  0.00  0.00    -0.204 F 
ATOM     23  C   LIG    1      -38.380  76.377  27.150  0.00  0.00    +0.127 A 
ENDBRANCH  10  19
ENDBRANCH   1  11
BRANCH   4  24
ATOM     24  C   LIG    1      -36.650  83.215  25.860  0.00  0.00    +0.249 C 
ATOM     25  N   LIG    1      -37.873  82.829  25.371  0.00  0.00    -0.311 N 
ATOM     26  H   LIG    1      -38.555  82.457  26.037  0.00  0.00    +0.149 HD
ATOM     27  O   LIG    1      -35.789  83.758  25.170  0.00  0.00    -0.270 OA
BRANCH  25  28
ATOM     28  C   LIG    1      -38.287  83.130  24.023  0.00  0.00    +0.108 C 
BRANCH  28  29
ATOM     29  C   LIG    1      -39.605  82.480  23.752  0.00  0.00    +0.006 C 
ATOM     30  C   LIG    1      -39.692  81.124  23.095  0.00  0.00    +0.005 C 
ATOM     31  C   LIG    1      -40.120  82.349  22.339  0.00  0.00    +0.005 C 
ENDBRANCH  28  29
ENDBRANCH  25  28
ENDBRANCH   4  24
TORSDOF 5
ENDMDL
MODEL 8
REMARK VINA RESULT:      -5.1      2.594      4.888
REMARK  Name = pdb/CHEMBL3676094.pdb
REMARK                            x       y       z     vdW  Elec       q    Type
REMARK                         _______ _______ _______ _____ _____    ______ ____
ROOT
ATOM      1  C   LIG    1      -20.528  79.040  33.809  0.00  0.00    +0.126 A 
ATOM      2  N   LIG    1      -21.083  78.442  32.766  0.00  0.00    -0.212 NA
ATOM      3  C   LIG    1      -20.258  77.808  31.859  0.00  0.00    +0.170 A 
ATOM      4  C   LIG    1      -20.499  77.057  30.707  0.00  0.00    +0.100 A 
ATOM      5  C   LIG    1      -19.212  76.754  30.215  0.00  0.00    +0.150 A 
ATOM      6  N   LIG    1      -18.228  77.220  30.977  0.00  0.00    -0.173 NA
ATOM      7  N   LIG    1      -18.868  77.828  32.001  0.00  0.00    -0.221 N 
ATOM      8  C   LIG    1      -18.282  78.400  33.114  0.00  0.00    +0.118 A 
ATOM      9  C   LIG    1      -19.037  78.982  34.048  0.00  0.00    +0.063 A 
ENDROOT
BRANCH   1  11
ATOM     10  C   LIG    1      -22.809  79.679  34.805  0.00  0.00    +0.110 C 
ATOM     11  N   LIG    1      -21.331  79.745  34.703  0.00  0.00    -0.308 N 
ATOM     12  C   LIG    1      -20.810  80.850  35.506  0.00  0.00    +0.107 C 
ATOM     13  C   LIG    1      -22.017  81.753  35.724  0.00  0.00    +0.021 C 
ATOM     14  C   LIG    1      -23.165  80.767  35.835  0.00  0.00    +0.029 C 
BRANCH  10  19
ATOM     15  C   LIG    1      -26.218  76.013  34.409  0.00  0.00    +0.152 C 
ATOM     16  N   LIG    1      -25.019  76.553  35.031  0.00  0.00    -0.315 N 
ATOM     17  C   LIG    1      -24.606  77.844  34.674  0.00  0.00    +0.256 A 
ATOM     18  O   LIG    1      -25.234  78.567  33.905  0.00  0.00    -0.267 OA
ATOM     19  C   LIG    1      -23.304  78.325  35.267  0.00  0.00    +0.040 A 
ATOM     20  C   LIG    1      -22.661  77.517  36.131  0.00  0.00    +0.050 A 
ATOM     21  C   LIG    1      -23.188  76.232  36.491  0.00  0.00    +0.140 A 
ATOM     22  F   LIG    1      -22.512  75.489  37.387  0.00  0.00    -0.204 F 
ATOM     23  C   LIG    1      -24.313  75.778  35.934  0.00  0.00    +0.127 A 
ENDBRANCH  10  19
ENDBRANCH   1  11
BRANCH   4  24
ATOM     24  C   LIG    1      -21.740  76.631  30.082  0.00  0.00    +0.249 C 
ATOM     25  N   LIG    1      -22.804  76.499  30.938  0.00  0.00    -0.311 N 
ATOM     26  H   LIG    1      -22.673  76.794  31.909  0.00  0.00    +0.149 HD
ATOM     27  O   LIG    1      -21.810  76.394  28.877  0.00  0.00    -0.270 OA
BRANCH  25  28
ATOM     28  C   LIG    1      -24.128  76.171  30.468  0.00  0.00    +0.108 C 
BRANCH  28  29
ATOM     29  C   LIG    1      -24.656  75.008  31.242  0.00  0.00    +0.006 C 
ATOM     30  C   LIG    1      -23.761  74.191  32.143  0.00  0.00    +0.005 C 
ATOM     31  C   LIG    1      -24.275  73.597  30.864  0.00  0.00    +0.005 C 
ENDBRANCH  28  29
ENDBRANCH  25  28
ENDBRANCH   4  24
TORSDOF 5
ENDMDL
MODEL 9
REMARK VINA RESULT:      -5.1      2.226      5.356
REMARK  Name = pdb/CHEMBL3676094.pdb
REMARK                            x       y       z     vdW  Elec       q    Type
REMARK                         _______ _______ _______ _____ _____    ______ ____
ROOT
ATOM      1  C   LIG    1      -22.980  77.140  32.369  0.00  0.00    +0.126 A 
ATOM      2  N   LIG    1      -22.887  78.234  33.109  0.00  0.00    -0.212 NA
ATOM      3  C   LIG    1      -23.902  78.508  34.002  0.00  0.00    +0.170 A 
ATOM      4  C   LIG    1      -24.101  79.517  34.948  0.00  0.00    +0.100 A 
ATOM      5  C   LIG    1      -25.378  79.246  35.482  0.00  0.00    +0.150 A 
ATOM      6  N   LIG    1      -25.946  78.156  34.975  0.00  0.00    -0.173 NA
ATOM      7  N   LIG    1      -25.028  77.685  34.102  0.00  0.00    -0.221 N 
ATOM      8  C   LIG    1      -25.108  76.513  33.376  0.00  0.00    +0.118 A 
ATOM      9  C   LIG    1      -24.130  76.173  32.534  0.00  0.00    +0.063 A 
ENDROOT
BRANCH   1  11
ATOM     10  C   LIG    1      -20.645  77.467  31.346  0.00  0.00    +0.110 C 
ATOM     11  N   LIG    1      -22.004  76.875  31.411  0.00  0.00    -0.308 N 
ATOM     12  C   LIG    1      -22.303  76.142  30.182  0.00  0.00    +0.107 C 
ATOM     13  C   LIG    1      -21.303  76.687  29.171  0.00  0.00    +0.021 C 
ATOM     14  C   LIG    1      -20.070  76.946  30.016  0.00  0.00    +0.029 C 
BRANCH  10  19
ATOM     15  C   LIG    1      -18.103  78.783  35.471  0.00  0.00    +0.152 C 
ATOM     16  N   LIG    1      -18.528  77.759  34.529  0.00  0.00    -0.315 N 
ATOM     17  C   LIG    1      -19.263  78.153  33.404  0.00  0.00    +0.256 A 
ATOM     18  O   LIG    1      -19.521  79.324  33.139  0.00  0.00    -0.267 OA
ATOM     19  C   LIG    1      -19.769  77.048  32.507  0.00  0.00    +0.040 A 
ATOM     20  C   LIG    1      -19.437  75.779  32.812  0.00  0.00    +0.050 A 
ATOM     21  C   LIG    1      -18.624  75.469  33.953  0.00  0.00    +0.140 A 
ATOM     22  F   LIG    1      -18.302  74.182  34.181  0.00  0.00    -0.204 F 
ATOM     23  C   LIG    1      -18.214  76.434  34.779  0.00  0.00    +0.127 A 
ENDBRANCH  10  19
ENDBRANCH   1  11
BRANCH   4  24
ATOM     24  C   LIG    1      -23.255  80.625  35.360  0.00  0.00    +0.249 C 
ATOM     25  N   LIG    1      -21.908  80.416  35.198  0.00  0.00    -0.311 N 
ATOM     26  H   LIG    1      -21.614  79.558  34.724  0.00  0.00    +0.149 HD
ATOM     27  O   LIG    1      -23.725  81.657  35.832  0.00  0.00    -0.270 OA
BRANCH  25  28
ATOM     28  C   LIG    1      -20.936  81.446  35.474  0.00  0.00    +0.108 C 
BRANCH  28  29
ATOM     29  C   LIG    1      -20.269  81.161  36.780  0.00  0.00    +0.006 C 
ATOM     30  C   LIG    1      -21.059  81.065  38.063  0.00  0.00    +0.005 C 
ATOM     31  C   LIG    1      -20.149  82.238  37.832  0.00  0.00    +0.005 C 
ENDBRANCH  28  29
ENDBRANCH  25  28
ENDBRANCH   4  24
TORSDOF 5
ENDMDL
