MODEL 1
REMARK VINA RESULT:      -5.5      0.000      0.000
REMARK  Name = pdb/CHEMBL3928158.pdb
REMARK                            x       y       z     vdW  Elec       q    Type
REMARK                         _______ _______ _______ _____ _____    ______ ____
ROOT
ATOM      1  C   LIG    1      -23.947  78.929  15.419  0.00  0.00    +0.086 A 
ATOM      2  C   LIG    1      -23.625  80.254  15.767  0.00  0.00    +0.042 A 
ATOM      3  C   LIG    1      -22.347  80.877  15.681  0.00  0.00    +0.042 A 
ATOM      4  C   LIG    1      -21.348  79.947  15.527  0.00  0.00    +0.122 A 
ATOM      5  N   LIG    1      -21.542  78.607  15.313  0.00  0.00    -0.260 NA
ATOM      6  C   LIG    1      -22.824  78.147  15.223  0.00  0.00    +0.138 A 
ENDROOT
BRANCH   1   8
ATOM      7  C   LIG    1      -26.141  78.208  14.515  0.00  0.00    +0.210 C 
ATOM      8  N   LIG    1      -25.225  78.317  15.426  0.00  0.00    -0.214 NA
BRANCH   7   9
ATOM      9  O   LIG    1      -27.241  77.468  14.885  0.00  0.00    -0.494 OA
ATOM     10  H   LIG    1      -27.337  77.330  15.844  0.00  0.00    +0.293 HD
ENDBRANCH   7   9
BRANCH   7  11
ATOM     11  C   LIG    1      -26.346  78.708  13.103  0.00  0.00    +0.239 C 
BRANCH  11  14
ATOM     12  C   LIG    1      -23.788  77.701  11.558  0.00  0.00    +0.065 C 
ATOM     13  C   LIG    1      -24.125  79.120  11.950  0.00  0.00    +0.037 A 
ATOM     14  N   LIG    1      -25.304  79.523  12.535  0.00  0.00    -0.259 N 
ATOM     15  N   LIG    1      -25.483  80.858  12.550  0.00  0.00    -0.167 NA
ATOM     16  C   LIG    1      -24.415  81.358  11.905  0.00  0.00    +0.165 A 
ATOM     17  C   LIG    1      -23.499  80.309  11.606  0.00  0.00    +0.056 A 
BRANCH  16  18
ATOM     18  C   LIG    1      -24.307  82.820  11.539  0.00  0.00    +0.436 C 
ATOM     19  F   LIG    1      -24.208  83.623  12.631  0.00  0.00    -0.164 F 
ATOM     20  F   LIG    1      -25.373  83.266  10.817  0.00  0.00    -0.164 F 
ATOM     21  F   LIG    1      -23.209  83.071  10.772  0.00  0.00    -0.164 F 
ENDBRANCH  16  18
ENDBRANCH  11  14
ENDBRANCH   7  11
ENDBRANCH   1   8
BRANCH   3  22
ATOM     22  C   LIG    1      -22.128  82.409  15.875  0.00  0.00    +0.197 C 
ATOM     23  O   LIG    1      -22.379  82.858  17.025  0.00  0.00    -0.287 OA
BRANCH  22  24
ATOM     24  C   LIG    1      -21.703  83.396  14.810  0.00  0.00    +0.049 A 
ATOM     25  C   LIG    1      -21.037  83.251  13.510  0.00  0.00    +0.032 A 
ATOM     26  C   LIG    1      -20.531  82.130  12.814  0.00  0.00    +0.121 A 
ATOM     27  N   LIG    1      -19.986  82.241  11.573  0.00  0.00    -0.260 NA
ATOM     28  C   LIG    1      -19.938  83.456  10.988  0.00  0.00    +0.151 A 
ATOM     29  C   LIG    1      -20.401  84.627  11.575  0.00  0.00    +0.165 A 
ATOM     30  F   LIG    1      -20.323  85.777  10.894  0.00  0.00    -0.202 F 
ATOM     31  C   LIG    1      -20.951  84.534  12.867  0.00  0.00    +0.089 A 
ATOM     32  N   LIG    1      -21.503  85.463  13.738  0.00  0.00    -0.336 N 
ATOM     33  C   LIG    1      -21.983  84.734  14.823  0.00  0.00    +0.099 A 
BRANCH  32  34
ATOM     34  C   LIG    1      -21.798  86.934  13.637  0.00  0.00    +0.063 C 
ATOM     35  C   LIG    1      -22.580  87.380  14.895  0.00  0.00    +0.036 C 
ATOM     36  C   LIG    1      -22.604  87.517  12.431  0.00  0.00    +0.036 C 
BRANCH  34  37
ATOM     37  C   LIG    1      -20.418  87.706  13.503  0.00  0.00    +0.183 C 
BRANCH  37  38
ATOM     38  O   LIG    1      -19.360  87.318  14.378  0.00  0.00    -0.393 OA
ATOM     39  H   LIG    1      -19.478  86.393  14.644  0.00  0.00    +0.209 HD
ENDBRANCH  37  38
ENDBRANCH  34  37
ENDBRANCH  32  34
ENDBRANCH  22  24
ENDBRANCH   3  22
TORSDOF 10
ENDMDL
MODEL 2
REMARK VINA RESULT:      -5.5     17.998     22.258
REMARK  Name = pdb/CHEMBL3928158.pdb
REMARK                            x       y       z     vdW  Elec       q    Type
REMARK                         _______ _______ _______ _____ _____    ______ ____
ROOT
ATOM      1  C   LIG    1      -39.259  77.313  25.741  0.00  0.00    +0.086 A 
ATOM      2  C   LIG    1      -40.129  76.244  25.461  0.00  0.00    +0.042 A 
ATOM      3  C   LIG    1      -40.671  75.887  24.193  0.00  0.00    +0.042 A 
ATOM      4  C   LIG    1      -40.522  76.906  23.284  0.00  0.00    +0.122 A 
ATOM      5  N   LIG    1      -39.804  78.054  23.494  0.00  0.00    -0.260 NA
ATOM      6  C   LIG    1      -39.164  78.205  24.689  0.00  0.00    +0.138 A 
ENDROOT
BRANCH   1   8
ATOM      7  C   LIG    1      -37.599  77.171  27.579  0.00  0.00    +0.210 C 
ATOM      8  N   LIG    1      -38.652  77.636  26.980  0.00  0.00    -0.214 NA
BRANCH   7   9
ATOM      9  O   LIG    1      -37.284  77.798  28.763  0.00  0.00    -0.494 OA
ATOM     10  H   LIG    1      -37.210  78.767  28.706  0.00  0.00    +0.293 HD
ENDBRANCH   7   9
BRANCH   7  11
ATOM     11  C   LIG    1      -36.593  76.072  27.329  0.00  0.00    +0.239 C 
BRANCH  11  14
ATOM     12  C   LIG    1      -34.248  74.093  28.054  0.00  0.00    +0.065 C 
ATOM     13  C   LIG    1      -34.170  75.594  27.905  0.00  0.00    +0.037 A 
ATOM     14  N   LIG    1      -35.201  76.404  27.487  0.00  0.00    -0.259 N 
ATOM     15  N   LIG    1      -34.824  77.660  27.179  0.00  0.00    -0.167 NA
ATOM     16  C   LIG    1      -33.491  77.673  27.346  0.00  0.00    +0.165 A 
ATOM     17  C   LIG    1      -33.062  76.429  27.894  0.00  0.00    +0.056 A 
BRANCH  16  18
ATOM     18  C   LIG    1      -32.637  78.850  26.933  0.00  0.00    +0.436 C 
ATOM     19  F   LIG    1      -32.132  78.709  25.679  0.00  0.00    -0.164 F 
ATOM     20  F   LIG    1      -31.577  79.053  27.765  0.00  0.00    -0.164 F 
ATOM     21  F   LIG    1      -33.342  80.015  26.939  0.00  0.00    -0.164 F 
ENDBRANCH  16  18
ENDBRANCH  11  14
ENDBRANCH   7  11
ENDBRANCH   1   8
BRANCH   3  22
ATOM     22  C   LIG    1      -41.445  74.557  23.937  0.00  0.00    +0.197 C 
ATOM     23  O   LIG    1      -42.702  74.637  23.985  0.00  0.00    -0.287 OA
BRANCH  22  24
ATOM     24  C   LIG    1      -40.833  73.196  23.696  0.00  0.00    +0.049 A 
ATOM     25  C   LIG    1      -39.591  72.554  24.148  0.00  0.00    +0.032 A 
ATOM     26  C   LIG    1      -38.517  73.006  24.947  0.00  0.00    +0.121 A 
ATOM     27  N   LIG    1      -37.476  72.196  25.276  0.00  0.00    -0.260 NA
ATOM     28  C   LIG    1      -37.477  70.921  24.833  0.00  0.00    +0.151 A 
ATOM     29  C   LIG    1      -38.475  70.367  24.041  0.00  0.00    +0.165 A 
ATOM     30  F   LIG    1      -38.385  69.082  23.677  0.00  0.00    -0.202 F 
ATOM     31  C   LIG    1      -39.551  71.197  23.676  0.00  0.00    +0.089 A 
ATOM     32  N   LIG    1      -40.699  70.994  22.921  0.00  0.00    -0.336 N 
ATOM     33  C   LIG    1      -41.438  72.171  23.023  0.00  0.00    +0.099 A 
BRANCH  32  34
ATOM     34  C   LIG    1      -41.295  69.794  22.239  0.00  0.00    +0.063 C 
ATOM     35  C   LIG    1      -41.758  68.781  23.313  0.00  0.00    +0.036 C 
ATOM     36  C   LIG    1      -40.467  68.950  21.217  0.00  0.00    +0.036 C 
BRANCH  34  37
ATOM     37  C   LIG    1      -42.506  70.288  21.341  0.00  0.00    +0.183 C 
BRANCH  37  38
ATOM     38  O   LIG    1      -42.855  69.489  20.211  0.00  0.00    -0.393 OA
ATOM     39  H   LIG    1      -43.385  70.014  19.592  0.00  0.00    +0.209 HD
ENDBRANCH  37  38
ENDBRANCH  34  37
ENDBRANCH  32  34
ENDBRANCH  22  24
ENDBRANCH   3  22
TORSDOF 10
ENDMDL
MODEL 3
REMARK VINA RESULT:      -5.4     19.219     21.541
REMARK  Name = pdb/CHEMBL3928158.pdb
REMARK                            x       y       z     vdW  Elec       q    Type
REMARK                         _______ _______ _______ _____ _____    ______ ____
ROOT
ATOM      1  C   LIG    1      -21.666  77.455  30.144  0.00  0.00    +0.086 A 
ATOM      2  C   LIG    1      -21.125  77.885  31.369  0.00  0.00    +0.042 A 
ATOM      3  C   LIG    1      -19.753  77.871  31.754  0.00  0.00    +0.042 A 
ATOM      4  C   LIG    1      -19.010  77.073  30.918  0.00  0.00    +0.122 A 
ATOM      5  N   LIG    1      -19.469  76.493  29.764  0.00  0.00    -0.260 NA
ATOM      6  C   LIG    1      -20.759  76.732  29.391  0.00  0.00    +0.138 A 
ENDROOT
BRANCH   1   8
ATOM      7  C   LIG    1      -24.113  77.055  30.215  0.00  0.00    +0.210 C 
ATOM      8  N   LIG    1      -23.015  77.532  29.717  0.00  0.00    -0.214 NA
BRANCH   7   9
ATOM      9  O   LIG    1      -25.258  77.407  29.536  0.00  0.00    -0.494 OA
ATOM     10  H   LIG    1      -26.067  76.963  29.842  0.00  0.00    +0.293 HD
ENDBRANCH   7   9
BRANCH   7  11
ATOM     11  C   LIG    1      -24.492  76.167  31.377  0.00  0.00    +0.239 C 
BRANCH  11  14
ATOM     12  C   LIG    1      -27.181  75.306  32.782  0.00  0.00    +0.065 C 
ATOM     13  C   LIG    1      -26.333  76.518  33.086  0.00  0.00    +0.037 A 
ATOM     14  N   LIG    1      -25.113  76.796  32.514  0.00  0.00    -0.259 N 
ATOM     15  N   LIG    1      -24.428  77.781  33.128  0.00  0.00    -0.167 NA
ATOM     16  C   LIG    1      -25.192  78.133  34.176  0.00  0.00    +0.165 A 
ATOM     17  C   LIG    1      -26.434  77.435  34.123  0.00  0.00    +0.056 A 
BRANCH  16  18
ATOM     18  C   LIG    1      -24.710  79.091  35.241  0.00  0.00    +0.436 C 
ATOM     19  F   LIG    1      -23.779  79.963  34.770  0.00  0.00    -0.164 F 
ATOM     20  F   LIG    1      -24.151  78.456  36.309  0.00  0.00    -0.164 F 
ATOM     21  F   LIG    1      -25.727  79.843  35.745  0.00  0.00    -0.164 F 
ENDBRANCH  16  18
ENDBRANCH  11  14
ENDBRANCH   7  11
ENDBRANCH   1   8
BRANCH   3  22
ATOM     22  C   LIG    1      -19.218  78.572  33.040  0.00  0.00    +0.197 C 
ATOM     23  O   LIG    1      -18.067  79.076  32.951  0.00  0.00    -0.287 OA
BRANCH  22  24
ATOM     24  C   LIG    1      -19.921  78.650  34.377  0.00  0.00    +0.049 A 
ATOM     25  C   LIG    1      -20.320  77.641  35.367  0.00  0.00    +0.032 A 
ATOM     26  C   LIG    1      -20.208  76.232  35.395  0.00  0.00    +0.121 A 
ATOM     27  N   LIG    1      -20.616  75.501  36.467  0.00  0.00    -0.260 NA
ATOM     28  C   LIG    1      -21.133  76.143  37.536  0.00  0.00    +0.151 A 
ATOM     29  C   LIG    1      -21.294  77.520  37.620  0.00  0.00    +0.165 A 
ATOM     30  F   LIG    1      -21.799  78.053  38.739  0.00  0.00    -0.202 F 
ATOM     31  C   LIG    1      -20.894  78.291  36.513  0.00  0.00    +0.089 A 
ATOM     32  N   LIG    1      -20.899  79.654  36.248  0.00  0.00    -0.336 N 
ATOM     33  C   LIG    1      -20.261  79.808  35.019  0.00  0.00    +0.099 A 
BRANCH  32  34
ATOM     34  C   LIG    1      -21.272  80.868  37.053  0.00  0.00    +0.063 C 
ATOM     35  C   LIG    1      -20.263  81.033  38.215  0.00  0.00    +0.036 C 
ATOM     36  C   LIG    1      -22.680  80.996  37.719  0.00  0.00    +0.036 C 
BRANCH  34  37
ATOM     37  C   LIG    1      -21.260  82.125  36.086  0.00  0.00    +0.183 C 
BRANCH  37  38
ATOM     38  O   LIG    1      -22.506  82.772  35.833  0.00  0.00    -0.393 OA
ATOM     39  H   LIG    1      -22.821  83.202  36.643  0.00  0.00    +0.209 HD
ENDBRANCH  37  38
ENDBRANCH  34  37
ENDBRANCH  32  34
ENDBRANCH  22  24
ENDBRANCH   3  22
TORSDOF 10
ENDMDL
MODEL 4
REMARK VINA RESULT:      -5.4     17.725     19.742
REMARK  Name = pdb/CHEMBL3928158.pdb
REMARK                            x       y       z     vdW  Elec       q    Type
REMARK                         _______ _______ _______ _____ _____    ______ ____
ROOT
ATOM      1  C   LIG    1      -34.488  80.483  28.175  0.00  0.00    +0.086 A 
ATOM      2  C   LIG    1      -34.358  81.630  28.979  0.00  0.00    +0.042 A 
ATOM      3  C   LIG    1      -35.126  81.962  30.132  0.00  0.00    +0.042 A 
ATOM      4  C   LIG    1      -36.262  81.193  30.211  0.00  0.00    +0.122 A 
ATOM      5  N   LIG    1      -36.556  80.131  29.398  0.00  0.00    -0.260 NA
ATOM      6  C   LIG    1      -35.650  79.782  28.439  0.00  0.00    +0.138 A 
ENDROOT
BRANCH   1   8
ATOM      7  C   LIG    1      -32.931  79.067  26.861  0.00  0.00    +0.210 C 
ATOM      8  N   LIG    1      -33.684  80.102  27.072  0.00  0.00    -0.214 NA
BRANCH   7   9
ATOM      9  O   LIG    1      -32.351  79.017  25.614  0.00  0.00    -0.494 OA
ATOM     10  H   LIG    1      -32.247  78.123  25.247  0.00  0.00    +0.293 HD
ENDBRANCH   7   9
BRANCH   7  11
ATOM     11  C   LIG    1      -32.485  77.859  27.652  0.00  0.00    +0.239 C 
BRANCH  11  14
ATOM     12  C   LIG    1      -32.210  75.306  29.482  0.00  0.00    +0.065 C 
ATOM     13  C   LIG    1      -33.255  75.569  28.424  0.00  0.00    +0.037 A 
ATOM     14  N   LIG    1      -33.394  76.744  27.722  0.00  0.00    -0.259 N 
ATOM     15  N   LIG    1      -34.546  76.840  27.031  0.00  0.00    -0.167 NA
ATOM     16  C   LIG    1      -35.221  75.716  27.325  0.00  0.00    +0.165 A 
ATOM     17  C   LIG    1      -34.403  74.855  28.112  0.00  0.00    +0.056 A 
BRANCH  16  18
ATOM     18  C   LIG    1      -36.655  75.499  26.897  0.00  0.00    +0.436 C 
ATOM     19  F   LIG    1      -36.900  75.976  25.648  0.00  0.00    -0.164 F 
ATOM     20  F   LIG    1      -37.552  76.096  27.730  0.00  0.00    -0.164 F 
ATOM     21  F   LIG    1      -36.985  74.178  26.880  0.00  0.00    -0.164 F 
ENDBRANCH  16  18
ENDBRANCH  11  14
ENDBRANCH   7  11
ENDBRANCH   1   8
BRANCH   3  22
ATOM     22  C   LIG    1      -34.766  83.139  31.090  0.00  0.00    +0.197 C 
ATOM     23  O   LIG    1      -35.116  82.995  32.291  0.00  0.00    -0.287 OA
BRANCH  22  24
ATOM     24  C   LIG    1      -34.099  84.439  30.700  0.00  0.00    +0.049 A 
ATOM     25  C   LIG    1      -34.399  85.464  29.691  0.00  0.00    +0.032 A 
ATOM     26  C   LIG    1      -35.408  85.572  28.709  0.00  0.00    +0.121 A 
ATOM     27  N   LIG    1      -35.513  86.664  27.903  0.00  0.00    -0.260 NA
ATOM     28  C   LIG    1      -34.631  87.674  28.057  0.00  0.00    +0.151 A 
ATOM     29  C   LIG    1      -33.598  87.678  28.986  0.00  0.00    +0.165 A 
ATOM     30  F   LIG    1      -32.793  88.745  29.066  0.00  0.00    -0.202 F 
ATOM     31  C   LIG    1      -33.463  86.549  29.815  0.00  0.00    +0.089 A 
ATOM     32  N   LIG    1      -32.580  86.211  30.831  0.00  0.00    -0.336 N 
ATOM     33  C   LIG    1      -33.039  85.004  31.352  0.00  0.00    +0.099 A 
BRANCH  32  34
ATOM     34  C   LIG    1      -31.447  86.934  31.505  0.00  0.00    +0.063 C 
ATOM     35  C   LIG    1      -30.998  86.125  32.745  0.00  0.00    +0.036 C 
ATOM     36  C   LIG    1      -31.616  88.401  32.019  0.00  0.00    +0.036 C 
BRANCH  34  37
ATOM     37  C   LIG    1      -30.270  87.097  30.455  0.00  0.00    +0.183 C 
BRANCH  37  38
ATOM     38  O   LIG    1      -29.117  87.829  30.868  0.00  0.00    -0.393 OA
ATOM     39  H   LIG    1      -28.325  87.278  30.765  0.00  0.00    +0.209 HD
ENDBRANCH  37  38
ENDBRANCH  34  37
ENDBRANCH  32  34
ENDBRANCH  22  24
ENDBRANCH   3  22
TORSDOF 10
ENDMDL
MODEL 5
REMARK VINA RESULT:      -5.4      4.234      5.568
REMARK  Name = pdb/CHEMBL3928158.pdb
REMARK                            x       y       z     vdW  Elec       q    Type
REMARK                         _______ _______ _______ _____ _____    ______ ____
ROOT
ATOM      1  C   LIG    1      -24.139  78.761  15.283  0.00  0.00    +0.086 A 
ATOM      2  C   LIG    1      -23.231  79.801  15.554  0.00  0.00    +0.042 A 
ATOM      3  C   LIG    1      -23.437  81.195  15.346  0.00  0.00    +0.042 A 
ATOM      4  C   LIG    1      -24.516  81.423  14.528  0.00  0.00    +0.122 A 
ATOM      5  N   LIG    1      -25.395  80.465  14.094  0.00  0.00    -0.260 NA
ATOM      6  C   LIG    1      -25.208  79.180  14.514  0.00  0.00    +0.138 A 
ENDROOT
BRANCH   1   8
ATOM      7  C   LIG    1      -23.008  76.553  15.318  0.00  0.00    +0.210 C 
ATOM      8  N   LIG    1      -23.980  77.379  15.554  0.00  0.00    -0.214 NA
BRANCH   7   9
ATOM      9  O   LIG    1      -23.201  75.279  15.801  0.00  0.00    -0.494 OA
ATOM     10  H   LIG    1      -22.394  74.829  16.104  0.00  0.00    +0.293 HD
ENDBRANCH   7   9
BRANCH   7  11
ATOM     11  C   LIG    1      -21.672  76.608  14.614  0.00  0.00    +0.239 C 
BRANCH  11  14
ATOM     12  C   LIG    1      -19.673  78.789  15.703  0.00  0.00    +0.065 C 
ATOM     13  C   LIG    1      -19.544  77.288  15.814  0.00  0.00    +0.037 A 
ATOM     14  N   LIG    1      -20.496  76.379  15.412  0.00  0.00    -0.259 N 
ATOM     15  N   LIG    1      -20.277  75.124  15.848  0.00  0.00    -0.167 NA
ATOM     16  C   LIG    1      -19.175  75.209  16.612  0.00  0.00    +0.165 A 
ATOM     17  C   LIG    1      -18.634  76.525  16.532  0.00  0.00    +0.056 A 
BRANCH  16  18
ATOM     18  C   LIG    1      -18.680  74.051  17.448  0.00  0.00    +0.436 C 
ATOM     19  F   LIG    1      -18.560  72.905  16.727  0.00  0.00    -0.164 F 
ATOM     20  F   LIG    1      -19.498  73.771  18.501  0.00  0.00    -0.164 F 
ATOM     21  F   LIG    1      -17.455  74.301  17.987  0.00  0.00    -0.164 F 
ENDBRANCH  16  18
ENDBRANCH  11  14
ENDBRANCH   7  11
ENDBRANCH   1   8
BRANCH   3  22
ATOM     22  C   LIG    1      -22.466  82.292  15.882  0.00  0.00    +0.197 C 
ATOM     23  O   LIG    1      -22.383  82.386  17.135  0.00  0.00    -0.287 OA
BRANCH  22  24
ATOM     24  C   LIG    1      -21.673  83.273  15.047  0.00  0.00    +0.049 A 
ATOM     25  C   LIG    1      -20.496  83.138  14.179  0.00  0.00    +0.032 A 
ATOM     26  C   LIG    1      -19.674  82.038  13.847  0.00  0.00    +0.121 A 
ATOM     27  N   LIG    1      -18.646  82.150  12.963  0.00  0.00    -0.260 NA
ATOM     28  C   LIG    1      -18.415  83.345  12.380  0.00  0.00    +0.151 A 
ATOM     29  C   LIG    1      -19.155  84.494  12.629  0.00  0.00    +0.165 A 
ATOM     30  F   LIG    1      -18.851  85.623  11.977  0.00  0.00    -0.202 F 
ATOM     31  C   LIG    1      -20.210  84.401  13.555  0.00  0.00    +0.089 A 
ATOM     32  N   LIG    1      -21.140  85.312  14.037  0.00  0.00    -0.336 N 
ATOM     33  C   LIG    1      -22.006  84.584  14.850  0.00  0.00    +0.099 A 
BRANCH  32  34
ATOM     34  C   LIG    1      -21.444  86.751  13.722  0.00  0.00    +0.063 C 
ATOM     35  C   LIG    1      -21.958  86.852  12.267  0.00  0.00    +0.036 C 
ATOM     36  C   LIG    1      -20.343  87.855  13.840  0.00  0.00    +0.036 C 
BRANCH  34  37
ATOM     37  C   LIG    1      -22.526  87.266  14.761  0.00  0.00    +0.183 C 
BRANCH  37  38
ATOM     38  O   LIG    1      -22.086  88.165  15.778  0.00  0.00    -0.393 OA
ATOM     39  H   LIG    1      -22.601  88.021  16.587  0.00  0.00    +0.209 HD
ENDBRANCH  37  38
ENDBRANCH  34  37
ENDBRANCH  32  34
ENDBRANCH  22  24
ENDBRANCH   3  22
TORSDOF 10
ENDMDL
MODEL 6
REMARK VINA RESULT:      -5.4     19.731     22.192
REMARK  Name = pdb/CHEMBL3928158.pdb
REMARK                            x       y       z     vdW  Elec       q    Type
REMARK                         _______ _______ _______ _____ _____    ______ ____
ROOT
ATOM      1  C   LIG    1      -22.914  82.669  37.419  0.00  0.00    +0.086 A 
ATOM      2  C   LIG    1      -23.188  81.502  36.683  0.00  0.00    +0.042 A 
ATOM      3  C   LIG    1      -22.240  80.624  36.084  0.00  0.00    +0.042 A 
ATOM      4  C   LIG    1      -20.999  81.208  36.008  0.00  0.00    +0.122 A 
ATOM      5  N   LIG    1      -20.653  82.405  36.576  0.00  0.00    -0.260 NA
ATOM      6  C   LIG    1      -21.599  83.076  37.295  0.00  0.00    +0.138 A 
ENDROOT
BRANCH   1   8
ATOM      7  C   LIG    1      -25.125  83.649  37.976  0.00  0.00    +0.210 C 
ATOM      8  N   LIG    1      -23.840  83.511  38.085  0.00  0.00    -0.214 NA
BRANCH   7   9
ATOM      9  O   LIG    1      -25.689  84.540  38.861  0.00  0.00    -0.494 OA
ATOM     10  H   LIG    1      -25.987  85.377  38.465  0.00  0.00    +0.293 HD
ENDBRANCH   7   9
BRANCH   7  11
ATOM     11  C   LIG    1      -26.214  83.087  37.092  0.00  0.00    +0.239 C 
BRANCH  11  14
ATOM     12  C   LIG    1      -29.349  83.147  37.430  0.00  0.00    +0.065 C 
ATOM     13  C   LIG    1      -28.505  84.021  36.532  0.00  0.00    +0.037 A 
ATOM     14  N   LIG    1      -27.129  84.026  36.496  0.00  0.00    -0.259 N 
ATOM     15  N   LIG    1      -26.600  85.063  35.819  0.00  0.00    -0.167 NA
ATOM     16  C   LIG    1      -27.655  85.803  35.438  0.00  0.00    +0.165 A 
ATOM     17  C   LIG    1      -28.864  85.130  35.780  0.00  0.00    +0.056 A 
BRANCH  16  18
ATOM     18  C   LIG    1      -27.498  87.164  34.800  0.00  0.00    +0.436 C 
ATOM     19  F   LIG    1      -27.438  87.098  33.444  0.00  0.00    -0.164 F 
ATOM     20  F   LIG    1      -26.375  87.816  35.213  0.00  0.00    -0.164 F 
ATOM     21  F   LIG    1      -28.538  87.990  35.103  0.00  0.00    -0.164 F 
ENDBRANCH  16  18
ENDBRANCH  11  14
ENDBRANCH   7  11
ENDBRANCH   1   8
BRANCH   3  22
ATOM     22  C   LIG    1      -22.621  79.237  35.480  0.00  0.00    +0.197 C 
ATOM     23  O   LIG    1      -23.283  78.475  36.233  0.00  0.00    -0.287 OA
BRANCH  22  24
ATOM     24  C   LIG    1      -22.226  78.714  34.117  0.00  0.00    +0.049 A 
ATOM     25  C   LIG    1      -20.935  78.532  33.442  0.00  0.00    +0.032 A 
ATOM     26  C   LIG    1      -19.605  78.813  33.829  0.00  0.00    +0.121 A 
ATOM     27  N   LIG    1      -18.545  78.504  33.035  0.00  0.00    -0.260 NA
ATOM     28  C   LIG    1      -18.773  77.903  31.848  0.00  0.00    +0.151 A 
ATOM     29  C   LIG    1      -20.034  77.580  31.363  0.00  0.00    +0.165 A 
ATOM     30  F   LIG    1      -20.142  76.964  30.179  0.00  0.00    -0.202 F 
ATOM     31  C   LIG    1      -21.143  77.909  32.163  0.00  0.00    +0.089 A 
ATOM     32  N   LIG    1      -22.513  77.740  32.011  0.00  0.00    -0.336 N 
ATOM     33  C   LIG    1      -23.087  78.166  33.207  0.00  0.00    +0.099 A 
BRANCH  32  34
ATOM     34  C   LIG    1      -23.368  77.082  30.964  0.00  0.00    +0.063 C 
ATOM     35  C   LIG    1      -23.229  75.546  31.090  0.00  0.00    +0.036 C 
ATOM     36  C   LIG    1      -23.163  77.383  29.445  0.00  0.00    +0.036 C 
BRANCH  34  37
ATOM     37  C   LIG    1      -24.867  77.552  31.185  0.00  0.00    +0.183 C 
BRANCH  37  38
ATOM     38  O   LIG    1      -25.480  78.307  30.140  0.00  0.00    -0.393 OA
ATOM     39  H   LIG    1      -26.405  78.488  30.367  0.00  0.00    +0.209 HD
ENDBRANCH  37  38
ENDBRANCH  34  37
ENDBRANCH  32  34
ENDBRANCH  22  24
ENDBRANCH   3  22
TORSDOF 10
ENDMDL
MODEL 7
REMARK VINA RESULT:      -5.3     18.310     21.308
REMARK  Name = pdb/CHEMBL3928158.pdb
REMARK                            x       y       z     vdW  Elec       q    Type
REMARK                         _______ _______ _______ _____ _____    ______ ____
ROOT
ATOM      1  C   LIG    1      -24.015  76.994  30.451  0.00  0.00    +0.086 A 
ATOM      2  C   LIG    1      -24.289  75.704  30.939  0.00  0.00    +0.042 A 
ATOM      3  C   LIG    1      -25.545  75.206  31.392  0.00  0.00    +0.042 A 
ATOM      4  C   LIG    1      -26.432  76.230  31.622  0.00  0.00    +0.122 A 
ATOM      5  N   LIG    1      -26.219  77.546  31.307  0.00  0.00    -0.260 NA
ATOM      6  C   LIG    1      -25.045  77.882  30.697  0.00  0.00    +0.138 A 
ENDROOT
BRANCH   1   8
ATOM      7  C   LIG    1      -21.584  77.487  30.399  0.00  0.00    +0.210 C 
ATOM      8  N   LIG    1      -22.792  77.480  29.926  0.00  0.00    -0.214 NA
BRANCH   7   9
ATOM      9  O   LIG    1      -20.632  77.999  29.548  0.00  0.00    -0.494 OA
ATOM     10  H   LIG    1      -19.909  78.482  29.985  0.00  0.00    +0.293 HD
ENDBRANCH   7   9
BRANCH   7  11
ATOM     11  C   LIG    1      -20.913  77.084  31.692  0.00  0.00    +0.239 C 
BRANCH  11  14
ATOM     12  C   LIG    1      -18.477  78.791  32.739  0.00  0.00    +0.065 C 
ATOM     13  C   LIG    1      -19.869  78.722  33.323  0.00  0.00    +0.037 A 
ATOM     14  N   LIG    1      -20.928  78.040  32.769  0.00  0.00    -0.259 N 
ATOM     15  N   LIG    1      -22.122  78.337  33.317  0.00  0.00    -0.167 NA
ATOM     16  C   LIG    1      -21.858  79.288  34.229  0.00  0.00    +0.165 A 
ATOM     17  C   LIG    1      -20.449  79.481  34.329  0.00  0.00    +0.056 A 
BRANCH  16  18
ATOM     18  C   LIG    1      -22.952  80.036  34.955  0.00  0.00    +0.436 C 
ATOM     19  F   LIG    1      -24.154  79.932  34.330  0.00  0.00    -0.164 F 
ATOM     20  F   LIG    1      -22.688  81.367  35.083  0.00  0.00    -0.164 F 
ATOM     21  F   LIG    1      -23.130  79.570  36.222  0.00  0.00    -0.164 F 
ENDBRANCH  16  18
ENDBRANCH  11  14
ENDBRANCH   7  11
ENDBRANCH   1   8
BRANCH   3  22
ATOM     22  C   LIG    1      -25.807  73.701  31.705  0.00  0.00    +0.197 C 
ATOM     23  O   LIG    1      -26.864  73.449  32.341  0.00  0.00    -0.287 OA
BRANCH  22  24
ATOM     24  C   LIG    1      -24.893  72.544  31.369  0.00  0.00    +0.049 A 
ATOM     25  C   LIG    1      -23.504  72.222  31.719  0.00  0.00    +0.032 A 
ATOM     26  C   LIG    1      -22.524  72.905  32.474  0.00  0.00    +0.121 A 
ATOM     27  N   LIG    1      -21.294  72.372  32.706  0.00  0.00    -0.260 NA
ATOM     28  C   LIG    1      -21.008  71.151  32.207  0.00  0.00    +0.151 A 
ATOM     29  C   LIG    1      -21.889  70.388  31.450  0.00  0.00    +0.165 A 
ATOM     30  F   LIG    1      -21.507  69.178  31.023  0.00  0.00    -0.202 F 
ATOM     31  C   LIG    1      -23.159  70.932  31.185  0.00  0.00    +0.089 A 
ATOM     32  N   LIG    1      -24.268  70.470  30.489  0.00  0.00    -0.336 N 
ATOM     33  C   LIG    1      -25.268  71.420  30.686  0.00  0.00    +0.099 A 
BRANCH  32  34
ATOM     34  C   LIG    1      -24.592  69.179  29.789  0.00  0.00    +0.063 C 
ATOM     35  C   LIG    1      -24.621  68.034  30.829  0.00  0.00    +0.036 C 
ATOM     36  C   LIG    1      -23.699  68.645  28.623  0.00  0.00    +0.036 C 
BRANCH  34  37
ATOM     37  C   LIG    1      -25.994  69.348  29.067  0.00  0.00    +0.183 C 
BRANCH  37  38
ATOM     38  O   LIG    1      -25.983  69.614  27.664  0.00  0.00    -0.393 OA
ATOM     39  H   LIG    1      -26.878  69.843  27.368  0.00  0.00    +0.209 HD
ENDBRANCH  37  38
ENDBRANCH  34  37
ENDBRANCH  32  34
ENDBRANCH  22  24
ENDBRANCH   3  22
TORSDOF 10
ENDMDL
MODEL 8
REMARK VINA RESULT:      -5.3      2.937      4.444
REMARK  Name = pdb/CHEMBL3928158.pdb
REMARK                            x       y       z     vdW  Elec       q    Type
REMARK                         _______ _______ _______ _____ _____    ______ ____
ROOT
ATOM      1  C   LIG    1      -20.863  80.200  16.294  0.00  0.00    +0.086 A 
ATOM      2  C   LIG    1      -21.121  81.567  16.089  0.00  0.00    +0.042 A 
ATOM      3  C   LIG    1      -22.372  82.166  15.765  0.00  0.00    +0.042 A 
ATOM      4  C   LIG    1      -23.278  81.225  15.339  0.00  0.00    +0.122 A 
ATOM      5  N   LIG    1      -23.083  79.869  15.371  0.00  0.00    -0.260 NA
ATOM      6  C   LIG    1      -21.910  79.397  15.882  0.00  0.00    +0.138 A 
ENDROOT
BRANCH   1   8
ATOM      7  C   LIG    1      -18.586  79.252  16.022  0.00  0.00    +0.210 C 
ATOM      8  N   LIG    1      -19.643  79.598  16.691  0.00  0.00    -0.214 NA
BRANCH   7   9
ATOM      9  O   LIG    1      -17.558  78.748  16.785  0.00  0.00    -0.494 OA
ATOM     10  H   LIG    1      -17.635  77.802  17.001  0.00  0.00    +0.293 HD
ENDBRANCH   7   9
BRANCH   7  11
ATOM     11  C   LIG    1      -18.166  79.238  14.571  0.00  0.00    +0.239 C 
BRANCH  11  14
ATOM     12  C   LIG    1      -20.527  79.275  12.480  0.00  0.00    +0.065 C 
ATOM     13  C   LIG    1      -19.529  80.374  12.758  0.00  0.00    +0.037 A 
ATOM     14  N   LIG    1      -18.578  80.350  13.754  0.00  0.00    -0.259 N 
ATOM     15  N   LIG    1      -17.985  81.537  13.978  0.00  0.00    -0.167 NA
ATOM     16  C   LIG    1      -18.597  82.394  13.144  0.00  0.00    +0.165 A 
ATOM     17  C   LIG    1      -19.496  81.682  12.298  0.00  0.00    +0.056 A 
BRANCH  16  18
ATOM     18  C   LIG    1      -18.356  83.885  13.198  0.00  0.00    +0.436 C 
ATOM     19  F   LIG    1      -17.108  84.193  13.638  0.00  0.00    -0.164 F 
ATOM     20  F   LIG    1      -19.233  84.534  14.015  0.00  0.00    -0.164 F 
ATOM     21  F   LIG    1      -18.490  84.466  11.973  0.00  0.00    -0.164 F 
ENDBRANCH  16  18
ENDBRANCH  11  14
ENDBRANCH   7  11
ENDBRANCH   1   8
BRANCH   3  22
ATOM     22  C   LIG    1      -22.612  83.707  15.776  0.00  0.00    +0.197 C 
ATOM     23  O   LIG    1      -23.024  84.190  16.864  0.00  0.00    -0.287 OA
BRANCH  22  24
ATOM     24  C   LIG    1      -22.453  84.646  14.602  0.00  0.00    +0.049 A 
ATOM     25  C   LIG    1      -22.425  84.447  13.147  0.00  0.00    +0.032 A 
ATOM     26  C   LIG    1      -22.510  83.292  12.338  0.00  0.00    +0.121 A 
ATOM     27  N   LIG    1      -22.509  83.364  10.980  0.00  0.00    -0.260 NA
ATOM     28  C   LIG    1      -22.436  84.577  10.392  0.00  0.00    +0.151 A 
ATOM     29  C   LIG    1      -22.348  85.779  11.082  0.00  0.00    +0.165 A 
ATOM     30  F   LIG    1      -22.302  86.927  10.396  0.00  0.00    -0.202 F 
ATOM     31  C   LIG    1      -22.328  85.721  12.488  0.00  0.00    +0.089 A 
ATOM     32  N   LIG    1      -22.255  86.689  13.481  0.00  0.00    -0.336 N 
ATOM     33  C   LIG    1      -22.399  86.010  14.689  0.00  0.00    +0.099 A 
BRANCH  32  34
ATOM     34  C   LIG    1      -22.231  88.192  13.467  0.00  0.00    +0.063 C 
ATOM     35  C   LIG    1      -22.603  88.716  14.875  0.00  0.00    +0.036 C 
ATOM     36  C   LIG    1      -23.130  89.006  12.482  0.00  0.00    +0.036 C 
BRANCH  34  37
ATOM     37  C   LIG    1      -20.778  88.659  13.035  0.00  0.00    +0.183 C 
BRANCH  37  38
ATOM     38  O   LIG    1      -20.643  89.295  11.765  0.00  0.00    -0.393 OA
ATOM     39  H   LIG    1      -19.826  89.816  11.746  0.00  0.00    +0.209 HD
ENDBRANCH  37  38
ENDBRANCH  34  37
ENDBRANCH  32  34
ENDBRANCH  22  24
ENDBRANCH   3  22
TORSDOF 10
ENDMDL
MODEL 9
REMARK VINA RESULT:      -5.3     14.358     18.045
REMARK  Name = pdb/CHEMBL3928158.pdb
REMARK                            x       y       z     vdW  Elec       q    Type
REMARK                         _______ _______ _______ _____ _____    ______ ____
ROOT
ATOM      1  C   LIG    1      -35.152  66.517  16.562  0.00  0.00    +0.086 A 
ATOM      2  C   LIG    1      -34.316  66.994  17.588  0.00  0.00    +0.042 A 
ATOM      3  C   LIG    1      -33.714  66.231  18.629  0.00  0.00    +0.042 A 
ATOM      4  C   LIG    1      -34.298  64.993  18.740  0.00  0.00    +0.122 A 
ATOM      5  N   LIG    1      -35.222  64.474  17.871  0.00  0.00    -0.260 NA
ATOM      6  C   LIG    1      -35.588  65.226  16.794  0.00  0.00    +0.138 A 
ENDROOT
BRANCH   1   8
ATOM      7  C   LIG    1      -35.281  67.445  14.264  0.00  0.00    +0.210 C 
ATOM      8  N   LIG    1      -35.697  67.248  15.477  0.00  0.00    -0.214 NA
BRANCH   7   9
ATOM      9  O   LIG    1      -36.137  68.171  13.469  0.00  0.00    -0.494 OA
ATOM     10  H   LIG    1      -36.719  67.638  12.900  0.00  0.00    +0.293 HD
ENDBRANCH   7   9
BRANCH   7  11
ATOM     11  C   LIG    1      -34.052  67.092  13.459  0.00  0.00    +0.239 C 
BRANCH  11  14
ATOM     12  C   LIG    1      -32.250  69.519  14.358  0.00  0.00    +0.065 C 
ATOM     13  C   LIG    1      -31.935  68.047  14.479  0.00  0.00    +0.037 A 
ATOM     14  N   LIG    1      -32.799  67.022  14.165  0.00  0.00    -0.259 N 
ATOM     15  N   LIG    1      -32.399  65.812  14.600  0.00  0.00    -0.167 NA
ATOM     16  C   LIG    1      -31.259  66.044  15.273  0.00  0.00    +0.165 A 
ATOM     17  C   LIG    1      -30.888  67.413  15.132  0.00  0.00    +0.056 A 
BRANCH  16  18
ATOM     18  C   LIG    1      -30.567  64.972  16.083  0.00  0.00    +0.436 C 
ATOM     19  F   LIG    1      -31.222  64.693  17.240  0.00  0.00    -0.164 F 
ATOM     20  F   LIG    1      -29.290  65.307  16.422  0.00  0.00    -0.164 F 
ATOM     21  F   LIG    1      -30.473  63.799  15.396  0.00  0.00    -0.164 F 
ENDBRANCH  16  18
ENDBRANCH  11  14
ENDBRANCH   7  11
ENDBRANCH   1   8
BRANCH   3  22
ATOM     22  C   LIG    1      -32.625  66.802  19.588  0.00  0.00    +0.197 C 
ATOM     23  O   LIG    1      -32.868  66.695  20.819  0.00  0.00    -0.287 OA
BRANCH  22  24
ATOM     24  C   LIG    1      -31.353  67.511  19.179  0.00  0.00    +0.049 A 
ATOM     25  C   LIG    1      -29.937  67.121  19.175  0.00  0.00    +0.032 A 
ATOM     26  C   LIG    1      -29.268  65.945  19.583  0.00  0.00    +0.121 A 
ATOM     27  N   LIG    1      -27.925  65.794  19.433  0.00  0.00    -0.260 NA
ATOM     28  C   LIG    1      -27.215  66.794  18.869  0.00  0.00    +0.151 A 
ATOM     29  C   LIG    1      -27.763  67.993  18.431  0.00  0.00    +0.165 A 
ATOM     30  F   LIG    1      -26.967  68.909  17.865  0.00  0.00    -0.202 F 
ATOM     31  C   LIG    1      -29.149  68.174  18.595  0.00  0.00    +0.089 A 
ATOM     32  N   LIG    1      -30.019  69.209  18.282  0.00  0.00    -0.336 N 
ATOM     33  C   LIG    1      -31.296  68.740  18.583  0.00  0.00    +0.099 A 
BRANCH  32  34
ATOM     34  C   LIG    1      -29.854  70.530  17.584  0.00  0.00    +0.063 C 
ATOM     35  C   LIG    1      -31.243  71.192  17.420  0.00  0.00    +0.036 C 
ATOM     36  C   LIG    1      -29.193  70.622  16.170  0.00  0.00    +0.036 C 
BRANCH  34  37
ATOM     37  C   LIG    1      -28.878  71.429  18.453  0.00  0.00    +0.183 C 
BRANCH  37  38
ATOM     38  O   LIG    1      -29.250  72.790  18.664  0.00  0.00    -0.393 OA
ATOM     39  H   LIG    1      -29.046  73.047  19.576  0.00  0.00    +0.209 HD
ENDBRANCH  37  38
ENDBRANCH  34  37
ENDBRANCH  32  34
ENDBRANCH  22  24
ENDBRANCH   3  22
TORSDOF 10
ENDMDL
