MODEL 1
REMARK VINA RESULT:      -7.0      0.000      0.000
REMARK  Name = pdb/CHEMBL3902763.pdb
REMARK                            x       y       z     vdW  Elec       q    Type
REMARK                         _______ _______ _______ _____ _____    ______ ____
ROOT
ATOM      1  C   LIG    1      -25.327  74.261  31.594  0.00  0.00    +0.098 A 
ATOM      2  C   LIG    1      -25.610  72.989  31.135  0.00  0.00    +0.179 A 
ATOM      3  N   LIG    1      -24.916  72.113  30.336  0.00  0.00    -0.211 NA
ATOM      4  C   LIG    1      -25.427  70.916  30.140  0.00  0.00    +0.126 A 
ATOM      5  C   LIG    1      -26.760  70.510  30.732  0.00  0.00    +0.063 A 
ATOM      6  C   LIG    1      -27.405  71.413  31.476  0.00  0.00    +0.118 A 
ATOM      7  N   LIG    1      -26.848  72.661  31.691  0.00  0.00    -0.220 N 
ATOM      8  N   LIG    1      -27.374  73.670  32.424  0.00  0.00    -0.171 NA
ATOM      9  C   LIG    1      -26.449  74.629  32.365  0.00  0.00    +0.160 A 
ENDROOT
BRANCH   4  10
ATOM     10  N   LIG    1      -24.752  69.993  29.356  0.00  0.00    -0.308 N 
ATOM     11  C   LIG    1      -23.690  70.346  28.406  0.00  0.00    +0.105 C 
ATOM     12  C   LIG    1      -22.726  69.136  28.458  0.00  0.00    +0.029 C 
ATOM     13  C   LIG    1      -23.325  68.155  29.458  0.00  0.00    +0.021 C 
ATOM     14  C   LIG    1      -24.784  68.555  29.559  0.00  0.00    +0.107 C 
BRANCH  11  15
ATOM     15  C   LIG    1      -24.237  70.576  26.993  0.00  0.00    -0.024 A 
ATOM     16  C   LIG    1      -25.440  69.999  26.550  0.00  0.00    +0.043 A 
ATOM     17  C   LIG    1      -25.911  70.232  25.262  0.00  0.00    +0.124 A 
ATOM     18  F   LIG    1      -27.058  69.660  24.868  0.00  0.00    -0.205 F 
ATOM     19  C   LIG    1      -25.215  71.043  24.379  0.00  0.00    +0.038 A 
ATOM     20  C   LIG    1      -24.027  71.638  24.796  0.00  0.00    +0.003 A 
ATOM     21  C   LIG    1      -23.546  71.412  26.094  0.00  0.00    +0.005 A 
ENDBRANCH  11  15
ENDBRANCH   4  10
BRANCH   1  23
ATOM     22  C   LIG    1      -24.108  76.145  30.623  0.00  0.00    +0.268 C 
ATOM     23  N   LIG    1      -24.165  74.955  31.318  0.00  0.00    -0.276 N 
ATOM     24  H   LIG    1      -23.286  74.571  31.659  0.00  0.00    +0.155 HD
ATOM     25  O   LIG    1      -25.074  76.746  30.153  0.00  0.00    -0.268 OA
BRANCH  22  29
ATOM     26  C   LIG    1      -19.923  78.273  31.798  0.00  0.00    +0.172 C 
ATOM     27  N   LIG    1      -20.898  77.607  30.969  0.00  0.00    -0.274 N 
ATOM     28  N   LIG    1      -22.121  77.348  31.470  0.00  0.00    -0.167 NA
ATOM     29  C   LIG    1      -22.740  76.664  30.481  0.00  0.00    +0.147 A 
ATOM     30  C   LIG    1      -21.890  76.534  29.350  0.00  0.00    +0.054 A 
ATOM     31  C   LIG    1      -20.719  77.162  29.694  0.00  0.00    +0.109 A 
ENDBRANCH  22  29
ENDBRANCH   1  23
TORSDOF 4
ENDMDL
MODEL 2
REMARK VINA RESULT:      -6.7     12.407     14.073
REMARK  Name = pdb/CHEMBL3902763.pdb
REMARK                            x       y       z     vdW  Elec       q    Type
REMARK                         _______ _______ _______ _____ _____    ______ ____
ROOT
ATOM      1  C   LIG    1      -37.933  75.993  24.990  0.00  0.00    +0.098 A 
ATOM      2  C   LIG    1      -38.476  74.749  24.727  0.00  0.00    +0.179 A 
ATOM      3  N   LIG    1      -38.018  73.471  24.936  0.00  0.00    -0.211 NA
ATOM      4  C   LIG    1      -38.821  72.470  24.643  0.00  0.00    +0.126 A 
ATOM      5  C   LIG    1      -40.195  72.697  24.051  0.00  0.00    +0.063 A 
ATOM      6  C   LIG    1      -40.576  73.960  23.840  0.00  0.00    +0.118 A 
ATOM      7  N   LIG    1      -39.731  75.004  24.171  0.00  0.00    -0.220 N 
ATOM      8  N   LIG    1      -39.978  76.327  24.027  0.00  0.00    -0.171 NA
ATOM      9  C   LIG    1      -38.892  76.916  24.528  0.00  0.00    +0.160 A 
ENDROOT
BRANCH   4  10
ATOM     10  N   LIG    1      -38.407  71.164  24.855  0.00  0.00    -0.308 N 
ATOM     11  C   LIG    1      -37.400  70.480  24.036  0.00  0.00    +0.105 C 
ATOM     12  C   LIG    1      -36.671  69.552  25.039  0.00  0.00    +0.029 C 
ATOM     13  C   LIG    1      -37.335  69.779  26.391  0.00  0.00    +0.021 C 
ATOM     14  C   LIG    1      -38.680  70.396  26.058  0.00  0.00    +0.107 C 
BRANCH  11  15
ATOM     15  C   LIG    1      -38.035  69.689  22.889  0.00  0.00    -0.024 A 
ATOM     16  C   LIG    1      -37.306  69.294  21.754  0.00  0.00    +0.043 A 
ATOM     17  C   LIG    1      -37.912  68.571  20.731  0.00  0.00    +0.124 A 
ATOM     18  F   LIG    1      -37.190  68.217  19.659  0.00  0.00    -0.205 F 
ATOM     19  C   LIG    1      -39.249  68.213  20.802  0.00  0.00    +0.038 A 
ATOM     20  C   LIG    1      -39.993  68.579  21.920  0.00  0.00    +0.003 A 
ATOM     21  C   LIG    1      -39.390  69.305  22.958  0.00  0.00    +0.005 A 
ENDBRANCH  11  15
ENDBRANCH   4  10
BRANCH   1  23
ATOM     22  C   LIG    1      -36.459  76.060  26.940  0.00  0.00    +0.268 C 
ATOM     23  N   LIG    1      -36.706  76.202  25.591  0.00  0.00    -0.276 N 
ATOM     24  H   LIG    1      -35.923  76.468  24.998  0.00  0.00    +0.155 HD
ATOM     25  O   LIG    1      -37.289  75.735  27.790  0.00  0.00    -0.268 OA
BRANCH  22  29
ATOM     26  C   LIG    1      -32.288  78.474  27.396  0.00  0.00    +0.172 C 
ATOM     27  N   LIG    1      -33.215  77.372  27.502  0.00  0.00    -0.274 N 
ATOM     28  N   LIG    1      -34.443  77.491  26.962  0.00  0.00    -0.167 NA
ATOM     29  C   LIG    1      -35.061  76.338  27.302  0.00  0.00    +0.147 A 
ATOM     30  C   LIG    1      -34.185  75.493  28.034  0.00  0.00    +0.054 A 
ATOM     31  C   LIG    1      -33.002  76.184  28.133  0.00  0.00    +0.109 A 
ENDBRANCH  22  29
ENDBRANCH   1  23
TORSDOF 4
ENDMDL
MODEL 3
REMARK VINA RESULT:      -6.6     20.960     22.972
REMARK  Name = pdb/CHEMBL3902763.pdb
REMARK                            x       y       z     vdW  Elec       q    Type
REMARK                         _______ _______ _______ _____ _____    ______ ____
ROOT
ATOM      1  C   LIG    1      -31.993  93.675  22.881  0.00  0.00    +0.098 A 
ATOM      2  C   LIG    1      -32.395  93.322  21.607  0.00  0.00    +0.179 A 
ATOM      3  N   LIG    1      -33.466  92.601  21.137  0.00  0.00    -0.211 NA
ATOM      4  C   LIG    1      -33.620  92.502  19.833  0.00  0.00    +0.126 A 
ATOM      5  C   LIG    1      -32.635  93.119  18.864  0.00  0.00    +0.063 A 
ATOM      6  C   LIG    1      -31.595  93.782  19.378  0.00  0.00    +0.118 A 
ATOM      7  N   LIG    1      -31.455  93.896  20.750  0.00  0.00    -0.220 N 
ATOM      8  N   LIG    1      -30.468  94.540  21.415  0.00  0.00    -0.171 NA
ATOM      9  C   LIG    1      -30.802  94.408  22.699  0.00  0.00    +0.160 A 
ENDROOT
BRANCH   4  10
ATOM     10  N   LIG    1      -34.696  91.801  19.313  0.00  0.00    -0.308 N 
ATOM     11  C   LIG    1      -34.756  90.337  19.226  0.00  0.00    +0.105 C 
ATOM     12  C   LIG    1      -36.253  90.010  19.448  0.00  0.00    +0.029 C 
ATOM     13  C   LIG    1      -36.956  91.346  19.647  0.00  0.00    +0.021 C 
ATOM     14  C   LIG    1      -36.008  92.370  19.056  0.00  0.00    +0.107 C 
BRANCH  11  15
ATOM     15  C   LIG    1      -34.256  89.822  17.873  0.00  0.00    -0.024 A 
ATOM     16  C   LIG    1      -33.489  88.651  17.750  0.00  0.00    +0.043 A 
ATOM     17  C   LIG    1      -33.055  88.208  16.504  0.00  0.00    +0.124 A 
ATOM     18  F   LIG    1      -32.319  87.091  16.424  0.00  0.00    -0.205 F 
ATOM     19  C   LIG    1      -33.371  88.903  15.347  0.00  0.00    +0.038 A 
ATOM     20  C   LIG    1      -34.141  90.059  15.437  0.00  0.00    +0.003 A 
ATOM     21  C   LIG    1      -34.585  90.511  16.688  0.00  0.00    +0.005 A 
ENDBRANCH  11  15
ENDBRANCH   4  10
BRANCH   1  23
ATOM     22  C   LIG    1      -32.295  92.356  24.918  0.00  0.00    +0.268 C 
ATOM     23  N   LIG    1      -32.674  93.348  24.038  0.00  0.00    -0.276 N 
ATOM     24  H   LIG    1      -33.509  93.883  24.269  0.00  0.00    +0.155 HD
ATOM     25  O   LIG    1      -31.310  91.627  24.793  0.00  0.00    -0.268 OA
BRANCH  22  29
ATOM     26  C   LIG    1      -35.518  90.409  27.959  0.00  0.00    +0.172 C 
ATOM     27  N   LIG    1      -34.625  91.403  27.412  0.00  0.00    -0.274 N 
ATOM     28  N   LIG    1      -33.998  91.153  26.247  0.00  0.00    -0.167 NA
ATOM     29  C   LIG    1      -33.200  92.230  26.069  0.00  0.00    +0.147 A 
ATOM     30  C   LIG    1      -33.369  93.162  27.128  0.00  0.00    +0.054 A 
ATOM     31  C   LIG    1      -34.302  92.604  27.966  0.00  0.00    +0.109 A 
ENDBRANCH  22  29
ENDBRANCH   1  23
TORSDOF 4
ENDMDL
MODEL 4
REMARK VINA RESULT:      -6.6      6.465     10.509
REMARK  Name = pdb/CHEMBL3902763.pdb
REMARK                            x       y       z     vdW  Elec       q    Type
REMARK                         _______ _______ _______ _____ _____    ______ ____
ROOT
ATOM      1  C   LIG    1      -22.280  76.917  30.838  0.00  0.00    +0.098 A 
ATOM      2  C   LIG    1      -21.128  77.325  31.483  0.00  0.00    +0.179 A 
ATOM      3  N   LIG    1      -20.883  77.758  32.764  0.00  0.00    -0.211 NA
ATOM      4  C   LIG    1      -19.636  78.004  33.106  0.00  0.00    +0.126 A 
ATOM      5  C   LIG    1      -18.496  77.861  32.122  0.00  0.00    +0.063 A 
ATOM      6  C   LIG    1      -18.796  77.466  30.882  0.00  0.00    +0.118 A 
ATOM      7  N   LIG    1      -20.108  77.192  30.540  0.00  0.00    -0.220 N 
ATOM      8  N   LIG    1      -20.564  76.776  29.335  0.00  0.00    -0.171 NA
ATOM      9  C   LIG    1      -21.873  76.607  29.524  0.00  0.00    +0.160 A 
ENDROOT
BRANCH   4  10
ATOM     10  N   LIG    1      -19.341  78.425  34.393  0.00  0.00    -0.308 N 
ATOM     11  C   LIG    1      -20.296  78.391  35.507  0.00  0.00    +0.105 C 
ATOM     12  C   LIG    1      -19.416  78.089  36.745  0.00  0.00    +0.029 C 
ATOM     13  C   LIG    1      -17.985  77.974  36.233  0.00  0.00    +0.021 C 
ATOM     14  C   LIG    1      -18.001  78.681  34.892  0.00  0.00    +0.107 C 
BRANCH  11  15
ATOM     15  C   LIG    1      -21.051  79.715  35.656  0.00  0.00    -0.024 A 
ATOM     16  C   LIG    1      -20.445  80.872  36.177  0.00  0.00    +0.043 A 
ATOM     17  C   LIG    1      -21.158  82.061  36.294  0.00  0.00    +0.124 A 
ATOM     18  F   LIG    1      -20.552  83.143  36.801  0.00  0.00    -0.205 F 
ATOM     19  C   LIG    1      -22.484  82.143  35.897  0.00  0.00    +0.038 A 
ATOM     20  C   LIG    1      -23.106  81.017  35.366  0.00  0.00    +0.003 A 
ATOM     21  C   LIG    1      -22.394  79.815  35.240  0.00  0.00    +0.005 A 
ENDBRANCH  11  15
ENDBRANCH   4  10
BRANCH   1  23
ATOM     22  C   LIG    1      -24.588  77.673  31.119  0.00  0.00    +0.268 C 
ATOM     23  N   LIG    1      -23.528  76.848  31.428  0.00  0.00    -0.276 N 
ATOM     24  H   LIG    1      -23.684  76.131  32.134  0.00  0.00    +0.155 HD
ATOM     25  O   LIG    1      -24.571  78.580  30.286  0.00  0.00    -0.268 OA
BRANCH  22  29
ATOM     26  C   LIG    1      -29.243  76.771  32.093  0.00  0.00    +0.172 C 
ATOM     27  N   LIG    1      -27.839  76.986  32.352  0.00  0.00    -0.274 N 
ATOM     28  N   LIG    1      -27.027  77.325  31.333  0.00  0.00    -0.167 NA
ATOM     29  C   LIG    1      -25.799  77.371  31.897  0.00  0.00    +0.147 A 
ATOM     30  C   LIG    1      -25.872  77.086  33.286  0.00  0.00    +0.054 A 
ATOM     31  C   LIG    1      -27.200  76.856  33.547  0.00  0.00    +0.109 A 
ENDBRANCH  22  29
ENDBRANCH   1  23
TORSDOF 4
ENDMDL
MODEL 5
REMARK VINA RESULT:      -6.6     11.526     13.317
REMARK  Name = pdb/CHEMBL3902763.pdb
REMARK                            x       y       z     vdW  Elec       q    Type
REMARK                         _______ _______ _______ _____ _____    ______ ____
ROOT
ATOM      1  C   LIG    1      -37.881  76.047  25.058  0.00  0.00    +0.098 A 
ATOM      2  C   LIG    1      -38.367  74.784  24.779  0.00  0.00    +0.179 A 
ATOM      3  N   LIG    1      -37.838  73.526  24.946  0.00  0.00    -0.211 NA
ATOM      4  C   LIG    1      -38.596  72.492  24.650  0.00  0.00    +0.126 A 
ATOM      5  C   LIG    1      -39.996  72.660  24.099  0.00  0.00    +0.063 A 
ATOM      6  C   LIG    1      -40.447  73.906  23.928  0.00  0.00    +0.118 A 
ATOM      7  N   LIG    1      -39.648  74.985  24.262  0.00  0.00    -0.220 N 
ATOM      8  N   LIG    1      -39.966  76.296  24.155  0.00  0.00    -0.171 NA
ATOM      9  C   LIG    1      -38.899  76.929  24.642  0.00  0.00    +0.160 A 
ENDROOT
BRANCH   4  10
ATOM     10  N   LIG    1      -38.111  71.205  24.820  0.00  0.00    -0.308 N 
ATOM     11  C   LIG    1      -38.020  70.528  26.120  0.00  0.00    +0.105 C 
ATOM     12  C   LIG    1      -38.291  69.041  25.785  0.00  0.00    +0.029 C 
ATOM     13  C   LIG    1      -38.519  68.976  24.281  0.00  0.00    +0.021 C 
ATOM     14  C   LIG    1      -37.900  70.252  23.744  0.00  0.00    +0.107 C 
BRANCH  11  15
ATOM     15  C   LIG    1      -36.648  70.723  26.773  0.00  0.00    -0.024 A 
ATOM     16  C   LIG    1      -35.554  69.887  26.488  0.00  0.00    +0.043 A 
ATOM     17  C   LIG    1      -34.320  70.094  27.095  0.00  0.00    +0.124 A 
ATOM     18  F   LIG    1      -33.300  69.274  26.807  0.00  0.00    -0.205 F 
ATOM     19  C   LIG    1      -34.128  71.133  27.993  0.00  0.00    +0.038 A 
ATOM     20  C   LIG    1      -35.190  71.984  28.284  0.00  0.00    +0.003 A 
ATOM     21  C   LIG    1      -36.438  71.785  27.675  0.00  0.00    +0.005 A 
ENDBRANCH  11  15
ENDBRANCH   4  10
BRANCH   1  23
ATOM     22  C   LIG    1      -36.330  76.050  26.948  0.00  0.00    +0.268 C 
ATOM     23  N   LIG    1      -36.651  76.306  25.631  0.00  0.00    -0.276 N 
ATOM     24  H   LIG    1      -35.923  76.703  25.042  0.00  0.00    +0.155 HD
ATOM     25  O   LIG    1      -37.088  75.565  27.788  0.00  0.00    -0.268 OA
BRANCH  22  29
ATOM     26  C   LIG    1      -32.341  78.753  27.406  0.00  0.00    +0.172 C 
ATOM     27  N   LIG    1      -33.178  77.580  27.485  0.00  0.00    -0.274 N 
ATOM     28  N   LIG    1      -34.427  77.628  26.983  0.00  0.00    -0.167 NA
ATOM     29  C   LIG    1      -34.947  76.418  27.286  0.00  0.00    +0.147 A 
ATOM     30  C   LIG    1      -33.988  75.610  27.954  0.00  0.00    +0.054 A 
ATOM     31  C   LIG    1      -32.859  76.384  28.053  0.00  0.00    +0.109 A 
ENDBRANCH  22  29
ENDBRANCH   1  23
TORSDOF 4
ENDMDL
MODEL 6
REMARK VINA RESULT:      -6.3     12.318     14.004
REMARK  Name = pdb/CHEMBL3902763.pdb
REMARK                            x       y       z     vdW  Elec       q    Type
REMARK                         _______ _______ _______ _____ _____    ______ ____
ROOT
ATOM      1  C   LIG    1      -37.562  76.060  25.238  0.00  0.00    +0.098 A 
ATOM      2  C   LIG    1      -38.240  74.892  24.945  0.00  0.00    +0.179 A 
ATOM      3  N   LIG    1      -37.955  73.568  25.177  0.00  0.00    -0.211 NA
ATOM      4  C   LIG    1      -38.859  72.672  24.840  0.00  0.00    +0.126 A 
ATOM      5  C   LIG    1      -40.162  73.064  24.176  0.00  0.00    +0.063 A 
ATOM      6  C   LIG    1      -40.372  74.363  23.946  0.00  0.00    +0.118 A 
ATOM      7  N   LIG    1      -39.423  75.296  24.323  0.00  0.00    -0.220 N 
ATOM      8  N   LIG    1      -39.496  76.639  24.166  0.00  0.00    -0.171 NA
ATOM      9  C   LIG    1      -38.374  77.092  24.726  0.00  0.00    +0.160 A 
ENDROOT
BRANCH   4  10
ATOM     10  N   LIG    1      -38.623  71.327  25.073  0.00  0.00    -0.308 N 
ATOM     11  C   LIG    1      -37.576  70.550  24.398  0.00  0.00    +0.105 C 
ATOM     12  C   LIG    1      -37.114  69.534  25.473  0.00  0.00    +0.029 C 
ATOM     13  C   LIG    1      -37.956  69.812  26.712  0.00  0.00    +0.021 C 
ATOM     14  C   LIG    1      -39.160  70.575  26.194  0.00  0.00    +0.107 C 
BRANCH  11  15
ATOM     15  C   LIG    1      -38.101  69.848  23.142  0.00  0.00    -0.024 A 
ATOM     16  C   LIG    1      -39.470  69.796  22.827  0.00  0.00    +0.043 A 
ATOM     17  C   LIG    1      -39.914  69.155  21.675  0.00  0.00    +0.124 A 
ATOM     18  F   LIG    1      -41.227  69.117  21.409  0.00  0.00    -0.205 F 
ATOM     19  C   LIG    1      -39.022  68.554  20.800  0.00  0.00    +0.038 A 
ATOM     20  C   LIG    1      -37.659  68.602  21.080  0.00  0.00    +0.003 A 
ATOM     21  C   LIG    1      -37.202  69.249  22.238  0.00  0.00    +0.005 A 
ENDBRANCH  11  15
ENDBRANCH   4  10
BRANCH   1  23
ATOM     22  C   LIG    1      -36.214  76.286  27.265  0.00  0.00    +0.268 C 
ATOM     23  N   LIG    1      -36.352  76.119  25.903  0.00  0.00    -0.276 N 
ATOM     24  H   LIG    1      -35.500  76.021  25.356  0.00  0.00    +0.155 HD
ATOM     25  O   LIG    1      -37.138  76.409  28.069  0.00  0.00    -0.268 OA
BRANCH  22  29
ATOM     26  C   LIG    1      -32.130  74.892  29.458  0.00  0.00    +0.172 C 
ATOM     27  N   LIG    1      -33.008  75.721  28.668  0.00  0.00    -0.274 N 
ATOM     28  N   LIG    1      -34.306  75.382  28.553  0.00  0.00    -0.167 NA
ATOM     29  C   LIG    1      -34.810  76.305  27.703  0.00  0.00    +0.147 A 
ATOM     30  C   LIG    1      -33.810  77.238  27.321  0.00  0.00    +0.054 A 
ATOM     31  C   LIG    1      -32.667  76.840  27.970  0.00  0.00    +0.109 A 
ENDBRANCH  22  29
ENDBRANCH   1  23
TORSDOF 4
ENDMDL
MODEL 7
REMARK VINA RESULT:      -6.2     13.028     16.026
REMARK  Name = pdb/CHEMBL3902763.pdb
REMARK                            x       y       z     vdW  Elec       q    Type
REMARK                         _______ _______ _______ _____ _____    ______ ____
ROOT
ATOM      1  C   LIG    1      -23.360  79.772  15.039  0.00  0.00    +0.098 A 
ATOM      2  C   LIG    1      -22.148  79.193  15.365  0.00  0.00    +0.179 A 
ATOM      3  N   LIG    1      -21.637  77.932  15.172  0.00  0.00    -0.211 NA
ATOM      4  C   LIG    1      -20.392  77.707  15.533  0.00  0.00    +0.126 A 
ATOM      5  C   LIG    1      -19.543  78.778  16.183  0.00  0.00    +0.063 A 
ATOM      6  C   LIG    1      -20.101  79.977  16.374  0.00  0.00    +0.118 A 
ATOM      7  N   LIG    1      -21.404  80.207  15.972  0.00  0.00    -0.220 N 
ATOM      8  N   LIG    1      -22.099  81.363  16.089  0.00  0.00    -0.171 NA
ATOM      9  C   LIG    1      -23.274  81.094  15.519  0.00  0.00    +0.160 A 
ENDROOT
BRANCH   4  10
ATOM     10  N   LIG    1      -19.830  76.455  15.340  0.00  0.00    -0.308 N 
ATOM     11  C   LIG    1      -20.597  75.260  14.970  0.00  0.00    +0.105 C 
ATOM     12  C   LIG    1      -19.625  74.456  14.071  0.00  0.00    +0.029 C 
ATOM     13  C   LIG    1      -18.340  75.271  13.996  0.00  0.00    +0.021 C 
ATOM     14  C   LIG    1      -18.407  76.201  15.192  0.00  0.00    +0.107 C 
BRANCH  11  15
ATOM     15  C   LIG    1      -21.033  74.454  16.197  0.00  0.00    -0.024 A 
ATOM     16  C   LIG    1      -20.114  73.777  17.018  0.00  0.00    +0.043 A 
ATOM     17  C   LIG    1      -20.543  73.059  18.129  0.00  0.00    +0.124 A 
ATOM     18  F   LIG    1      -19.641  72.419  18.886  0.00  0.00    -0.205 F 
ATOM     19  C   LIG    1      -21.886  72.993  18.465  0.00  0.00    +0.038 A 
ATOM     20  C   LIG    1      -22.818  73.664  17.678  0.00  0.00    +0.003 A 
ATOM     21  C   LIG    1      -22.395  74.394  16.558  0.00  0.00    +0.005 A 
ENDBRANCH  11  15
ENDBRANCH   4  10
BRANCH   1  23
ATOM     22  C   LIG    1      -25.504  78.598  14.985  0.00  0.00    +0.268 C 
ATOM     23  N   LIG    1      -24.385  79.125  14.375  0.00  0.00    -0.276 N 
ATOM     24  H   LIG    1      -24.320  79.039  13.363  0.00  0.00    +0.155 HD
ATOM     25  O   LIG    1      -25.741  78.625  16.193  0.00  0.00    -0.268 OA
BRANCH  22  29
ATOM     26  C   LIG    1      -28.320  75.227  12.950  0.00  0.00    +0.172 C 
ATOM     27  N   LIG    1      -27.668  76.505  13.115  0.00  0.00    -0.274 N 
ATOM     28  N   LIG    1      -26.790  76.670  14.122  0.00  0.00    -0.167 NA
ATOM     29  C   LIG    1      -26.436  77.972  14.035  0.00  0.00    +0.147 A 
ATOM     30  C   LIG    1      -27.086  78.599  12.939  0.00  0.00    +0.054 A 
ATOM     31  C   LIG    1      -27.861  77.623  12.362  0.00  0.00    +0.109 A 
ENDBRANCH  22  29
ENDBRANCH   1  23
TORSDOF 4
ENDMDL
MODEL 8
REMARK VINA RESULT:      -6.2     12.572     15.329
REMARK  Name = pdb/CHEMBL3902763.pdb
REMARK                            x       y       z     vdW  Elec       q    Type
REMARK                         _______ _______ _______ _____ _____    ______ ____
ROOT
ATOM      1  C   LIG    1      -35.586  68.043  24.069  0.00  0.00    +0.098 A 
ATOM      2  C   LIG    1      -36.823  68.487  23.641  0.00  0.00    +0.179 A 
ATOM      3  N   LIG    1      -37.849  69.141  24.279  0.00  0.00    -0.211 NA
ATOM      4  C   LIG    1      -38.891  69.506  23.563  0.00  0.00    +0.126 A 
ATOM      5  C   LIG    1      -38.996  69.186  22.087  0.00  0.00    +0.063 A 
ATOM      6  C   LIG    1      -37.983  68.520  21.526  0.00  0.00    +0.118 A 
ATOM      7  N   LIG    1      -36.885  68.160  22.285  0.00  0.00    -0.220 N 
ATOM      8  N   LIG    1      -35.784  67.496  21.859  0.00  0.00    -0.171 NA
ATOM      9  C   LIG    1      -35.005  67.435  22.939  0.00  0.00    +0.160 A 
ENDROOT
BRANCH   4  10
ATOM     10  N   LIG    1      -39.940  70.186  24.161  0.00  0.00    -0.308 N 
ATOM     11  C   LIG    1      -40.645  71.315  23.543  0.00  0.00    +0.105 C 
ATOM     12  C   LIG    1      -42.103  71.163  24.042  0.00  0.00    +0.029 C 
ATOM     13  C   LIG    1      -42.123  69.928  24.934  0.00  0.00    +0.021 C 
ATOM     14  C   LIG    1      -40.673  69.715  25.324  0.00  0.00    +0.107 C 
BRANCH  11  15
ATOM     15  C   LIG    1      -40.042  72.662  23.953  0.00  0.00    -0.024 A 
ATOM     16  C   LIG    1      -40.716  73.879  23.752  0.00  0.00    +0.043 A 
ATOM     17  C   LIG    1      -40.142  75.085  24.141  0.00  0.00    +0.124 A 
ATOM     18  F   LIG    1      -40.808  76.228  23.929  0.00  0.00    -0.205 F 
ATOM     19  C   LIG    1      -38.893  75.124  24.742  0.00  0.00    +0.038 A 
ATOM     20  C   LIG    1      -38.209  73.932  24.965  0.00  0.00    +0.003 A 
ATOM     21  C   LIG    1      -38.781  72.711  24.580  0.00  0.00    +0.005 A 
ENDBRANCH  11  15
ENDBRANCH   4  10
BRANCH   1  23
ATOM     22  C   LIG    1      -34.270  69.240  25.747  0.00  0.00    +0.268 C 
ATOM     23  N   LIG    1      -35.094  68.207  25.350  0.00  0.00    -0.276 N 
ATOM     24  H   LIG    1      -35.366  67.528  26.058  0.00  0.00    +0.155 HD
ATOM     25  O   LIG    1      -33.858  70.146  25.022  0.00  0.00    -0.268 OA
BRANCH  22  29
ATOM     26  C   LIG    1      -32.683  67.407  29.937  0.00  0.00    +0.172 C 
ATOM     27  N   LIG    1      -33.226  68.386  29.025  0.00  0.00    -0.274 N 
ATOM     28  N   LIG    1      -33.494  68.024  27.755  0.00  0.00    -0.167 NA
ATOM     29  C   LIG    1      -33.905  69.171  27.170  0.00  0.00    +0.147 A 
ATOM     30  C   LIG    1      -33.917  70.239  28.106  0.00  0.00    +0.054 A 
ATOM     31  C   LIG    1      -33.487  69.695  29.291  0.00  0.00    +0.109 A 
ENDBRANCH  22  29
ENDBRANCH   1  23
TORSDOF 4
ENDMDL
MODEL 9
REMARK VINA RESULT:      -6.1     17.168     19.426
REMARK  Name = pdb/CHEMBL3902763.pdb
REMARK                            x       y       z     vdW  Elec       q    Type
REMARK                         _______ _______ _______ _____ _____    ______ ____
ROOT
ATOM      1  C   LIG    1      -25.434  84.235  11.212  0.00  0.00    +0.098 A 
ATOM      2  C   LIG    1      -25.556  82.875  11.431  0.00  0.00    +0.179 A 
ATOM      3  N   LIG    1      -25.106  82.051  12.434  0.00  0.00    -0.211 NA
ATOM      4  C   LIG    1      -25.461  80.784  12.399  0.00  0.00    +0.126 A 
ATOM      5  C   LIG    1      -26.303  80.221  11.275  0.00  0.00    +0.063 A 
ATOM      6  C   LIG    1      -26.687  81.063  10.310  0.00  0.00    +0.118 A 
ATOM      7  N   LIG    1      -26.324  82.396  10.368  0.00  0.00    -0.220 N 
ATOM      8  N   LIG    1      -26.642  83.365   9.478  0.00  0.00    -0.171 NA
ATOM      9  C   LIG    1      -26.108  84.470   9.996  0.00  0.00    +0.160 A 
ENDROOT
BRANCH   4  10
ATOM     10  N   LIG    1      -25.045  79.920  13.400  0.00  0.00    -0.308 N 
ATOM     11  C   LIG    1      -25.072  80.248  14.830  0.00  0.00    +0.105 C 
ATOM     12  C   LIG    1      -25.385  78.896  15.517  0.00  0.00    +0.029 C 
ATOM     13  C   LIG    1      -25.513  77.869  14.400  0.00  0.00    +0.021 C 
ATOM     14  C   LIG    1      -24.803  78.499  13.217  0.00  0.00    +0.107 C 
BRANCH  11  15
ATOM     15  C   LIG    1      -23.741  80.834  15.310  0.00  0.00    -0.024 A 
ATOM     16  C   LIG    1      -22.726  80.038  15.869  0.00  0.00    +0.043 A 
ATOM     17  C   LIG    1      -21.526  80.602  16.290  0.00  0.00    +0.124 A 
ATOM     18  F   LIG    1      -20.583  79.815  16.825  0.00  0.00    -0.205 F 
ATOM     19  C   LIG    1      -21.292  81.963  16.167  0.00  0.00    +0.038 A 
ATOM     20  C   LIG    1      -22.273  82.773  15.605  0.00  0.00    +0.003 A 
ATOM     21  C   LIG    1      -23.485  82.214  15.174  0.00  0.00    +0.005 A 
ENDBRANCH  11  15
ENDBRANCH   4  10
BRANCH   1  23
ATOM     22  C   LIG    1      -23.454  85.467  11.946  0.00  0.00    +0.268 C 
ATOM     23  N   LIG    1      -24.782  85.110  12.059  0.00  0.00    -0.276 N 
ATOM     24  H   LIG    1      -25.317  85.534  12.813  0.00  0.00    +0.155 HD
ATOM     25  O   LIG    1      -22.673  85.056  11.088  0.00  0.00    -0.268 OA
BRANCH  22  29
ATOM     26  C   LIG    1      -21.788  87.125  16.178  0.00  0.00    +0.172 C 
ATOM     27  N   LIG    1      -22.309  87.176  14.833  0.00  0.00    -0.274 N 
ATOM     28  N   LIG    1      -22.663  86.030  14.220  0.00  0.00    -0.167 NA
ATOM     29  C   LIG    1      -23.025  86.422  12.978  0.00  0.00    +0.147 A 
ATOM     30  C   LIG    1      -22.920  87.833  12.845  0.00  0.00    +0.054 A 
ATOM     31  C   LIG    1      -22.469  88.286  14.060  0.00  0.00    +0.109 A 
ENDBRANCH  22  29
ENDBRANCH   1  23
TORSDOF 4
ENDMDL
