MODEL 1
REMARK VINA RESULT:      -6.9      0.000      0.000
REMARK  Name = pdb/CHEMBL3947950.pdb
REMARK                            x       y       z     vdW  Elec       q    Type
REMARK                         _______ _______ _______ _____ _____    ______ ____
ROOT
ATOM      1  C   LIG    1      -20.649  78.073  33.427  0.00  0.00    +0.126 A 
ATOM      2  N   LIG    1      -21.790  77.565  33.002  0.00  0.00    -0.211 NA
ATOM      3  C   LIG    1      -21.900  77.248  31.664  0.00  0.00    +0.179 A 
ATOM      4  C   LIG    1      -22.937  76.754  30.887  0.00  0.00    +0.098 A 
ATOM      5  C   LIG    1      -22.414  76.685  29.579  0.00  0.00    +0.160 A 
ATOM      6  N   LIG    1      -21.147  77.081  29.503  0.00  0.00    -0.171 NA
ATOM      7  N   LIG    1      -20.835  77.422  30.774  0.00  0.00    -0.220 N 
ATOM      8  C   LIG    1      -19.618  77.896  31.217  0.00  0.00    +0.118 A 
ATOM      9  C   LIG    1      -19.457  78.227  32.500  0.00  0.00    +0.063 A 
ENDROOT
BRANCH   1  13
ATOM     10  C   LIG    1      -18.430  77.756  37.660  0.00  0.00    +0.012 C 
ATOM     11  C   LIG    1      -19.682  78.383  37.026  0.00  0.00    -0.017 C 
ATOM     12  C   LIG    1      -20.176  77.537  35.837  0.00  0.00    +0.113 C 
ATOM     13  N   LIG    1      -20.490  78.475  34.751  0.00  0.00    -0.307 N 
ATOM     14  C   LIG    1      -20.329  79.872  35.185  0.00  0.00    +0.108 C 
ATOM     15  C   LIG    1      -19.352  79.735  36.372  0.00  0.00    +0.035 C 
ATOM     16  C   LIG    1      -20.743  78.521  38.128  0.00  0.00    +0.012 C 
BRANCH  14  17
ATOM     17  C   LIG    1      -21.672  80.508  35.533  0.00  0.00    +0.011 A 
ATOM     18  C   LIG    1      -21.750  81.827  36.010  0.00  0.00    +0.129 A 
ATOM     19  F   LIG    1      -20.632  82.543  36.197  0.00  0.00    -0.205 F 
ATOM     20  C   LIG    1      -22.976  82.435  36.307  0.00  0.00    +0.041 A 
ATOM     21  C   LIG    1      -24.164  81.732  36.125  0.00  0.00    +0.041 A 
ATOM     22  C   LIG    1      -24.108  80.429  35.654  0.00  0.00    +0.124 A 
ATOM     23  F   LIG    1      -25.241  79.736  35.484  0.00  0.00    -0.205 F 
ATOM     24  C   LIG    1      -22.890  79.824  35.358  0.00  0.00    +0.046 A 
ENDBRANCH  14  17
ENDBRANCH   1  13
BRANCH   4  25
ATOM     25  N   LIG    1      -24.200  76.422  31.346  0.00  0.00    -0.276 N 
ATOM     26  H   LIG    1      -24.293  75.581  31.908  0.00  0.00    +0.155 HD
ATOM     27  C   LIG    1      -25.328  77.172  31.049  0.00  0.00    +0.268 C 
ATOM     28  O   LIG    1      -25.365  78.191  30.378  0.00  0.00    -0.268 OA
BRANCH  27  29
ATOM     29  C   LIG    1      -26.595  76.632  31.600  0.00  0.00    +0.144 A 
ATOM     30  N   LIG    1      -27.701  77.424  31.563  0.00  0.00    -0.247 NA
ATOM     31  C   LIG    1      -28.824  76.844  32.050  0.00  0.00    +0.131 A 
ATOM     32  C   LIG    1      -28.838  75.559  32.575  0.00  0.00    +0.130 A 
ATOM     33  N   LIG    1      -27.734  74.780  32.629  0.00  0.00    -0.259 NA
ATOM     34  C   LIG    1      -26.609  75.342  32.118  0.00  0.00    +0.143 A 
ENDBRANCH  27  29
ENDBRANCH   4  25
TORSDOF 4
ENDMDL
MODEL 2
REMARK VINA RESULT:      -6.4     12.390     18.319
REMARK  Name = pdb/CHEMBL3947950.pdb
REMARK                            x       y       z     vdW  Elec       q    Type
REMARK                         _______ _______ _______ _____ _____    ______ ____
ROOT
ATOM      1  C   LIG    1      -38.754  72.855  24.595  0.00  0.00    +0.126 A 
ATOM      2  N   LIG    1      -37.916  73.785  25.012  0.00  0.00    -0.211 NA
ATOM      3  C   LIG    1      -38.306  75.103  24.904  0.00  0.00    +0.179 A 
ATOM      4  C   LIG    1      -37.678  76.307  25.192  0.00  0.00    +0.098 A 
ATOM      5  C   LIG    1      -38.606  77.302  24.821  0.00  0.00    +0.160 A 
ATOM      6  N   LIG    1      -39.745  76.803  24.348  0.00  0.00    -0.171 NA
ATOM      7  N   LIG    1      -39.560  75.464  24.401  0.00  0.00    -0.220 N 
ATOM      8  C   LIG    1      -40.468  74.499  24.018  0.00  0.00    +0.118 A 
ATOM      9  C   LIG    1      -40.142  73.207  24.093  0.00  0.00    +0.063 A 
ENDROOT
BRANCH   1  13
ATOM     10  C   LIG    1      -39.043  68.424  22.797  0.00  0.00    +0.012 C 
ATOM     11  C   LIG    1      -38.517  69.165  24.036  0.00  0.00    -0.017 C 
ATOM     12  C   LIG    1      -39.351  70.429  24.316  0.00  0.00    +0.113 C 
ATOM     13  N   LIG    1      -38.400  71.508  24.615  0.00  0.00    -0.307 N 
ATOM     14  C   LIG    1      -37.016  71.010  24.645  0.00  0.00    +0.108 C 
ATOM     15  C   LIG    1      -37.109  69.731  23.785  0.00  0.00    +0.035 C 
ATOM     16  C   LIG    1      -38.536  68.177  25.213  0.00  0.00    +0.012 C 
BRANCH  14  17
ATOM     17  C   LIG    1      -36.534  70.783  26.076  0.00  0.00    +0.011 A 
ATOM     18  C   LIG    1      -35.195  70.460  26.349  0.00  0.00    +0.129 A 
ATOM     19  F   LIG    1      -34.318  70.313  25.345  0.00  0.00    -0.205 F 
ATOM     20  C   LIG    1      -34.730  70.277  27.657  0.00  0.00    +0.041 A 
ATOM     21  C   LIG    1      -35.603  70.422  28.733  0.00  0.00    +0.041 A 
ATOM     22  C   LIG    1      -36.928  70.742  28.483  0.00  0.00    +0.124 A 
ATOM     23  F   LIG    1      -37.783  70.875  29.506  0.00  0.00    -0.205 F 
ATOM     24  C   LIG    1      -37.392  70.925  27.183  0.00  0.00    +0.046 A 
ENDBRANCH  14  17
ENDBRANCH   1  13
BRANCH   4  25
ATOM     25  N   LIG    1      -36.408  76.445  25.723  0.00  0.00    -0.276 N 
ATOM     26  H   LIG    1      -35.630  76.515  25.074  0.00  0.00    +0.155 HD
ATOM     27  C   LIG    1      -36.162  76.466  27.088  0.00  0.00    +0.268 C 
ATOM     28  O   LIG    1      -36.996  76.380  27.976  0.00  0.00    -0.268 OA
BRANCH  27  29
ATOM     29  C   LIG    1      -34.731  76.583  27.458  0.00  0.00    +0.144 A 
ATOM     30  N   LIG    1      -33.985  77.542  26.846  0.00  0.00    -0.247 NA
ATOM     31  C   LIG    1      -32.699  77.609  27.267  0.00  0.00    +0.131 A 
ATOM     32  C   LIG    1      -32.176  76.747  28.221  0.00  0.00    +0.130 A 
ATOM     33  N   LIG    1      -32.914  75.781  28.814  0.00  0.00    -0.259 NA
ATOM     34  C   LIG    1      -34.211  75.724  28.419  0.00  0.00    +0.143 A 
ENDBRANCH  27  29
ENDBRANCH   4  25
TORSDOF 4
ENDMDL
MODEL 3
REMARK VINA RESULT:      -6.2     13.216     19.462
REMARK  Name = pdb/CHEMBL3947950.pdb
REMARK                            x       y       z     vdW  Elec       q    Type
REMARK                         _______ _______ _______ _____ _____    ______ ____
ROOT
ATOM      1  C   LIG    1      -38.344  72.402  24.810  0.00  0.00    +0.126 A 
ATOM      2  N   LIG    1      -37.612  73.437  25.175  0.00  0.00    -0.211 NA
ATOM      3  C   LIG    1      -38.121  74.700  24.958  0.00  0.00    +0.179 A 
ATOM      4  C   LIG    1      -37.619  75.976  25.169  0.00  0.00    +0.098 A 
ATOM      5  C   LIG    1      -38.625  76.848  24.699  0.00  0.00    +0.160 A 
ATOM      6  N   LIG    1      -39.695  76.207  24.236  0.00  0.00    -0.171 NA
ATOM      7  N   LIG    1      -39.386  74.900  24.396  0.00  0.00    -0.220 N 
ATOM      8  C   LIG    1      -40.186  73.826  24.065  0.00  0.00    +0.118 A 
ATOM      9  C   LIG    1      -39.742  72.581  24.246  0.00  0.00    +0.063 A 
ENDROOT
BRANCH   1  13
ATOM     10  C   LIG    1      -35.636  69.146  27.048  0.00  0.00    +0.012 C 
ATOM     11  C   LIG    1      -36.451  69.320  25.756  0.00  0.00    -0.017 C 
ATOM     12  C   LIG    1      -36.479  70.797  25.320  0.00  0.00    +0.113 C 
ATOM     13  N   LIG    1      -37.865  71.101  24.942  0.00  0.00    -0.307 N 
ATOM     14  C   LIG    1      -38.716  69.902  25.009  0.00  0.00    +0.108 C 
ATOM     15  C   LIG    1      -37.937  69.004  25.994  0.00  0.00    +0.035 C 
ATOM     16  C   LIG    1      -35.833  68.404  24.689  0.00  0.00    +0.012 C 
BRANCH  14  17
ATOM     17  C   LIG    1      -38.935  69.294  23.626  0.00  0.00    +0.011 A 
ATOM     18  C   LIG    1      -40.029  68.452  23.367  0.00  0.00    +0.129 A 
ATOM     19  F   LIG    1      -40.888  68.143  24.349  0.00  0.00    -0.205 F 
ATOM     20  C   LIG    1      -40.260  67.909  22.097  0.00  0.00    +0.041 A 
ATOM     21  C   LIG    1      -39.397  68.204  21.046  0.00  0.00    +0.041 A 
ATOM     22  C   LIG    1      -38.312  69.034  21.281  0.00  0.00    +0.124 A 
ATOM     23  F   LIG    1      -37.466  69.320  20.282  0.00  0.00    -0.205 F 
ATOM     24  C   LIG    1      -38.080  69.576  22.543  0.00  0.00    +0.046 A 
ENDBRANCH  14  17
ENDBRANCH   1  13
BRANCH   4  25
ATOM     25  N   LIG    1      -36.386  76.276  25.720  0.00  0.00    -0.276 N 
ATOM     26  H   LIG    1      -35.635  76.532  25.086  0.00  0.00    +0.155 HD
ATOM     27  C   LIG    1      -36.138  76.216  27.083  0.00  0.00    +0.268 C 
ATOM     28  O   LIG    1      -36.939  75.913  27.953  0.00  0.00    -0.268 OA
BRANCH  27  29
ATOM     29  C   LIG    1      -34.743  76.534  27.474  0.00  0.00    +0.144 A 
ATOM     30  N   LIG    1      -34.121  77.570  26.847  0.00  0.00    -0.247 NA
ATOM     31  C   LIG    1      -32.864  77.821  27.288  0.00  0.00    +0.131 A 
ATOM     32  C   LIG    1      -32.250  77.062  28.274  0.00  0.00    +0.130 A 
ATOM     33  N   LIG    1      -32.862  76.021  28.882  0.00  0.00    -0.259 NA
ATOM     34  C   LIG    1      -34.132  75.779  28.467  0.00  0.00    +0.143 A 
ENDBRANCH  27  29
ENDBRANCH   4  25
TORSDOF 4
ENDMDL
MODEL 4
REMARK VINA RESULT:      -6.2     19.877     22.827
REMARK  Name = pdb/CHEMBL3947950.pdb
REMARK                            x       y       z     vdW  Elec       q    Type
REMARK                         _______ _______ _______ _____ _____    ______ ____
ROOT
ATOM      1  C   LIG    1      -33.592  92.864  20.165  0.00  0.00    +0.126 A 
ATOM      2  N   LIG    1      -33.442  93.042  21.464  0.00  0.00    -0.211 NA
ATOM      3  C   LIG    1      -32.283  93.646  21.906  0.00  0.00    +0.179 A 
ATOM      4  C   LIG    1      -31.787  93.941  23.167  0.00  0.00    +0.098 A 
ATOM      5  C   LIG    1      -30.526  94.531  22.937  0.00  0.00    +0.160 A 
ATOM      6  N   LIG    1      -30.226  94.630  21.644  0.00  0.00    -0.171 NA
ATOM      7  N   LIG    1      -31.298  94.092  21.019  0.00  0.00    -0.220 N 
ATOM      8  C   LIG    1      -31.470  93.966  19.656  0.00  0.00    +0.118 A 
ATOM      9  C   LIG    1      -32.568  93.382  19.172  0.00  0.00    +0.063 A 
ENDROOT
BRANCH   1  13
ATOM     10  C   LIG    1      -38.246  91.747  20.359  0.00  0.00    +0.012 C 
ATOM     11  C   LIG    1      -36.960  91.332  19.626  0.00  0.00    -0.017 C 
ATOM     12  C   LIG    1      -35.722  91.576  20.510  0.00  0.00    +0.113 C 
ATOM     13  N   LIG    1      -34.707  92.205  19.654  0.00  0.00    -0.307 N 
ATOM     14  C   LIG    1      -35.164  92.296  18.258  0.00  0.00    +0.108 C 
ATOM     15  C   LIG    1      -36.699  92.238  18.412  0.00  0.00    +0.035 C 
ATOM     16  C   LIG    1      -37.110  89.857  19.220  0.00  0.00    +0.012 C 
BRANCH  14  17
ATOM     17  C   LIG    1      -34.565  91.184  17.401  0.00  0.00    +0.011 A 
ATOM     18  C   LIG    1      -34.548  91.276  16.000  0.00  0.00    +0.129 A 
ATOM     19  F   LIG    1      -35.090  92.339  15.388  0.00  0.00    -0.205 F 
ATOM     20  C   LIG    1      -33.977  90.278  15.200  0.00  0.00    +0.041 A 
ATOM     21  C   LIG    1      -33.400  89.158  15.790  0.00  0.00    +0.041 A 
ATOM     22  C   LIG    1      -33.405  89.049  17.172  0.00  0.00    +0.124 A 
ATOM     23  F   LIG    1      -32.862  87.972  17.756  0.00  0.00    -0.205 F 
ATOM     24  C   LIG    1      -33.972  90.041  17.969  0.00  0.00    +0.046 A 
ENDBRANCH  14  17
ENDBRANCH   1  13
BRANCH   4  25
ATOM     25  N   LIG    1      -32.429  93.684  24.366  0.00  0.00    -0.276 N 
ATOM     26  H   LIG    1      -33.054  94.397  24.730  0.00  0.00    +0.155 HD
ATOM     27  C   LIG    1      -32.234  92.515  25.087  0.00  0.00    +0.268 C 
ATOM     28  O   LIG    1      -31.507  91.585  24.776  0.00  0.00    -0.268 OA
BRANCH  27  29
ATOM     29  C   LIG    1      -32.982  92.443  26.365  0.00  0.00    +0.144 A 
ATOM     30  N   LIG    1      -32.709  91.414  27.213  0.00  0.00    -0.247 NA
ATOM     31  C   LIG    1      -33.405  91.441  28.374  0.00  0.00    +0.131 A 
ATOM     32  C   LIG    1      -34.346  92.420  28.662  0.00  0.00    +0.130 A 
ATOM     33  N   LIG    1      -34.631  93.432  27.810  0.00  0.00    -0.259 NA
ATOM     34  C   LIG    1      -33.917  93.429  26.656  0.00  0.00    +0.143 A 
ENDBRANCH  27  29
ENDBRANCH   4  25
TORSDOF 4
ENDMDL
MODEL 5
REMARK VINA RESULT:      -6.2     19.611     22.407
REMARK  Name = pdb/CHEMBL3947950.pdb
REMARK                            x       y       z     vdW  Elec       q    Type
REMARK                         _______ _______ _______ _____ _____    ______ ____
ROOT
ATOM      1  C   LIG    1      -32.640  92.775  19.929  0.00  0.00    +0.126 A 
ATOM      2  N   LIG    1      -32.808  92.874  21.234  0.00  0.00    -0.211 NA
ATOM      3  C   LIG    1      -31.961  93.706  21.936  0.00  0.00    +0.179 A 
ATOM      4  C   LIG    1      -31.824  94.007  23.283  0.00  0.00    +0.098 A 
ATOM      5  C   LIG    1      -30.741  94.908  23.350  0.00  0.00    +0.160 A 
ATOM      6  N   LIG    1      -30.222  95.188  22.157  0.00  0.00    -0.171 NA
ATOM      7  N   LIG    1      -30.967  94.456  21.298  0.00  0.00    -0.220 N 
ATOM      8  C   LIG    1      -30.820  94.408  19.927  0.00  0.00    +0.118 A 
ATOM      9  C   LIG    1      -31.607  93.613  19.199  0.00  0.00    +0.063 A 
ENDROOT
BRANCH   1  13
ATOM     10  C   LIG    1      -33.145  89.721  16.274  0.00  0.00    +0.012 C 
ATOM     11  C   LIG    1      -33.995  90.490  17.297  0.00  0.00    -0.017 C 
ATOM     12  C   LIG    1      -33.303  91.804  17.708  0.00  0.00    +0.113 C 
ATOM     13  N   LIG    1      -33.418  91.905  19.169  0.00  0.00    -0.307 N 
ATOM     14  C   LIG    1      -34.218  90.802  19.722  0.00  0.00    +0.108 C 
ATOM     15  C   LIG    1      -34.089  89.722  18.626  0.00  0.00    +0.035 C 
ATOM     16  C   LIG    1      -35.378  90.726  16.671  0.00  0.00    +0.012 C 
BRANCH  14  17
ATOM     17  C   LIG    1      -35.649  91.243  20.019  0.00  0.00    +0.011 A 
ATOM     18  C   LIG    1      -36.545  90.397  20.693  0.00  0.00    +0.129 A 
ATOM     19  F   LIG    1      -36.163  89.167  21.062  0.00  0.00    -0.205 F 
ATOM     20  C   LIG    1      -37.852  90.797  20.998  0.00  0.00    +0.041 A 
ATOM     21  C   LIG    1      -38.294  92.067  20.637  0.00  0.00    +0.041 A 
ATOM     22  C   LIG    1      -37.423  92.917  19.972  0.00  0.00    +0.124 A 
ATOM     23  F   LIG    1      -37.837  94.139  19.609  0.00  0.00    -0.205 F 
ATOM     24  C   LIG    1      -36.124  92.521  19.669  0.00  0.00    +0.046 A 
ENDBRANCH  14  17
ENDBRANCH   1  13
BRANCH   4  25
ATOM     25  N   LIG    1      -32.606  93.498  24.305  0.00  0.00    -0.276 N 
ATOM     26  H   LIG    1      -33.446  94.009  24.557  0.00  0.00    +0.155 HD
ATOM     27  C   LIG    1      -32.274  92.344  25.001  0.00  0.00    +0.268 C 
ATOM     28  O   LIG    1      -31.294  91.641  24.813  0.00  0.00    -0.268 OA
BRANCH  27  29
ATOM     29  C   LIG    1      -33.218  91.983  26.086  0.00  0.00    +0.144 A 
ATOM     30  N   LIG    1      -32.738  91.273  27.145  0.00  0.00    -0.247 NA
ATOM     31  C   LIG    1      -33.654  91.016  28.110  0.00  0.00    +0.131 A 
ATOM     32  C   LIG    1      -34.980  91.414  28.012  0.00  0.00    +0.130 A 
ATOM     33  N   LIG    1      -35.459  92.102  26.951  0.00  0.00    -0.259 NA
ATOM     34  C   LIG    1      -34.543  92.389  25.991  0.00  0.00    +0.143 A 
ENDBRANCH  27  29
ENDBRANCH   4  25
TORSDOF 4
ENDMDL
MODEL 6
REMARK VINA RESULT:      -5.9     18.705     20.981
REMARK  Name = pdb/CHEMBL3947950.pdb
REMARK                            x       y       z     vdW  Elec       q    Type
REMARK                         _______ _______ _______ _____ _____    ______ ____
ROOT
ATOM      1  C   LIG    1      -40.680  72.074  23.805  0.00  0.00    +0.126 A 
ATOM      2  N   LIG    1      -40.022  70.995  23.426  0.00  0.00    -0.211 NA
ATOM      3  C   LIG    1      -40.555  70.237  22.405  0.00  0.00    +0.179 A 
ATOM      4  C   LIG    1      -40.167  69.050  21.800  0.00  0.00    +0.098 A 
ATOM      5  C   LIG    1      -41.166  68.784  20.840  0.00  0.00    +0.160 A 
ATOM      6  N   LIG    1      -42.114  69.716  20.803  0.00  0.00    -0.171 NA
ATOM      7  N   LIG    1      -41.739  70.600  21.756  0.00  0.00    -0.220 N 
ATOM      8  C   LIG    1      -42.405  71.758  22.102  0.00  0.00    +0.118 A 
ATOM      9  C   LIG    1      -41.939  72.526  23.089  0.00  0.00    +0.063 A 
ENDROOT
BRANCH   1  13
ATOM     10  C   LIG    1      -39.469  72.552  28.415  0.00  0.00    +0.012 C 
ATOM     11  C   LIG    1      -39.755  73.411  27.173  0.00  0.00    -0.017 C 
ATOM     12  C   LIG    1      -40.755  72.706  26.237  0.00  0.00    +0.113 C 
ATOM     13  N   LIG    1      -40.232  72.851  24.872  0.00  0.00    -0.307 N 
ATOM     14  C   LIG    1      -39.019  73.682  24.847  0.00  0.00    +0.108 C 
ATOM     15  C   LIG    1      -38.500  73.548  26.295  0.00  0.00    +0.035 C 
ATOM     16  C   LIG    1      -40.268  74.775  27.658  0.00  0.00    +0.012 C 
BRANCH  14  17
ATOM     17  C   LIG    1      -39.329  75.111  24.410  0.00  0.00    +0.011 A 
ATOM     18  C   LIG    1      -38.352  76.118  24.469  0.00  0.00    +0.129 A 
ATOM     19  F   LIG    1      -37.129  75.843  24.944  0.00  0.00    -0.205 F 
ATOM     20  C   LIG    1      -38.612  77.427  24.045  0.00  0.00    +0.041 A 
ATOM     21  C   LIG    1      -39.866  77.760  23.542  0.00  0.00    +0.041 A 
ATOM     22  C   LIG    1      -40.844  76.779  23.474  0.00  0.00    +0.124 A 
ATOM     23  F   LIG    1      -42.060  77.086  23.002  0.00  0.00    -0.205 F 
ATOM     24  C   LIG    1      -40.587  75.477  23.895  0.00  0.00    +0.046 A 
ENDBRANCH  14  17
ENDBRANCH   1  13
BRANCH   4  25
ATOM     25  N   LIG    1      -39.036  68.318  22.115  0.00  0.00    -0.276 N 
ATOM     26  H   LIG    1      -39.074  67.716  22.932  0.00  0.00    +0.155 HD
ATOM     27  C   LIG    1      -37.862  68.396  21.380  0.00  0.00    +0.268 C 
ATOM     28  O   LIG    1      -37.672  69.083  20.389  0.00  0.00    -0.268 OA
BRANCH  27  29
ATOM     29  C   LIG    1      -36.749  67.565  21.899  0.00  0.00    +0.144 A 
ATOM     30  N   LIG    1      -35.807  68.166  22.676  0.00  0.00    -0.247 NA
ATOM     31  C   LIG    1      -34.846  67.332  23.142  0.00  0.00    +0.131 A 
ATOM     32  C   LIG    1      -34.807  65.981  22.825  0.00  0.00    +0.130 A 
ATOM     33  N   LIG    1      -35.733  65.390  22.037  0.00  0.00    -0.259 NA
ATOM     34  C   LIG    1      -36.716  66.211  21.588  0.00  0.00    +0.143 A 
ENDBRANCH  27  29
ENDBRANCH   4  25
TORSDOF 4
ENDMDL
MODEL 7
REMARK VINA RESULT:      -5.8     12.496     15.774
REMARK  Name = pdb/CHEMBL3947950.pdb
REMARK                            x       y       z     vdW  Elec       q    Type
REMARK                         _______ _______ _______ _____ _____    ______ ____
ROOT
ATOM      1  C   LIG    1      -36.098  74.716  27.578  0.00  0.00    +0.126 A 
ATOM      2  N   LIG    1      -36.776  75.553  26.817  0.00  0.00    -0.211 NA
ATOM      3  C   LIG    1      -37.742  75.032  25.982  0.00  0.00    +0.179 A 
ATOM      4  C   LIG    1      -38.589  75.597  25.039  0.00  0.00    +0.098 A 
ATOM      5  C   LIG    1      -39.314  74.513  24.501  0.00  0.00    +0.160 A 
ATOM      6  N   LIG    1      -38.988  73.345  25.048  0.00  0.00    -0.171 NA
ATOM      7  N   LIG    1      -38.032  73.664  25.950  0.00  0.00    -0.220 N 
ATOM      8  C   LIG    1      -37.372  72.786  26.784  0.00  0.00    +0.118 A 
ATOM      9  C   LIG    1      -36.422  73.234  27.608  0.00  0.00    +0.063 A 
ENDROOT
BRANCH   1  13
ATOM     10  C   LIG    1      -33.037  74.047  31.202  0.00  0.00    +0.012 C 
ATOM     11  C   LIG    1      -33.563  75.167  30.290  0.00  0.00    -0.017 C 
ATOM     12  C   LIG    1      -35.005  74.874  29.836  0.00  0.00    +0.113 C 
ATOM     13  N   LIG    1      -35.066  75.165  28.398  0.00  0.00    -0.307 N 
ATOM     14  C   LIG    1      -33.793  75.719  27.909  0.00  0.00    +0.108 C 
ATOM     15  C   LIG    1      -32.787  75.207  28.962  0.00  0.00    +0.035 C 
ATOM     16  C   LIG    1      -33.448  76.490  31.062  0.00  0.00    +0.012 C 
BRANCH  14  17
ATOM     17  C   LIG    1      -33.859  77.238  27.774  0.00  0.00    +0.011 A 
ATOM     18  C   LIG    1      -32.845  77.954  27.117  0.00  0.00    +0.129 A 
ATOM     19  F   LIG    1      -31.778  77.310  26.621  0.00  0.00    -0.205 F 
ATOM     20  C   LIG    1      -32.905  79.344  26.959  0.00  0.00    +0.041 A 
ATOM     21  C   LIG    1      -33.994  80.055  27.454  0.00  0.00    +0.041 A 
ATOM     22  C   LIG    1      -35.006  79.366  28.105  0.00  0.00    +0.124 A 
ATOM     23  F   LIG    1      -36.056  80.037  28.596  0.00  0.00    -0.205 F 
ATOM     24  C   LIG    1      -34.949  77.984  28.262  0.00  0.00    +0.046 A 
ENDBRANCH  14  17
ENDBRANCH   1  13
BRANCH   4  25
ATOM     25  N   LIG    1      -38.661  76.943  24.726  0.00  0.00    -0.276 N 
ATOM     26  H   LIG    1      -38.011  77.304  24.034  0.00  0.00    +0.155 HD
ATOM     27  C   LIG    1      -39.560  77.808  25.333  0.00  0.00    +0.268 C 
ATOM     28  O   LIG    1      -40.385  77.516  26.185  0.00  0.00    -0.268 OA
BRANCH  27  29
ATOM     29  C   LIG    1      -39.457  79.220  24.892  0.00  0.00    +0.144 A 
ATOM     30  N   LIG    1      -39.542  79.484  23.559  0.00  0.00    -0.247 NA
ATOM     31  C   LIG    1      -39.477  80.799  23.242  0.00  0.00    +0.131 A 
ATOM     32  C   LIG    1      -39.304  81.794  24.194  0.00  0.00    +0.130 A 
ATOM     33  N   LIG    1      -39.201  81.528  25.516  0.00  0.00    -0.259 NA
ATOM     34  C   LIG    1      -39.292  80.215  25.847  0.00  0.00    +0.143 A 
ENDBRANCH  27  29
ENDBRANCH   4  25
TORSDOF 4
ENDMDL
MODEL 8
REMARK VINA RESULT:      -5.7     14.006     20.438
REMARK  Name = pdb/CHEMBL3947950.pdb
REMARK                            x       y       z     vdW  Elec       q    Type
REMARK                         _______ _______ _______ _____ _____    ______ ____
ROOT
ATOM      1  C   LIG    1      -40.748  73.834  24.373  0.00  0.00    +0.126 A 
ATOM      2  N   LIG    1      -39.608  74.351  24.792  0.00  0.00    -0.211 NA
ATOM      3  C   LIG    1      -39.317  75.651  24.435  0.00  0.00    +0.179 A 
ATOM      4  C   LIG    1      -38.221  76.474  24.654  0.00  0.00    +0.098 A 
ATOM      5  C   LIG    1      -38.532  77.681  23.993  0.00  0.00    +0.160 A 
ATOM      6  N   LIG    1      -39.726  77.662  23.407  0.00  0.00    -0.171 NA
ATOM      7  N   LIG    1      -40.202  76.426  23.679  0.00  0.00    -0.220 N 
ATOM      8  C   LIG    1      -41.422  75.916  23.285  0.00  0.00    +0.118 A 
ATOM      9  C   LIG    1      -41.754  74.661  23.596  0.00  0.00    +0.063 A 
ENDROOT
BRANCH   1  13
ATOM     10  C   LIG    1      -43.555  70.558  26.454  0.00  0.00    +0.012 C 
ATOM     11  C   LIG    1      -42.203  70.669  25.733  0.00  0.00    -0.017 C 
ATOM     12  C   LIG    1      -41.578  72.060  25.948  0.00  0.00    +0.113 C 
ATOM     13  N   LIG    1      -41.076  72.507  24.643  0.00  0.00    -0.307 N 
ATOM     14  C   LIG    1      -41.244  71.464  23.618  0.00  0.00    +0.108 C 
ATOM     15  C   LIG    1      -42.384  70.607  24.207  0.00  0.00    +0.035 C 
ATOM     16  C   LIG    1      -41.303  69.535  26.251  0.00  0.00    +0.012 C 
BRANCH  14  17
ATOM     17  C   LIG    1      -39.940  70.711  23.369  0.00  0.00    +0.011 A 
ATOM     18  C   LIG    1      -39.836  69.756  22.345  0.00  0.00    +0.129 A 
ATOM     19  F   LIG    1      -40.901  69.467  21.583  0.00  0.00    -0.205 F 
ATOM     20  C   LIG    1      -38.640  69.076  22.085  0.00  0.00    +0.041 A 
ATOM     21  C   LIG    1      -37.507  69.345  22.848  0.00  0.00    +0.041 A 
ATOM     22  C   LIG    1      -37.589  70.286  23.863  0.00  0.00    +0.124 A 
ATOM     23  F   LIG    1      -36.510  70.548  24.613  0.00  0.00    -0.205 F 
ATOM     24  C   LIG    1      -38.777  70.963  24.122  0.00  0.00    +0.046 A 
ENDBRANCH  14  17
ENDBRANCH   1  13
BRANCH   4  25
ATOM     25  N   LIG    1      -37.088  76.131  25.370  0.00  0.00    -0.276 N 
ATOM     26  H   LIG    1      -36.315  75.714  24.860  0.00  0.00    +0.155 HD
ATOM     27  C   LIG    1      -36.981  76.314  26.741  0.00  0.00    +0.268 C 
ATOM     28  O   LIG    1      -37.831  76.790  27.477  0.00  0.00    -0.268 OA
BRANCH  27  29
ATOM     29  C   LIG    1      -35.703  75.848  27.331  0.00  0.00    +0.144 A 
ATOM     30  N   LIG    1      -35.679  74.625  27.928  0.00  0.00    -0.247 NA
ATOM     31  C   LIG    1      -34.466  74.257  28.407  0.00  0.00    +0.131 A 
ATOM     32  C   LIG    1      -33.348  75.075  28.326  0.00  0.00    +0.130 A 
ATOM     33  N   LIG    1      -33.378  76.298  27.750  0.00  0.00    -0.259 NA
ATOM     34  C   LIG    1      -34.582  76.664  27.242  0.00  0.00    +0.143 A 
ENDBRANCH  27  29
ENDBRANCH   4  25
TORSDOF 4
ENDMDL
MODEL 9
REMARK VINA RESULT:      -5.6     16.970     21.182
REMARK  Name = pdb/CHEMBL3947950.pdb
REMARK                            x       y       z     vdW  Elec       q    Type
REMARK                         _______ _______ _______ _____ _____    ______ ____
ROOT
ATOM      1  C   LIG    1      -36.177  67.599  23.693  0.00  0.00    +0.126 A 
ATOM      2  N   LIG    1      -36.446  68.863  23.956  0.00  0.00    -0.211 NA
ATOM      3  C   LIG    1      -35.761  69.470  24.989  0.00  0.00    +0.179 A 
ATOM      4  C   LIG    1      -35.822  70.735  25.555  0.00  0.00    +0.098 A 
ATOM      5  C   LIG    1      -34.882  70.711  26.607  0.00  0.00    +0.160 A 
ATOM      6  N   LIG    1      -34.250  69.546  26.714  0.00  0.00    -0.171 NA
ATOM      7  N   LIG    1      -34.786  68.793  25.727  0.00  0.00    -0.220 N 
ATOM      8  C   LIG    1      -34.453  67.489  25.423  0.00  0.00    +0.118 A 
ATOM      9  C   LIG    1      -35.088  66.849  24.439  0.00  0.00    +0.063 A 
ENDROOT
BRANCH   1  13
ATOM     10  C   LIG    1      -39.921  64.965  22.283  0.00  0.00    +0.012 C 
ATOM     11  C   LIG    1      -38.540  65.418  21.784  0.00  0.00    -0.017 C 
ATOM     12  C   LIG    1      -37.577  65.642  22.966  0.00  0.00    +0.113 C 
ATOM     13  N   LIG    1      -36.875  66.906  22.707  0.00  0.00    -0.307 N 
ATOM     14  C   LIG    1      -37.243  67.466  21.396  0.00  0.00    +0.108 C 
ATOM     15  C   LIG    1      -38.615  66.809  21.134  0.00  0.00    +0.035 C 
ATOM     16  C   LIG    1      -38.026  64.352  20.804  0.00  0.00    +0.012 C 
BRANCH  14  17
ATOM     17  C   LIG    1      -36.180  67.167  20.343  0.00  0.00    +0.011 A 
ATOM     18  C   LIG    1      -36.350  67.563  19.006  0.00  0.00    +0.129 A 
ATOM     19  F   LIG    1      -37.473  68.188  18.626  0.00  0.00    -0.205 F 
ATOM     20  C   LIG    1      -35.372  67.322  18.033  0.00  0.00    +0.041 A 
ATOM     21  C   LIG    1      -34.187  66.679  18.381  0.00  0.00    +0.041 A 
ATOM     22  C   LIG    1      -34.000  66.281  19.696  0.00  0.00    +0.124 A 
ATOM     23  F   LIG    1      -32.870  65.652  20.044  0.00  0.00    -0.205 F 
ATOM     24  C   LIG    1      -34.971  66.521  20.665  0.00  0.00    +0.046 A 
ENDBRANCH  14  17
ENDBRANCH   1  13
BRANCH   4  25
ATOM     25  N   LIG    1      -36.651  71.763  25.142  0.00  0.00    -0.276 N 
ATOM     26  H   LIG    1      -36.232  72.532  24.628  0.00  0.00    +0.155 HD
ATOM     27  C   LIG    1      -38.010  71.791  25.423  0.00  0.00    +0.268 C 
ATOM     28  O   LIG    1      -38.640  70.946  26.038  0.00  0.00    -0.268 OA
BRANCH  27  29
ATOM     29  C   LIG    1      -38.720  72.996  24.930  0.00  0.00    +0.144 A 
ATOM     30  N   LIG    1      -39.902  72.822  24.277  0.00  0.00    -0.247 NA
ATOM     31  C   LIG    1      -40.506  73.973  23.893  0.00  0.00    +0.131 A 
ATOM     32  C   LIG    1      -39.948  75.224  24.116  0.00  0.00    +0.130 A 
ATOM     33  N   LIG    1      -38.764  75.393  24.747  0.00  0.00    -0.259 NA
ATOM     34  C   LIG    1      -38.164  74.248  25.161  0.00  0.00    +0.143 A 
ENDBRANCH  27  29
ENDBRANCH   4  25
TORSDOF 4
ENDMDL
