MODEL 1
REMARK VINA RESULT:      -5.7      0.000      0.000
REMARK  Name = pdb/CHEMBL254267.pdb
REMARK                            x       y       z     vdW  Elec       q    Type
REMARK                         _______ _______ _______ _____ _____    ______ ____
ROOT
ATOM      1  S   LIG    1      -40.582  75.595  24.759  0.00  0.00    -0.081 S 
ENDROOT
BRANCH   1   7
ATOM      2  C   LIG    1      -38.879  71.902  24.260  0.00  0.00    +0.041 A 
ATOM      3  C   LIG    1      -39.927  71.168  23.678  0.00  0.00    -0.038 A 
ATOM      4  C   LIG    1      -39.906  69.677  23.488  0.00  0.00    +0.044 C 
ATOM      5  C   LIG    1      -41.094  71.851  23.287  0.00  0.00    +0.005 A 
ATOM      6  C   LIG    1      -41.268  73.206  23.573  0.00  0.00    +0.015 A 
ATOM      7  C   LIG    1      -40.268  73.916  24.231  0.00  0.00    +0.014 A 
ATOM      8  C   LIG    1      -39.067  73.272  24.543  0.00  0.00    +0.028 A 
BRANCH   2  11
ATOM      9  C   LIG    1      -38.587  70.873  27.134  0.00  0.00    +0.133 C 
ATOM     10  N   LIG    1      -37.530  70.865  26.135  0.00  0.00    -0.287 N 
ATOM     11  C   LIG    1      -37.631  71.315  24.815  0.00  0.00    +0.247 C 
ATOM     12  O   LIG    1      -36.688  71.205  24.028  0.00  0.00    -0.270 OA
BRANCH  10  13
ATOM     13  C   LIG    1      -36.245  70.264  26.536  0.00  0.00    +0.226 C 
BRANCH  13  14
ATOM     14  C   LIG    1      -35.338  71.203  27.223  0.00  0.00    +0.082 C 
ATOM     15  N   LIG    1      -34.603  71.941  27.738  0.00  0.00    -0.195 NA
ENDBRANCH  13  14
ENDBRANCH  10  13
ENDBRANCH   2  11
ENDBRANCH   1   7
BRANCH   1  16
ATOM     16  C   LIG    1      -38.972  75.956  25.326  0.00  0.00    +0.071 A 
ATOM     17  S   LIG    1      -38.475  75.650  26.922  0.00  0.00    -0.045 S 
ATOM     18  C   LIG    1      -36.856  76.104  26.505  0.00  0.00    +0.164 A 
ATOM     19  N   LIG    1      -36.732  76.617  25.297  0.00  0.00    -0.232 NA
ATOM     20  C   LIG    1      -37.935  76.522  24.620  0.00  0.00    +0.135 A 
BRANCH  18  21
ATOM     21  N   LIG    1      -35.818  76.034  27.372  0.00  0.00    -0.279 N 
ATOM     22  H   LIG    1      -36.050  75.635  28.273  0.00  0.00    +0.155 HD
BRANCH  21  23
ATOM     23  C   LIG    1      -34.832  77.032  27.484  0.00  0.00    +0.126 A 
ATOM     24  N   LIG    1      -35.172  78.288  27.843  0.00  0.00    -0.225 NA
ATOM     25  C   LIG    1      -34.210  79.232  27.862  0.00  0.00    +0.108 A 
ATOM     26 BR   LIG    1      -34.730  80.989  28.355  0.00  0.00    -0.029 Br
ATOM     27  C   LIG    1      -32.888  78.982  27.538  0.00  0.00    +0.035 A 
ATOM     28  C   LIG    1      -32.535  77.682  27.199  0.00  0.00    +0.006 A 
ATOM     29  C   LIG    1      -33.515  76.692  27.187  0.00  0.00    +0.044 A 
ENDBRANCH  21  23
ENDBRANCH  18  21
ENDBRANCH   1  16
TORSDOF 7
ENDMDL
MODEL 2
REMARK VINA RESULT:      -5.4      3.086      7.913
REMARK  Name = pdb/CHEMBL254267.pdb
REMARK                            x       y       z     vdW  Elec       q    Type
REMARK                         _______ _______ _______ _____ _____    ______ ____
ROOT
ATOM      1  S   LIG    1      -34.958  71.146  29.420  0.00  0.00    -0.081 S 
ENDROOT
BRANCH   1   7
ATOM      2  C   LIG    1      -33.541  74.907  28.624  0.00  0.00    +0.041 A 
ATOM      3  C   LIG    1      -32.232  74.845  29.132  0.00  0.00    -0.038 A 
ATOM      4  C   LIG    1      -31.334  76.039  29.294  0.00  0.00    +0.044 C 
ATOM      5  C   LIG    1      -31.733  73.602  29.565  0.00  0.00    +0.005 A 
ATOM      6  C   LIG    1      -32.549  72.470  29.604  0.00  0.00    +0.015 A 
ATOM      7  C   LIG    1      -33.875  72.549  29.185  0.00  0.00    +0.014 A 
ATOM      8  C   LIG    1      -34.357  73.756  28.669  0.00  0.00    +0.028 A 
BRANCH   2  11
ATOM      9  C   LIG    1      -34.859  76.851  30.596  0.00  0.00    +0.133 C 
ATOM     10  N   LIG    1      -34.843  77.014  29.151  0.00  0.00    -0.287 N 
ATOM     11  C   LIG    1      -34.243  76.155  28.224  0.00  0.00    +0.247 C 
ATOM     12  O   LIG    1      -34.234  76.419  27.020  0.00  0.00    -0.270 OA
BRANCH  10  13
ATOM     13  C   LIG    1      -35.465  78.239  28.616  0.00  0.00    +0.226 C 
BRANCH  13  14
ATOM     14  C   LIG    1      -34.878  79.484  29.148  0.00  0.00    +0.082 C 
ATOM     15  N   LIG    1      -34.437  80.482  29.548  0.00  0.00    -0.195 NA
ENDBRANCH  13  14
ENDBRANCH  10  13
ENDBRANCH   2  11
ENDBRANCH   1   7
BRANCH   1  16
ATOM     16  C   LIG    1      -35.554  71.047  27.785  0.00  0.00    +0.071 A 
ATOM     17  S   LIG    1      -37.193  71.276  27.394  0.00  0.00    -0.045 S 
ATOM     18  C   LIG    1      -36.801  71.190  25.707  0.00  0.00    +0.164 A 
ATOM     19  N   LIG    1      -35.556  70.839  25.458  0.00  0.00    -0.232 NA
ATOM     20  C   LIG    1      -34.841  70.768  26.641  0.00  0.00    +0.135 A 
BRANCH  18  21
ATOM     21  N   LIG    1      -37.714  71.370  24.724  0.00  0.00    -0.279 N 
ATOM     22  H   LIG    1      -37.465  70.951  23.836  0.00  0.00    +0.155 HD
BRANCH  21  23
ATOM     23  C   LIG    1      -38.441  72.562  24.549  0.00  0.00    +0.126 A 
ATOM     24  N   LIG    1      -37.903  73.747  24.911  0.00  0.00    -0.225 NA
ATOM     25  C   LIG    1      -38.662  74.855  24.800  0.00  0.00    +0.108 A 
ATOM     26 BR   LIG    1      -37.878  76.498  25.335  0.00  0.00    -0.029 Br
ATOM     27  C   LIG    1      -39.963  74.847  24.329  0.00  0.00    +0.035 A 
ATOM     28  C   LIG    1      -40.503  73.632  23.928  0.00  0.00    +0.006 A 
ATOM     29  C   LIG    1      -39.727  72.478  24.023  0.00  0.00    +0.044 A 
ENDBRANCH  21  23
ENDBRANCH  18  21
ENDBRANCH   1  16
TORSDOF 7
ENDMDL
MODEL 3
REMARK VINA RESULT:      -5.3     16.225     17.382
REMARK  Name = pdb/CHEMBL254267.pdb
REMARK                            x       y       z     vdW  Elec       q    Type
REMARK                         _______ _______ _______ _____ _____    ______ ____
ROOT
ATOM      1  S   LIG    1      -27.572  76.055  10.590  0.00  0.00    -0.081 S 
ENDROOT
BRANCH   1   7
ATOM      2  C   LIG    1      -31.226  77.889  10.855  0.00  0.00    +0.041 A 
ATOM      3  C   LIG    1      -32.088  76.912  10.325  0.00  0.00    -0.038 A 
ATOM      4  C   LIG    1      -33.531  77.157   9.986  0.00  0.00    +0.044 C 
ATOM      5  C   LIG    1      -31.568  75.634  10.045  0.00  0.00    +0.005 A 
ATOM      6  C   LIG    1      -30.206  75.364  10.175  0.00  0.00    +0.015 A 
ATOM      7  C   LIG    1      -29.334  76.356  10.613  0.00  0.00    +0.014 A 
ATOM      8  C   LIG    1      -29.849  77.603  10.981  0.00  0.00    +0.028 A 
BRANCH   2  11
ATOM      9  C   LIG    1      -31.353  80.049   8.682  0.00  0.00    +0.133 C 
ATOM     10  N   LIG    1      -31.632  80.269  10.092  0.00  0.00    -0.287 N 
ATOM     11  C   LIG    1      -31.595  79.307  11.107  0.00  0.00    +0.247 C 
ATOM     12  O   LIG    1      -31.912  79.585  12.265  0.00  0.00    -0.270 OA
BRANCH  10  13
ATOM     13  C   LIG    1      -32.060  81.626  10.479  0.00  0.00    +0.226 C 
BRANCH  13  14
ATOM     14  C   LIG    1      -33.522  81.822  10.436  0.00  0.00    +0.082 C 
ATOM     15  N   LIG    1      -34.673  81.980  10.436  0.00  0.00    -0.195 NA
ENDBRANCH  13  14
ENDBRANCH  10  13
ENDBRANCH   2  11
ENDBRANCH   1   7
BRANCH   1  16
ATOM     16  C   LIG    1      -27.223  76.642  12.195  0.00  0.00    +0.071 A 
ATOM     17  S   LIG    1      -26.402  78.103  12.476  0.00  0.00    -0.045 S 
ATOM     18  C   LIG    1      -26.684  77.933  14.178  0.00  0.00    +0.164 A 
ATOM     19  N   LIG    1      -27.204  76.774  14.527  0.00  0.00    -0.232 NA
ATOM     20  C   LIG    1      -27.523  76.042  13.397  0.00  0.00    +0.135 A 
BRANCH  18  21
ATOM     21  N   LIG    1      -26.314  78.866  15.088  0.00  0.00    -0.279 N 
ATOM     22  H   LIG    1      -27.010  79.579  15.266  0.00  0.00    +0.155 HD
BRANCH  21  23
ATOM     23  C   LIG    1      -25.008  79.380  15.183  0.00  0.00    +0.126 A 
ATOM     24  N   LIG    1      -24.760  80.672  14.880  0.00  0.00    -0.225 NA
ATOM     25  C   LIG    1      -23.484  81.104  14.910  0.00  0.00    +0.108 A 
ATOM     26 BR   LIG    1      -23.174  82.921  14.460  0.00  0.00    -0.029 Br
ATOM     27  C   LIG    1      -22.410  80.296  15.239  0.00  0.00    +0.035 A 
ATOM     28  C   LIG    1      -22.671  78.975  15.581  0.00  0.00    +0.006 A 
ATOM     29  C   LIG    1      -23.987  78.515  15.569  0.00  0.00    +0.044 A 
ENDBRANCH  21  23
ENDBRANCH  18  21
ENDBRANCH   1  16
TORSDOF 7
ENDMDL
MODEL 4
REMARK VINA RESULT:      -5.2     17.494     20.526
REMARK  Name = pdb/CHEMBL254267.pdb
REMARK                            x       y       z     vdW  Elec       q    Type
REMARK                         _______ _______ _______ _____ _____    ______ ____
ROOT
ATOM      1  S   LIG    1      -22.858  78.272  12.597  0.00  0.00    -0.081 S 
ENDROOT
BRANCH   1   7
ATOM      2  C   LIG    1      -22.169  81.889  14.392  0.00  0.00    +0.041 A 
ATOM      3  C   LIG    1      -22.403  81.597  15.748  0.00  0.00    -0.038 A 
ATOM      4  C   LIG    1      -22.501  82.637  16.828  0.00  0.00    +0.044 C 
ATOM      5  C   LIG    1      -22.607  80.256  16.124  0.00  0.00    +0.005 A 
ATOM      6  C   LIG    1      -22.695  79.243  15.169  0.00  0.00    +0.015 A 
ATOM      7  C   LIG    1      -22.553  79.542  13.816  0.00  0.00    +0.014 A 
ATOM      8  C   LIG    1      -22.260  80.855  13.435  0.00  0.00    +0.028 A 
BRANCH   2  11
ATOM      9  C   LIG    1      -19.492  83.306  13.914  0.00  0.00    +0.133 C 
ATOM     10  N   LIG    1      -20.798  83.876  13.629  0.00  0.00    -0.287 N 
ATOM     11  C   LIG    1      -22.037  83.256  13.824  0.00  0.00    +0.247 C 
ATOM     12  O   LIG    1      -23.088  83.807  13.490  0.00  0.00    -0.270 OA
BRANCH  10  13
ATOM     13  C   LIG    1      -20.816  85.216  13.014  0.00  0.00    +0.226 C 
BRANCH  13  14
ATOM     14  C   LIG    1      -20.123  86.246  13.814  0.00  0.00    +0.082 C 
ATOM     15  N   LIG    1      -19.577  87.076  14.416  0.00  0.00    -0.195 NA
ENDBRANCH  13  14
ENDBRANCH  10  13
ENDBRANCH   2  11
ENDBRANCH   1   7
BRANCH   1  16
ATOM     16  C   LIG    1      -24.465  77.841  13.119  0.00  0.00    +0.071 A 
ATOM     17  S   LIG    1      -25.838  78.750  12.698  0.00  0.00    -0.045 S 
ATOM     18  C   LIG    1      -26.855  77.555  13.433  0.00  0.00    +0.164 A 
ATOM     19  N   LIG    1      -26.201  76.626  14.101  0.00  0.00    -0.232 NA
ATOM     20  C   LIG    1      -24.839  76.781  13.914  0.00  0.00    +0.135 A 
BRANCH  18  21
ATOM     21  N   LIG    1      -28.207  77.616  13.411  0.00  0.00    -0.279 N 
ATOM     22  H   LIG    1      -28.665  77.046  14.111  0.00  0.00    +0.155 HD
BRANCH  21  23
ATOM     23  C   LIG    1      -28.961  77.686  12.225  0.00  0.00    +0.126 A 
ATOM     24  N   LIG    1      -29.780  78.736  11.998  0.00  0.00    -0.225 NA
ATOM     25  C   LIG    1      -30.541  78.726  10.887  0.00  0.00    +0.108 A 
ATOM     26 BR   LIG    1      -31.692  80.209  10.613  0.00  0.00    -0.029 Br
ATOM     27  C   LIG    1      -30.528  77.699   9.959  0.00  0.00    +0.035 A 
ATOM     28  C   LIG    1      -29.662  76.635  10.179  0.00  0.00    +0.006 A 
ATOM     29  C   LIG    1      -28.857  76.636  11.316  0.00  0.00    +0.044 A 
ENDBRANCH  21  23
ENDBRANCH  18  21
ENDBRANCH   1  16
TORSDOF 7
ENDMDL
MODEL 5
REMARK VINA RESULT:      -5.2      5.013      9.445
REMARK  Name = pdb/CHEMBL254267.pdb
REMARK                            x       y       z     vdW  Elec       q    Type
REMARK                         _______ _______ _______ _____ _____    ______ ____
ROOT
ATOM      1  S   LIG    1      -35.998  71.374  28.202  0.00  0.00    -0.081 S 
ENDROOT
BRANCH   1   7
ATOM      2  C   LIG    1      -33.436  74.557  28.492  0.00  0.00    +0.041 A 
ATOM      3  C   LIG    1      -32.397  74.031  29.281  0.00  0.00    -0.038 A 
ATOM      4  C   LIG    1      -31.291  74.857  29.876  0.00  0.00    +0.044 C 
ATOM      5  C   LIG    1      -32.406  72.655  29.579  0.00  0.00    +0.005 A 
ATOM      6  C   LIG    1      -33.477  71.842  29.207  0.00  0.00    +0.015 A 
ATOM      7  C   LIG    1      -34.552  72.379  28.503  0.00  0.00    +0.014 A 
ATOM      8  C   LIG    1      -34.513  73.724  28.121  0.00  0.00    +0.028 A 
BRANCH   2  11
ATOM      9  C   LIG    1      -34.728  76.585  30.394  0.00  0.00    +0.133 C 
ATOM     10  N   LIG    1      -34.226  76.893  29.064  0.00  0.00    -0.287 N 
ATOM     11  C   LIG    1      -33.622  75.997  28.176  0.00  0.00    +0.247 C 
ATOM     12  O   LIG    1      -33.172  76.376  27.092  0.00  0.00    -0.270 OA
BRANCH  10  13
ATOM     13  C   LIG    1      -34.303  78.302  28.638  0.00  0.00    +0.226 C 
BRANCH  13  14
ATOM     14  C   LIG    1      -35.606  78.675  28.053  0.00  0.00    +0.082 C 
ATOM     15  N   LIG    1      -36.615  78.987  27.569  0.00  0.00    -0.195 NA
ENDBRANCH  13  14
ENDBRANCH  10  13
ENDBRANCH   2  11
ENDBRANCH   1   7
BRANCH   1  16
ATOM     16  C   LIG    1      -35.316  70.368  26.951  0.00  0.00    +0.071 A 
ATOM     17  S   LIG    1      -35.655  68.707  26.827  0.00  0.00    -0.045 S 
ATOM     18  C   LIG    1      -34.778  68.640  25.334  0.00  0.00    +0.164 A 
ATOM     19  N   LIG    1      -34.129  69.748  25.038  0.00  0.00    -0.232 NA
ATOM     20  C   LIG    1      -34.443  70.737  25.953  0.00  0.00    +0.135 A 
BRANCH  18  21
ATOM     21  N   LIG    1      -34.683  67.520  24.579  0.00  0.00    -0.279 N 
ATOM     22  H   LIG    1      -33.826  66.998  24.708  0.00  0.00    +0.155 HD
BRANCH  21  23
ATOM     23  C   LIG    1      -35.147  67.438  23.253  0.00  0.00    +0.126 A 
ATOM     24  N   LIG    1      -36.233  68.141  22.865  0.00  0.00    -0.225 NA
ATOM     25  C   LIG    1      -36.690  67.973  21.609  0.00  0.00    +0.108 A 
ATOM     26 BR   LIG    1      -38.227  68.965  21.107  0.00  0.00    -0.029 Br
ATOM     27  C   LIG    1      -36.104  67.121  20.689  0.00  0.00    +0.035 A 
ATOM     28  C   LIG    1      -34.969  66.422  21.080  0.00  0.00    +0.006 A 
ATOM     29  C   LIG    1      -34.475  66.595  22.372  0.00  0.00    +0.044 A 
ENDBRANCH  21  23
ENDBRANCH  18  21
ENDBRANCH   1  16
TORSDOF 7
ENDMDL
MODEL 6
REMARK VINA RESULT:      -5.2      4.229      9.080
REMARK  Name = pdb/CHEMBL254267.pdb
REMARK                            x       y       z     vdW  Elec       q    Type
REMARK                         _______ _______ _______ _____ _____    ______ ____
ROOT
ATOM      1  S   LIG    1      -34.780  71.162  29.499  0.00  0.00    -0.081 S 
ENDROOT
BRANCH   1   7
ATOM      2  C   LIG    1      -33.060  74.811  28.788  0.00  0.00    +0.041 A 
ATOM      3  C   LIG    1      -31.820  74.687  29.440  0.00  0.00    -0.038 A 
ATOM      4  C   LIG    1      -30.875  75.831  29.676  0.00  0.00    +0.044 C 
ATOM      5  C   LIG    1      -31.448  73.429  29.950  0.00  0.00    +0.005 A 
ATOM      6  C   LIG    1      -32.331  72.348  29.922  0.00  0.00    +0.015 A 
ATOM      7  C   LIG    1      -33.595  72.492  29.357  0.00  0.00    +0.014 A 
ATOM      8  C   LIG    1      -33.944  73.710  28.766  0.00  0.00    +0.028 A 
BRANCH   2  11
ATOM      9  C   LIG    1      -34.685  76.760  30.509  0.00  0.00    +0.133 C 
ATOM     10  N   LIG    1      -34.383  76.947  29.099  0.00  0.00    -0.287 N 
ATOM     11  C   LIG    1      -33.637  76.086  28.288  0.00  0.00    +0.247 C 
ATOM     12  O   LIG    1      -33.386  76.370  27.115  0.00  0.00    -0.270 OA
BRANCH  10  13
ATOM     13  C   LIG    1      -34.856  78.199  28.482  0.00  0.00    +0.226 C 
BRANCH  13  14
ATOM     14  C   LIG    1      -36.115  78.051  27.727  0.00  0.00    +0.082 C 
ATOM     15  N   LIG    1      -37.089  77.920  27.107  0.00  0.00    -0.195 NA
ENDBRANCH  13  14
ENDBRANCH  10  13
ENDBRANCH   2  11
ENDBRANCH   1   7
BRANCH   1  16
ATOM     16  C   LIG    1      -35.140  70.999  27.800  0.00  0.00    +0.071 A 
ATOM     17  S   LIG    1      -36.565  71.612  27.105  0.00  0.00    -0.045 S 
ATOM     18  C   LIG    1      -35.980  71.183  25.531  0.00  0.00    +0.164 A 
ATOM     19  N   LIG    1      -34.871  70.472  25.541  0.00  0.00    -0.232 NA
ATOM     20  C   LIG    1      -34.385  70.376  26.833  0.00  0.00    +0.135 A 
BRANCH  18  21
ATOM     21  N   LIG    1      -36.650  71.466  24.388  0.00  0.00    -0.279 N 
ATOM     22  H   LIG    1      -37.020  72.407  24.339  0.00  0.00    +0.155 HD
BRANCH  21  23
ATOM     23  C   LIG    1      -37.486  70.544  23.732  0.00  0.00    +0.126 A 
ATOM     24  N   LIG    1      -36.976  69.690  22.819  0.00  0.00    -0.225 NA
ATOM     25  C   LIG    1      -37.823  68.877  22.158  0.00  0.00    +0.108 A 
ATOM     26 BR   LIG    1      -37.071  67.704  20.870  0.00  0.00    -0.029 Br
ATOM     27  C   LIG    1      -39.192  68.867  22.365  0.00  0.00    +0.035 A 
ATOM     28  C   LIG    1      -39.710  69.724  23.327  0.00  0.00    +0.006 A 
ATOM     29  C   LIG    1      -38.846  70.561  24.031  0.00  0.00    +0.044 A 
ENDBRANCH  21  23
ENDBRANCH  18  21
ENDBRANCH   1  16
TORSDOF 7
ENDMDL
MODEL 7
REMARK VINA RESULT:      -5.2      9.312     10.952
REMARK  Name = pdb/CHEMBL254267.pdb
REMARK                            x       y       z     vdW  Elec       q    Type
REMARK                         _______ _______ _______ _____ _____    ______ ____
ROOT
ATOM      1  S   LIG    1      -34.092  65.754  17.830  0.00  0.00    -0.081 S 
ENDROOT
BRANCH   1   7
ATOM      2  C   LIG    1      -36.230  67.275  20.976  0.00  0.00    +0.041 A 
ATOM      3  C   LIG    1      -37.223  68.027  20.325  0.00  0.00    -0.038 A 
ATOM      4  C   LIG    1      -38.153  68.978  21.024  0.00  0.00    +0.044 C 
ATOM      5  C   LIG    1      -37.335  67.928  18.925  0.00  0.00    +0.005 A 
ATOM      6  C   LIG    1      -36.412  67.197  18.176  0.00  0.00    +0.015 A 
ATOM      7  C   LIG    1      -35.372  66.524  18.811  0.00  0.00    +0.014 A 
ATOM      8  C   LIG    1      -35.302  66.539  20.208  0.00  0.00    +0.028 A 
BRANCH   2  11
ATOM      9  C   LIG    1      -37.734  65.707  23.140  0.00  0.00    +0.133 C 
ATOM     10  N   LIG    1      -36.635  66.625  23.390  0.00  0.00    -0.287 N 
ATOM     11  C   LIG    1      -35.920  67.347  22.429  0.00  0.00    +0.247 C 
ATOM     12  O   LIG    1      -34.960  68.054  22.743  0.00  0.00    -0.270 OA
BRANCH  10  13
ATOM     13  C   LIG    1      -36.189  66.758  24.789  0.00  0.00    +0.226 C 
BRANCH  13  14
ATOM     14  C   LIG    1      -37.038  67.650  25.601  0.00  0.00    +0.082 C 
ATOM     15  N   LIG    1      -37.733  68.330  26.237  0.00  0.00    -0.195 NA
ENDBRANCH  13  14
ENDBRANCH  10  13
ENDBRANCH   2  11
ENDBRANCH   1   7
BRANCH   1  16
ATOM     16  C   LIG    1      -32.892  67.008  18.003  0.00  0.00    +0.071 A 
ATOM     17  S   LIG    1      -31.852  67.099  19.344  0.00  0.00    -0.045 S 
ATOM     18  C   LIG    1      -30.997  68.406  18.591  0.00  0.00    +0.164 A 
ATOM     19  N   LIG    1      -31.562  68.858  17.490  0.00  0.00    -0.232 NA
ATOM     20  C   LIG    1      -32.635  68.055  17.148  0.00  0.00    +0.135 A 
BRANCH  18  21
ATOM     21  N   LIG    1      -29.899  68.984  19.133  0.00  0.00    -0.279 N 
ATOM     22  H   LIG    1      -30.023  69.951  19.403  0.00  0.00    +0.155 HD
BRANCH  21  23
ATOM     23  C   LIG    1      -28.590  68.734  18.680  0.00  0.00    +0.126 A 
ATOM     24  N   LIG    1      -27.815  69.749  18.242  0.00  0.00    -0.225 NA
ATOM     25  C   LIG    1      -26.597  69.457  17.745  0.00  0.00    +0.108 A 
ATOM     26 BR   LIG    1      -25.545  70.909  17.122  0.00  0.00    -0.029 Br
ATOM     27  C   LIG    1      -26.093  68.171  17.663  0.00  0.00    +0.035 A 
ATOM     28  C   LIG    1      -26.879  67.132  18.143  0.00  0.00    +0.006 A 
ATOM     29  C   LIG    1      -28.135  67.418  18.674  0.00  0.00    +0.044 A 
ENDBRANCH  21  23
ENDBRANCH  18  21
ENDBRANCH   1  16
TORSDOF 7
ENDMDL
MODEL 8
REMARK VINA RESULT:      -5.2     15.268     18.665
REMARK  Name = pdb/CHEMBL254267.pdb
REMARK                            x       y       z     vdW  Elec       q    Type
REMARK                         _______ _______ _______ _____ _____    ______ ____
ROOT
ATOM      1  S   LIG    1      -19.550  75.285  31.214  0.00  0.00    -0.081 S 
ENDROOT
BRANCH   1   7
ATOM      2  C   LIG    1      -23.345  76.684  31.863  0.00  0.00    +0.041 A 
ATOM      3  C   LIG    1      -23.657  77.283  30.630  0.00  0.00    -0.038 A 
ATOM      4  C   LIG    1      -24.862  78.148  30.395  0.00  0.00    +0.044 C 
ATOM      5  C   LIG    1      -22.769  77.108  29.552  0.00  0.00    +0.005 A 
ATOM      6  C   LIG    1      -21.546  76.458  29.721  0.00  0.00    +0.015 A 
ATOM      7  C   LIG    1      -21.194  75.942  30.965  0.00  0.00    +0.014 A 
ATOM      8  C   LIG    1      -22.105  76.029  32.022  0.00  0.00    +0.028 A 
BRANCH   2  11
ATOM      9  C   LIG    1      -22.693  78.759  34.025  0.00  0.00    +0.133 C 
ATOM     10  N   LIG    1      -23.792  77.809  34.088  0.00  0.00    -0.287 N 
ATOM     11  C   LIG    1      -24.125  76.858  33.117  0.00  0.00    +0.247 C 
ATOM     12  O   LIG    1      -25.119  76.139  33.240  0.00  0.00    -0.270 OA
BRANCH  10  13
ATOM     13  C   LIG    1      -24.681  77.901  35.260  0.00  0.00    +0.226 C 
BRANCH  13  14
ATOM     14  C   LIG    1      -25.011  79.286  35.648  0.00  0.00    +0.082 C 
ATOM     15  N   LIG    1      -25.250  80.387  35.929  0.00  0.00    -0.195 NA
ENDBRANCH  13  14
ENDBRANCH  10  13
ENDBRANCH   2  11
ENDBRANCH   1   7
BRANCH   1  16
ATOM     16  C   LIG    1      -18.946  76.570  32.228  0.00  0.00    +0.071 A 
ATOM     17  S   LIG    1      -18.648  76.362  33.888  0.00  0.00    -0.045 S 
ATOM     18  C   LIG    1      -17.962  77.952  33.964  0.00  0.00    +0.164 A 
ATOM     19  N   LIG    1      -18.107  78.656  32.859  0.00  0.00    -0.232 NA
ATOM     20  C   LIG    1      -18.657  77.866  31.866  0.00  0.00    +0.135 A 
BRANCH  18  21
ATOM     21  N   LIG    1      -17.411  78.469  35.087  0.00  0.00    -0.279 N 
ATOM     22  H   LIG    1      -16.695  77.892  35.509  0.00  0.00    +0.155 HD
BRANCH  21  23
ATOM     23  C   LIG    1      -18.147  79.175  36.057  0.00  0.00    +0.126 A 
ATOM     24  N   LIG    1      -19.272  79.838  35.711  0.00  0.00    -0.225 NA
ATOM     25  C   LIG    1      -19.903  80.565  36.654  0.00  0.00    +0.108 A 
ATOM     26 BR   LIG    1      -21.469  81.496  36.125  0.00  0.00    -0.029 Br
ATOM     27  C   LIG    1      -19.464  80.666  37.962  0.00  0.00    +0.035 A 
ATOM     28  C   LIG    1      -18.325  79.959  38.324  0.00  0.00    +0.006 A 
ATOM     29  C   LIG    1      -17.668  79.191  37.364  0.00  0.00    +0.044 A 
ENDBRANCH  21  23
ENDBRANCH  18  21
ENDBRANCH   1  16
TORSDOF 7
ENDMDL
MODEL 9
REMARK VINA RESULT:      -5.1      3.414      5.104
REMARK  Name = pdb/CHEMBL254267.pdb
REMARK                            x       y       z     vdW  Elec       q    Type
REMARK                         _______ _______ _______ _____ _____    ______ ____
ROOT
ATOM      1  S   LIG    1      -40.894  76.687  24.612  0.00  0.00    -0.081 S 
ENDROOT
BRANCH   1   7
ATOM      2  C   LIG    1      -42.436  73.220  23.067  0.00  0.00    +0.041 A 
ATOM      3  C   LIG    1      -41.347  72.337  23.172  0.00  0.00    -0.038 A 
ATOM      4  C   LIG    1      -41.304  70.975  22.540  0.00  0.00    +0.044 C 
ATOM      5  C   LIG    1      -40.199  72.761  23.868  0.00  0.00    +0.005 A 
ATOM      6  C   LIG    1      -40.086  74.067  24.347  0.00  0.00    +0.015 A 
ATOM      7  C   LIG    1      -41.128  74.972  24.166  0.00  0.00    +0.014 A 
ATOM      8  C   LIG    1      -42.309  74.538  23.556  0.00  0.00    +0.028 A 
BRANCH   2  11
ATOM      9  C   LIG    1      -44.889  71.736  24.156  0.00  0.00    +0.133 C 
ATOM     10  N   LIG    1      -44.769  72.270  22.809  0.00  0.00    -0.287 N 
ATOM     11  C   LIG    1      -43.672  72.961  22.283  0.00  0.00    +0.247 C 
ATOM     12  O   LIG    1      -43.698  73.429  21.143  0.00  0.00    -0.270 OA
BRANCH  10  13
ATOM     13  C   LIG    1      -45.946  72.126  21.932  0.00  0.00    +0.226 C 
BRANCH  13  14
ATOM     14  C   LIG    1      -46.201  70.737  21.504  0.00  0.00    +0.082 C 
ATOM     15  N   LIG    1      -46.413  69.636  21.198  0.00  0.00    -0.195 NA
ENDBRANCH  13  14
ENDBRANCH  10  13
ENDBRANCH   2  11
ENDBRANCH   1   7
BRANCH   1  16
ATOM     16  C   LIG    1      -39.215  76.572  25.069  0.00  0.00    +0.071 A 
ATOM     17  S   LIG    1      -38.721  76.159  26.642  0.00  0.00    -0.045 S 
ATOM     18  C   LIG    1      -37.072  76.116  26.113  0.00  0.00    +0.164 A 
ATOM     19  N   LIG    1      -36.886  76.552  24.883  0.00  0.00    -0.232 NA
ATOM     20  C   LIG    1      -38.108  76.801  24.283  0.00  0.00    +0.135 A 
BRANCH  18  21
ATOM     21  N   LIG    1      -36.043  75.759  26.918  0.00  0.00    -0.279 N 
ATOM     22  H   LIG    1      -36.299  75.143  27.679  0.00  0.00    +0.155 HD
BRANCH  21  23
ATOM     23  C   LIG    1      -35.007  76.638  27.287  0.00  0.00    +0.126 A 
ATOM     24  N   LIG    1      -35.272  77.938  27.537  0.00  0.00    -0.225 NA
ATOM     25  C   LIG    1      -34.241  78.761  27.811  0.00  0.00    +0.108 A 
ATOM     26 BR   LIG    1      -34.652  80.584  28.138  0.00  0.00    -0.029 Br
ATOM     27  C   LIG    1      -32.922  78.346  27.855  0.00  0.00    +0.035 A 
ATOM     28  C   LIG    1      -32.655  77.001  27.629  0.00  0.00    +0.006 A 
ATOM     29  C   LIG    1      -33.711  76.133  27.358  0.00  0.00    +0.044 A 
ENDBRANCH  21  23
ENDBRANCH  18  21
ENDBRANCH   1  16
TORSDOF 7
ENDMDL
