MODEL 1
REMARK VINA RESULT:      -6.8      0.000      0.000
REMARK  Name = pdb/CHEMBL3957798.pdb
REMARK                            x       y       z     vdW  Elec       q    Type
REMARK                         _______ _______ _______ _____ _____    ______ ____
ROOT
ATOM      1  C   LIG    1      -37.977  76.088  24.980  0.00  0.00    +0.147 A 
ATOM      2  N   LIG    1      -38.512  74.843  24.699  0.00  0.00    -0.197 N 
ATOM      3  N   LIG    1      -37.884  73.645  24.903  0.00  0.00    -0.148 NA
ATOM      4  C   LIG    1      -38.617  72.592  24.621  0.00  0.00    +0.143 A 
ATOM      5  C   LIG    1      -40.043  72.719  24.142  0.00  0.00    +0.049 A 
ATOM      6  C   LIG    1      -40.574  73.931  23.954  0.00  0.00    +0.051 A 
ATOM      7  C   LIG    1      -39.790  75.064  24.220  0.00  0.00    +0.156 A 
ATOM      8  N   LIG    1      -40.061  76.345  24.107  0.00  0.00    -0.233 NA
ATOM      9  C   LIG    1      -38.939  76.988  24.567  0.00  0.00    +0.157 A 
ENDROOT
BRANCH   4  10
ATOM     10  N   LIG    1      -38.084  71.320  24.772  0.00  0.00    -0.307 N 
ATOM     11  C   LIG    1      -38.044  70.598  26.048  0.00  0.00    +0.108 C 
ATOM     12  C   LIG    1      -38.541  69.198  25.659  0.00  0.00    +0.029 C 
ATOM     13  C   LIG    1      -38.091  68.992  24.220  0.00  0.00    +0.021 C 
ATOM     14  C   LIG    1      -37.917  70.395  23.649  0.00  0.00    +0.107 C 
BRANCH  11  15
ATOM     15  C   LIG    1      -36.651  70.665  26.654  0.00  0.00    +0.011 A 
ATOM     16  C   LIG    1      -36.341  71.698  27.551  0.00  0.00    +0.129 A 
ATOM     17  F   LIG    1      -37.275  72.601  27.882  0.00  0.00    -0.205 F 
ATOM     18  C   LIG    1      -35.079  71.811  28.144  0.00  0.00    +0.041 A 
ATOM     19  C   LIG    1      -34.088  70.879  27.847  0.00  0.00    +0.041 A 
ATOM     20  C   LIG    1      -34.373  69.855  26.958  0.00  0.00    +0.124 A 
ATOM     21  F   LIG    1      -33.432  68.948  26.668  0.00  0.00    -0.205 F 
ATOM     22  C   LIG    1      -35.630  69.744  26.363  0.00  0.00    +0.046 A 
ENDBRANCH  11  15
ENDBRANCH   4  10
BRANCH   1  24
ATOM     23  C   LIG    1      -36.498  76.130  26.970  0.00  0.00    +0.269 C 
ATOM     24  N   LIG    1      -36.737  76.313  25.572  0.00  0.00    -0.264 N 
ATOM     25  H   LIG    1      -35.977  76.611  24.964  0.00  0.00    +0.157 HD
ATOM     26  O   LIG    1      -37.368  75.801  27.751  0.00  0.00    -0.268 OA
BRANCH  23  33
ATOM     27  C   LIG    1      -32.250  78.445  26.733  0.00  0.00    +0.176 C 
ATOM     28  N   LIG    1      -33.052  77.396  27.332  0.00  0.00    -0.232 N 
ATOM     29  C   LIG    1      -32.500  76.666  28.382  0.00  0.00    +0.267 A 
ATOM     30  O   LIG    1      -31.367  76.820  28.827  0.00  0.00    -0.266 OA
ATOM     31  C   LIG    1      -33.371  75.632  28.978  0.00  0.00    +0.074 A 
ATOM     32  C   LIG    1      -34.617  75.452  28.538  0.00  0.00    +0.040 A 
ATOM     33  C   LIG    1      -35.063  76.325  27.435  0.00  0.00    +0.146 A 
ATOM     34  N   LIG    1      -34.337  77.225  26.845  0.00  0.00    -0.164 NA
ENDBRANCH  23  33
ENDBRANCH   1  24
TORSDOF 4
ENDMDL
MODEL 2
REMARK VINA RESULT:      -6.7      2.138      3.767
REMARK  Name = pdb/CHEMBL3957798.pdb
REMARK                            x       y       z     vdW  Elec       q    Type
REMARK                         _______ _______ _______ _____ _____    ______ ____
ROOT
ATOM      1  C   LIG    1      -38.021  76.240  24.786  0.00  0.00    +0.147 A 
ATOM      2  N   LIG    1      -38.683  75.045  24.566  0.00  0.00    -0.197 N 
ATOM      3  N   LIG    1      -38.193  73.801  24.856  0.00  0.00    -0.148 NA
ATOM      4  C   LIG    1      -39.031  72.818  24.620  0.00  0.00    +0.143 A 
ATOM      5  C   LIG    1      -40.426  73.069  24.099  0.00  0.00    +0.049 A 
ATOM      6  C   LIG    1      -40.819  74.316  23.826  0.00  0.00    +0.051 A 
ATOM      7  C   LIG    1      -39.920  75.373  24.044  0.00  0.00    +0.156 A 
ATOM      8  N   LIG    1      -40.048  76.666  23.848  0.00  0.00    -0.233 NA
ATOM      9  C   LIG    1      -38.871  77.211  24.296  0.00  0.00    +0.157 A 
ENDROOT
BRANCH   4  10
ATOM     10  N   LIG    1      -38.643  71.508  24.860  0.00  0.00    -0.307 N 
ATOM     11  C   LIG    1      -37.828  70.715  23.934  0.00  0.00    +0.108 C 
ATOM     12  C   LIG    1      -36.780  70.084  24.862  0.00  0.00    +0.029 C 
ATOM     13  C   LIG    1      -37.479  69.906  26.202  0.00  0.00    +0.021 C 
ATOM     14  C   LIG    1      -38.610  70.928  26.204  0.00  0.00    +0.107 C 
BRANCH  11  15
ATOM     15  C   LIG    1      -38.700  69.742  23.156  0.00  0.00    +0.011 A 
ATOM     16  C   LIG    1      -38.161  69.072  22.047  0.00  0.00    +0.129 A 
ATOM     17  F   LIG    1      -36.883  69.276  21.697  0.00  0.00    -0.205 F 
ATOM     18  C   LIG    1      -38.912  68.163  21.295  0.00  0.00    +0.041 A 
ATOM     19  C   LIG    1      -40.235  67.903  21.640  0.00  0.00    +0.041 A 
ATOM     20  C   LIG    1      -40.787  68.561  22.728  0.00  0.00    +0.124 A 
ATOM     21  F   LIG    1      -42.056  68.316  23.076  0.00  0.00    -0.205 F 
ATOM     22  C   LIG    1      -40.041  69.470  23.477  0.00  0.00    +0.046 A 
ENDBRANCH  11  15
ENDBRANCH   4  10
BRANCH   1  24
ATOM     23  C   LIG    1      -36.594  76.334  26.812  0.00  0.00    +0.269 C 
ATOM     24  N   LIG    1      -36.774  76.367  25.393  0.00  0.00    -0.264 N 
ATOM     25  H   LIG    1      -35.966  76.476  24.783  0.00  0.00    +0.157 HD
ATOM     26  O   LIG    1      -37.518  76.233  27.593  0.00  0.00    -0.268 OA
BRANCH  23  33
ATOM     27  C   LIG    1      -32.332  78.604  27.192  0.00  0.00    +0.176 C 
ATOM     28  N   LIG    1      -33.138  77.436  27.487  0.00  0.00    -0.232 N 
ATOM     29  C   LIG    1      -32.587  76.444  28.296  0.00  0.00    +0.267 A 
ATOM     30  O   LIG    1      -31.452  76.466  28.760  0.00  0.00    -0.266 OA
ATOM     31  C   LIG    1      -33.463  75.292  28.592  0.00  0.00    +0.074 A 
ATOM     32  C   LIG    1      -34.712  75.245  28.126  0.00  0.00    +0.040 A 
ATOM     33  C   LIG    1      -35.156  76.388  27.305  0.00  0.00    +0.146 A 
ATOM     34  N   LIG    1      -34.426  77.410  26.978  0.00  0.00    -0.164 NA
ENDBRANCH  23  33
ENDBRANCH   1  24
TORSDOF 4
ENDMDL
MODEL 3
REMARK VINA RESULT:      -6.5     17.518     19.845
REMARK  Name = pdb/CHEMBL3957798.pdb
REMARK                            x       y       z     vdW  Elec       q    Type
REMARK                         _______ _______ _______ _____ _____    ______ ____
ROOT
ATOM      1  C   LIG    1      -31.886  93.678  22.819  0.00  0.00    +0.147 A 
ATOM      2  N   LIG    1      -32.169  93.323  21.512  0.00  0.00    -0.197 N 
ATOM      3  N   LIG    1      -33.208  92.527  21.113  0.00  0.00    -0.148 NA
ATOM      4  C   LIG    1      -33.315  92.384  19.812  0.00  0.00    +0.143 A 
ATOM      5  C   LIG    1      -32.375  93.077  18.855  0.00  0.00    +0.049 A 
ATOM      6  C   LIG    1      -31.376  93.825  19.331  0.00  0.00    +0.051 A 
ATOM      7  C   LIG    1      -31.231  93.959  20.721  0.00  0.00    +0.156 A 
ATOM      8  N   LIG    1      -30.343  94.613  21.436  0.00  0.00    -0.233 NA
ATOM      9  C   LIG    1      -30.735  94.436  22.739  0.00  0.00    +0.157 A 
ENDROOT
BRANCH   4  10
ATOM     10  N   LIG    1      -34.320  91.586  19.286  0.00  0.00    -0.307 N 
ATOM     11  C   LIG    1      -34.131  90.185  18.896  0.00  0.00    +0.108 C 
ATOM     12  C   LIG    1      -35.354  89.493  19.515  0.00  0.00    +0.029 C 
ATOM     13  C   LIG    1      -36.461  90.539  19.504  0.00  0.00    +0.021 C 
ATOM     14  C   LIG    1      -35.742  91.883  19.471  0.00  0.00    +0.107 C 
BRANCH  11  15
ATOM     15  C   LIG    1      -33.993  90.067  17.386  0.00  0.00    +0.011 A 
ATOM     16  C   LIG    1      -33.496  88.877  16.832  0.00  0.00    +0.129 A 
ATOM     17  F   LIG    1      -33.169  87.851  17.631  0.00  0.00    -0.205 F 
ATOM     18  C   LIG    1      -33.350  88.708  15.451  0.00  0.00    +0.041 A 
ATOM     19  C   LIG    1      -33.702  89.739  14.585  0.00  0.00    +0.041 A 
ATOM     20  C   LIG    1      -34.189  90.925  15.114  0.00  0.00    +0.124 A 
ATOM     21  F   LIG    1      -34.538  91.922  14.292  0.00  0.00    -0.205 F 
ATOM     22  C   LIG    1      -34.331  91.097  16.491  0.00  0.00    +0.046 A 
ENDBRANCH  11  15
ENDBRANCH   4  10
BRANCH   1  24
ATOM     23  C   LIG    1      -32.255  92.312  24.856  0.00  0.00    +0.269 C 
ATOM     24  N   LIG    1      -32.650  93.328  23.929  0.00  0.00    -0.264 N 
ATOM     25  H   LIG    1      -33.520  93.836  24.076  0.00  0.00    +0.157 HD
ATOM     26  O   LIG    1      -31.243  91.654  24.722  0.00  0.00    -0.268 OA
BRANCH  23  33
ATOM     27  C   LIG    1      -33.166  90.351  29.190  0.00  0.00    +0.176 C 
ATOM     28  N   LIG    1      -33.608  91.203  28.104  0.00  0.00    -0.232 N 
ATOM     29  C   LIG    1      -34.810  91.891  28.257  0.00  0.00    +0.267 A 
ATOM     30  O   LIG    1      -35.546  91.813  29.235  0.00  0.00    -0.266 OA
ATOM     31  C   LIG    1      -35.198  92.770  27.134  0.00  0.00    +0.074 A 
ATOM     32  C   LIG    1      -34.411  92.901  26.066  0.00  0.00    +0.040 A 
ATOM     33  C   LIG    1      -33.157  92.124  26.067  0.00  0.00    +0.146 A 
ATOM     34  N   LIG    1      -32.776  91.308  27.002  0.00  0.00    -0.164 NA
ENDBRANCH  23  33
ENDBRANCH   1  24
TORSDOF 4
ENDMDL
MODEL 4
REMARK VINA RESULT:      -6.2      4.152      7.069
REMARK  Name = pdb/CHEMBL3957798.pdb
REMARK                            x       y       z     vdW  Elec       q    Type
REMARK                         _______ _______ _______ _____ _____    ______ ____
ROOT
ATOM      1  C   LIG    1      -39.791  69.219  22.449  0.00  0.00    +0.147 A 
ATOM      2  N   LIG    1      -40.693  70.268  22.434  0.00  0.00    -0.197 N 
ATOM      3  N   LIG    1      -40.724  71.300  23.331  0.00  0.00    -0.148 NA
ATOM      4  C   LIG    1      -41.631  72.216  23.076  0.00  0.00    +0.143 A 
ATOM      5  C   LIG    1      -42.532  72.128  21.868  0.00  0.00    +0.049 A 
ATOM      6  C   LIG    1      -42.446  71.075  21.050  0.00  0.00    +0.051 A 
ATOM      7  C   LIG    1      -41.503  70.074  21.331  0.00  0.00    +0.156 A 
ATOM      8  N   LIG    1      -41.228  68.950  20.707  0.00  0.00    -0.233 NA
ATOM      9  C   LIG    1      -40.174  68.408  21.400  0.00  0.00    +0.157 A 
ENDROOT
BRANCH   4  10
ATOM     10  N   LIG    1      -41.770  73.304  23.925  0.00  0.00    -0.307 N 
ATOM     11  C   LIG    1      -41.507  74.690  23.525  0.00  0.00    +0.108 C 
ATOM     12  C   LIG    1      -42.727  75.439  24.080  0.00  0.00    +0.029 C 
ATOM     13  C   LIG    1      -43.140  74.674  25.329  0.00  0.00    +0.021 C 
ATOM     14  C   LIG    1      -42.596  73.263  25.133  0.00  0.00    +0.107 C 
BRANCH  11  15
ATOM     15  C   LIG    1      -40.153  75.147  24.044  0.00  0.00    +0.011 A 
ATOM     16  C   LIG    1      -39.715  76.451  23.768  0.00  0.00    +0.129 A 
ATOM     17  F   LIG    1      -40.498  77.288  23.072  0.00  0.00    -0.205 F 
ATOM     18  C   LIG    1      -38.482  76.929  24.222  0.00  0.00    +0.041 A 
ATOM     19  C   LIG    1      -37.649  76.102  24.969  0.00  0.00    +0.041 A 
ATOM     20  C   LIG    1      -38.061  74.807  25.246  0.00  0.00    +0.124 A 
ATOM     21  F   LIG    1      -37.274  74.002  25.970  0.00  0.00    -0.205 F 
ATOM     22  C   LIG    1      -39.290  74.327  24.792  0.00  0.00    +0.046 A 
ENDBRANCH  11  15
ENDBRANCH   4  10
BRANCH   1  24
ATOM     23  C   LIG    1      -37.364  69.218  22.959  0.00  0.00    +0.269 C 
ATOM     24  N   LIG    1      -38.734  69.081  23.345  0.00  0.00    -0.264 N 
ATOM     25  H   LIG    1      -38.969  68.885  24.316  0.00  0.00    +0.157 HD
ATOM     26  O   LIG    1      -37.019  69.427  21.814  0.00  0.00    -0.268 OA
BRANCH  23  33
ATOM     27  C   LIG    1      -35.138  71.139  26.808  0.00  0.00    +0.176 C 
ATOM     28  N   LIG    1      -35.274  70.025  25.890  0.00  0.00    -0.232 N 
ATOM     29  C   LIG    1      -34.521  68.879  26.132  0.00  0.00    +0.267 A 
ATOM     30  O   LIG    1      -33.722  68.743  27.053  0.00  0.00    -0.266 OA
ATOM     31  C   LIG    1      -34.722  67.762  25.186  0.00  0.00    +0.074 A 
ATOM     32  C   LIG    1      -35.601  67.863  24.188  0.00  0.00    +0.040 A 
ATOM     33  C   LIG    1      -36.341  69.135  24.082  0.00  0.00    +0.146 A 
ATOM     34  N   LIG    1      -36.185  70.164  24.856  0.00  0.00    -0.164 NA
ENDBRANCH  23  33
ENDBRANCH   1  24
TORSDOF 4
ENDMDL
MODEL 5
REMARK VINA RESULT:      -6.2     12.141     17.345
REMARK  Name = pdb/CHEMBL3957798.pdb
REMARK                            x       y       z     vdW  Elec       q    Type
REMARK                         _______ _______ _______ _____ _____    ______ ____
ROOT
ATOM      1  C   LIG    1      -23.244  76.768  30.854  0.00  0.00    +0.147 A 
ATOM      2  N   LIG    1      -21.973  77.195  31.196  0.00  0.00    -0.197 N 
ATOM      3  N   LIG    1      -21.602  77.685  32.418  0.00  0.00    -0.148 NA
ATOM      4  C   LIG    1      -20.324  77.966  32.527  0.00  0.00    +0.143 A 
ATOM      5  C   LIG    1      -19.358  77.729  31.391  0.00  0.00    +0.049 A 
ATOM      6  C   LIG    1      -19.808  77.261  30.223  0.00  0.00    +0.051 A 
ATOM      7  C   LIG    1      -21.178  76.989  30.084  0.00  0.00    +0.156 A 
ATOM      8  N   LIG    1      -21.868  76.545  29.058  0.00  0.00    -0.233 NA
ATOM      9  C   LIG    1      -23.153  76.414  29.524  0.00  0.00    +0.157 A 
ENDROOT
BRANCH   4  10
ATOM     10  N   LIG    1      -19.830  78.485  33.715  0.00  0.00    -0.307 N 
ATOM     11  C   LIG    1      -20.528  78.388  35.001  0.00  0.00    +0.108 C 
ATOM     12  C   LIG    1      -19.413  77.942  35.958  0.00  0.00    +0.029 C 
ATOM     13  C   LIG    1      -18.133  78.548  35.400  0.00  0.00    +0.021 C 
ATOM     14  C   LIG    1      -18.410  78.777  33.919  0.00  0.00    +0.107 C 
BRANCH  11  15
ATOM     15  C   LIG    1      -21.207  79.706  35.338  0.00  0.00    +0.011 A 
ATOM     16  C   LIG    1      -22.589  79.839  35.134  0.00  0.00    +0.129 A 
ATOM     17  F   LIG    1      -23.300  78.803  34.666  0.00  0.00    -0.205 F 
ATOM     18  C   LIG    1      -23.271  81.024  35.428  0.00  0.00    +0.041 A 
ATOM     19  C   LIG    1      -22.575  82.115  35.940  0.00  0.00    +0.041 A 
ATOM     20  C   LIG    1      -21.208  82.006  36.143  0.00  0.00    +0.124 A 
ATOM     21  F   LIG    1      -20.527  83.044  36.641  0.00  0.00    -0.205 F 
ATOM     22  C   LIG    1      -20.526  80.825  35.846  0.00  0.00    +0.046 A 
ENDBRANCH  11  15
ENDBRANCH   4  10
BRANCH   1  24
ATOM     23  C   LIG    1      -25.560  77.406  31.471  0.00  0.00    +0.269 C 
ATOM     24  N   LIG    1      -24.333  76.715  31.721  0.00  0.00    -0.264 N 
ATOM     25  H   LIG    1      -24.235  76.144  32.559  0.00  0.00    +0.157 HD
ATOM     26  O   LIG    1      -25.730  78.121  30.505  0.00  0.00    -0.268 OA
BRANCH  23  33
ATOM     27  C   LIG    1      -27.437  77.831  35.916  0.00  0.00    +0.176 C 
ATOM     28  N   LIG    1      -27.579  77.342  34.558  0.00  0.00    -0.232 N 
ATOM     29  C   LIG    1      -28.784  76.745  34.198  0.00  0.00    +0.267 A 
ATOM     30  O   LIG    1      -29.737  76.571  34.952  0.00  0.00    -0.266 OA
ATOM     31  C   LIG    1      -28.888  76.294  32.795  0.00  0.00    +0.074 A 
ATOM     32  C   LIG    1      -27.883  76.489  31.939  0.00  0.00    +0.040 A 
ATOM     33  C   LIG    1      -26.681  77.160  32.470  0.00  0.00    +0.146 A 
ATOM     34  N   LIG    1      -26.513  77.547  33.697  0.00  0.00    -0.164 NA
ENDBRANCH  23  33
ENDBRANCH   1  24
TORSDOF 4
ENDMDL
MODEL 6
REMARK VINA RESULT:      -6.2      2.830      6.899
REMARK  Name = pdb/CHEMBL3957798.pdb
REMARK                            x       y       z     vdW  Elec       q    Type
REMARK                         _______ _______ _______ _____ _____    ______ ____
ROOT
ATOM      1  C   LIG    1      -37.994  74.851  26.719  0.00  0.00    +0.147 A 
ATOM      2  N   LIG    1      -37.339  75.991  27.151  0.00  0.00    -0.197 N 
ATOM      3  N   LIG    1      -35.981  76.156  27.199  0.00  0.00    -0.148 NA
ATOM      4  C   LIG    1      -35.591  77.350  27.583  0.00  0.00    +0.143 A 
ATOM      5  C   LIG    1      -36.580  78.443  27.909  0.00  0.00    +0.049 A 
ATOM      6  C   LIG    1      -37.891  78.192  27.852  0.00  0.00    +0.051 A 
ATOM      7  C   LIG    1      -38.320  76.909  27.475  0.00  0.00    +0.156 A 
ATOM      8  N   LIG    1      -39.527  76.405  27.355  0.00  0.00    -0.233 NA
ATOM      9  C   LIG    1      -39.334  75.126  26.896  0.00  0.00    +0.157 A 
ENDROOT
BRANCH   4  10
ATOM     10  N   LIG    1      -34.237  77.634  27.686  0.00  0.00    -0.307 N 
ATOM     11  C   LIG    1      -33.178  76.750  27.190  0.00  0.00    +0.108 C 
ATOM     12  C   LIG    1      -32.249  77.720  26.447  0.00  0.00    +0.029 C 
ATOM     13  C   LIG    1      -32.373  79.046  27.183  0.00  0.00    +0.021 C 
ATOM     14  C   LIG    1      -33.728  78.993  27.880  0.00  0.00    +0.107 C 
BRANCH  11  15
ATOM     15  C   LIG    1      -32.550  75.976  28.338  0.00  0.00    +0.011 A 
ATOM     16  C   LIG    1      -32.966  74.659  28.588  0.00  0.00    +0.129 A 
ATOM     17  F   LIG    1      -33.893  74.089  27.804  0.00  0.00    -0.205 F 
ATOM     18  C   LIG    1      -32.423  73.895  29.626  0.00  0.00    +0.041 A 
ATOM     19  C   LIG    1      -31.440  74.440  30.447  0.00  0.00    +0.041 A 
ATOM     20  C   LIG    1      -31.020  75.742  30.221  0.00  0.00    +0.124 A 
ATOM     21  F   LIG    1      -30.071  76.277  30.998  0.00  0.00    -0.205 F 
ATOM     22  C   LIG    1      -31.564  76.506  29.188  0.00  0.00    +0.046 A 
ENDBRANCH  11  15
ENDBRANCH   4  10
BRANCH   1  24
ATOM     23  C   LIG    1      -36.852  72.674  27.040  0.00  0.00    +0.269 C 
ATOM     24  N   LIG    1      -37.374  73.714  26.209  0.00  0.00    -0.264 N 
ATOM     25  H   LIG    1      -37.308  73.632  25.196  0.00  0.00    +0.157 HD
ATOM     26  O   LIG    1      -36.876  72.723  28.253  0.00  0.00    -0.268 OA
BRANCH  23  33
ATOM     27  C   LIG    1      -37.276  69.140  23.754  0.00  0.00    +0.176 C 
ATOM     28  N   LIG    1      -36.478  69.779  24.783  0.00  0.00    -0.232 N 
ATOM     29  C   LIG    1      -35.188  69.303  25.004  0.00  0.00    +0.267 A 
ATOM     30  O   LIG    1      -34.675  68.359  24.413  0.00  0.00    -0.266 OA
ATOM     31  C   LIG    1      -34.408  70.011  26.041  0.00  0.00    +0.074 A 
ATOM     32  C   LIG    1      -34.922  71.058  26.687  0.00  0.00    +0.040 A 
ATOM     33  C   LIG    1      -36.295  71.456  26.318  0.00  0.00    +0.146 A 
ATOM     34  N   LIG    1      -37.045  70.855  25.446  0.00  0.00    -0.164 NA
ENDBRANCH  23  33
ENDBRANCH   1  24
TORSDOF 4
ENDMDL
MODEL 7
REMARK VINA RESULT:      -6.0      4.298      6.799
REMARK  Name = pdb/CHEMBL3957798.pdb
REMARK                            x       y       z     vdW  Elec       q    Type
REMARK                         _______ _______ _______ _____ _____    ______ ____
ROOT
ATOM      1  C   LIG    1      -35.404  67.848  24.049  0.00  0.00    +0.147 A 
ATOM      2  N   LIG    1      -36.609  68.311  23.551  0.00  0.00    -0.197 N 
ATOM      3  N   LIG    1      -37.569  68.963  24.276  0.00  0.00    -0.148 NA
ATOM      4  C   LIG    1      -38.602  69.367  23.572  0.00  0.00    +0.143 A 
ATOM      5  C   LIG    1      -38.685  69.144  22.081  0.00  0.00    +0.049 A 
ATOM      6  C   LIG    1      -37.708  68.483  21.453  0.00  0.00    +0.051 A 
ATOM      7  C   LIG    1      -36.615  68.017  22.201  0.00  0.00    +0.156 A 
ATOM      8  N   LIG    1      -35.549  67.340  21.837  0.00  0.00    -0.233 NA
ATOM      9  C   LIG    1      -34.797  67.221  22.979  0.00  0.00    +0.157 A 
ENDROOT
BRANCH   4  10
ATOM     10  N   LIG    1      -39.648  70.027  24.199  0.00  0.00    -0.307 N 
ATOM     11  C   LIG    1      -40.523  70.993  23.528  0.00  0.00    +0.108 C 
ATOM     12  C   LIG    1      -41.923  70.552  23.979  0.00  0.00    +0.029 C 
ATOM     13  C   LIG    1      -41.735  69.960  25.368  0.00  0.00    +0.021 C 
ATOM     14  C   LIG    1      -40.274  69.529  25.426  0.00  0.00    +0.107 C 
BRANCH  11  15
ATOM     15  C   LIG    1      -40.125  72.415  23.893  0.00  0.00    +0.011 A 
ATOM     16  C   LIG    1      -40.965  73.479  23.530  0.00  0.00    +0.129 A 
ATOM     17  F   LIG    1      -42.116  73.235  22.888  0.00  0.00    -0.205 F 
ATOM     18  C   LIG    1      -40.654  74.807  23.840  0.00  0.00    +0.041 A 
ATOM     19  C   LIG    1      -39.481  75.101  24.528  0.00  0.00    +0.041 A 
ATOM     20  C   LIG    1      -38.634  74.064  24.889  0.00  0.00    +0.124 A 
ATOM     21  F   LIG    1      -37.506  74.332  25.558  0.00  0.00    -0.205 F 
ATOM     22  C   LIG    1      -38.941  72.740  24.577  0.00  0.00    +0.046 A 
ENDBRANCH  11  15
ENDBRANCH   4  10
BRANCH   1  24
ATOM     23  C   LIG    1      -34.253  69.197  25.782  0.00  0.00    +0.269 C 
ATOM     24  N   LIG    1      -34.953  68.026  25.354  0.00  0.00    -0.264 N 
ATOM     25  H   LIG    1      -35.150  67.282  26.021  0.00  0.00    +0.157 HD
ATOM     26  O   LIG    1      -33.965  70.106  25.029  0.00  0.00    -0.268 OA
BRANCH  23  33
ATOM     27  C   LIG    1      -33.760  71.723  29.885  0.00  0.00    +0.176 C 
ATOM     28  N   LIG    1      -33.671  70.446  29.204  0.00  0.00    -0.232 N 
ATOM     29  C   LIG    1      -33.369  69.317  29.962  0.00  0.00    +0.267 A 
ATOM     30  O   LIG    1      -33.143  69.318  31.167  0.00  0.00    -0.266 OA
ATOM     31  C   LIG    1      -33.323  68.037  29.224  0.00  0.00    +0.074 A 
ATOM     32  C   LIG    1      -33.589  67.992  27.918  0.00  0.00    +0.040 A 
ATOM     33  C   LIG    1      -33.918  69.273  27.263  0.00  0.00    +0.146 A 
ATOM     34  N   LIG    1      -33.939  70.433  27.845  0.00  0.00    -0.164 NA
ENDBRANCH  23  33
ENDBRANCH   1  24
TORSDOF 4
ENDMDL
MODEL 8
REMARK VINA RESULT:      -6.0      4.195      9.359
REMARK  Name = pdb/CHEMBL3957798.pdb
REMARK                            x       y       z     vdW  Elec       q    Type
REMARK                         _______ _______ _______ _____ _____    ______ ____
ROOT
ATOM      1  C   LIG    1      -36.132  76.129  27.262  0.00  0.00    +0.147 A 
ATOM      2  N   LIG    1      -35.949  77.457  27.607  0.00  0.00    -0.197 N 
ATOM      3  N   LIG    1      -36.820  78.475  27.332  0.00  0.00    -0.148 NA
ATOM      4  C   LIG    1      -36.464  79.642  27.817  0.00  0.00    +0.143 A 
ATOM      5  C   LIG    1      -35.206  79.814  28.634  0.00  0.00    +0.049 A 
ATOM      6  C   LIG    1      -34.401  78.768  28.842  0.00  0.00    +0.051 A 
ATOM      7  C   LIG    1      -34.755  77.522  28.300  0.00  0.00    +0.156 A 
ATOM      8  N   LIG    1      -34.145  76.359  28.345  0.00  0.00    -0.233 NA
ATOM      9  C   LIG    1      -34.987  75.491  27.694  0.00  0.00    +0.157 A 
ENDROOT
BRANCH   4  10
ATOM     10  N   LIG    1      -37.259  80.756  27.590  0.00  0.00    -0.307 N 
ATOM     11  C   LIG    1      -38.709  80.695  27.377  0.00  0.00    +0.108 C 
ATOM     12  C   LIG    1      -39.232  81.815  28.288  0.00  0.00    +0.029 C 
ATOM     13  C   LIG    1      -38.129  82.863  28.317  0.00  0.00    +0.021 C 
ATOM     14  C   LIG    1      -36.850  82.110  27.970  0.00  0.00    +0.107 C 
BRANCH  11  15
ATOM     15  C   LIG    1      -39.036  80.832  25.899  0.00  0.00    +0.011 A 
ATOM     16  C   LIG    1      -39.510  79.715  25.193  0.00  0.00    +0.129 A 
ATOM     17  F   LIG    1      -39.689  78.548  25.828  0.00  0.00    -0.205 F 
ATOM     18  C   LIG    1      -39.831  79.780  23.834  0.00  0.00    +0.041 A 
ATOM     19  C   LIG    1      -39.683  80.980  23.143  0.00  0.00    +0.041 A 
ATOM     20  C   LIG    1      -39.211  82.092  23.821  0.00  0.00    +0.124 A 
ATOM     21  F   LIG    1      -39.070  83.254  23.171  0.00  0.00    -0.205 F 
ATOM     22  C   LIG    1      -38.886  82.028  25.176  0.00  0.00    +0.046 A 
ENDBRANCH  11  15
ENDBRANCH   4  10
BRANCH   1  24
ATOM     23  C   LIG    1      -37.583  75.884  25.267  0.00  0.00    +0.269 C 
ATOM     24  N   LIG    1      -37.261  75.611  26.633  0.00  0.00    -0.264 N 
ATOM     25  H   LIG    1      -37.865  75.005  27.184  0.00  0.00    +0.157 HD
ATOM     26  O   LIG    1      -36.917  76.619  24.565  0.00  0.00    -0.268 OA
BRANCH  23  33
ATOM     27  C   LIG    1      -41.956  75.939  23.184  0.00  0.00    +0.176 C 
ATOM     28  N   LIG    1      -40.862  75.164  23.736  0.00  0.00    -0.232 N 
ATOM     29  C   LIG    1      -40.930  73.776  23.648  0.00  0.00    +0.267 A 
ATOM     30  O   LIG    1      -41.864  73.147  23.161  0.00  0.00    -0.266 OA
ATOM     31  C   LIG    1      -39.775  73.036  24.197  0.00  0.00    +0.074 A 
ATOM     32  C   LIG    1      -38.730  73.686  24.712  0.00  0.00    +0.040 A 
ATOM     33  C   LIG    1      -38.799  75.160  24.708  0.00  0.00    +0.146 A 
ATOM     34  N   LIG    1      -39.797  75.867  24.276  0.00  0.00    -0.164 NA
ENDBRANCH  23  33
ENDBRANCH   1  24
TORSDOF 4
ENDMDL
MODEL 9
REMARK VINA RESULT:      -6.0      3.323      8.389
REMARK  Name = pdb/CHEMBL3957798.pdb
REMARK                            x       y       z     vdW  Elec       q    Type
REMARK                         _______ _______ _______ _____ _____    ______ ____
ROOT
ATOM      1  C   LIG    1      -34.360  71.849  27.872  0.00  0.00    +0.147 A 
ATOM      2  N   LIG    1      -33.744  73.042  28.205  0.00  0.00    -0.197 N 
ATOM      3  N   LIG    1      -34.057  74.269  27.687  0.00  0.00    -0.148 NA
ATOM      4  C   LIG    1      -33.379  75.268  28.204  0.00  0.00    +0.143 A 
ATOM      5  C   LIG    1      -32.365  75.057  29.302  0.00  0.00    +0.049 A 
ATOM      6  C   LIG    1      -32.108  73.821  29.741  0.00  0.00    +0.051 A 
ATOM      7  C   LIG    1      -32.803  72.741  29.171  0.00  0.00    +0.156 A 
ATOM      8  N   LIG    1      -32.730  71.451  29.406  0.00  0.00    -0.233 NA
ATOM      9  C   LIG    1      -33.686  70.888  28.597  0.00  0.00    +0.157 A 
ENDROOT
BRANCH   4  10
ATOM     10  N   LIG    1      -33.597  76.560  27.748  0.00  0.00    -0.307 N 
ATOM     11  C   LIG    1      -34.476  77.524  28.416  0.00  0.00    +0.108 C 
ATOM     12  C   LIG    1      -33.625  78.802  28.434  0.00  0.00    +0.029 C 
ATOM     13  C   LIG    1      -32.755  78.728  27.188  0.00  0.00    +0.021 C 
ATOM     14  C   LIG    1      -32.669  77.245  26.845  0.00  0.00    +0.107 C 
BRANCH  11  15
ATOM     15  C   LIG    1      -35.808  77.623  27.688  0.00  0.00    +0.011 A 
ATOM     16  C   LIG    1      -36.653  78.713  27.945  0.00  0.00    +0.129 A 
ATOM     17  F   LIG    1      -36.273  79.666  28.809  0.00  0.00    -0.205 F 
ATOM     18  C   LIG    1      -37.888  78.860  27.305  0.00  0.00    +0.041 A 
ATOM     19  C   LIG    1      -38.308  77.907  26.382  0.00  0.00    +0.041 A 
ATOM     20  C   LIG    1      -37.491  76.819  26.120  0.00  0.00    +0.124 A 
ATOM     21  F   LIG    1      -37.879  75.898  25.230  0.00  0.00    -0.205 F 
ATOM     22  C   LIG    1      -36.261  76.668  26.761  0.00  0.00    +0.046 A 
ENDBRANCH  11  15
ENDBRANCH   4  10
BRANCH   1  24
ATOM     23  C   LIG    1      -35.350  71.020  25.755  0.00  0.00    +0.269 C 
ATOM     24  N   LIG    1      -35.438  71.719  27.000  0.00  0.00    -0.264 N 
ATOM     25  H   LIG    1      -36.322  72.137  27.284  0.00  0.00    +0.157 HD
ATOM     26  O   LIG    1      -34.319  70.523  25.348  0.00  0.00    -0.268 OA
BRANCH  23  33
ATOM     27  C   LIG    1      -38.136  68.690  22.551  0.00  0.00    +0.176 C 
ATOM     28  N   LIG    1      -37.969  69.810  23.456  0.00  0.00    -0.232 N 
ATOM     29  C   LIG    1      -39.047  70.673  23.639  0.00  0.00    +0.267 A 
ATOM     30  O   LIG    1      -40.129  70.579  23.068  0.00  0.00    -0.266 OA
ATOM     31  C   LIG    1      -38.834  71.779  24.596  0.00  0.00    +0.074 A 
ATOM     32  C   LIG    1      -37.681  71.899  25.254  0.00  0.00    +0.040 A 
ATOM     33  C   LIG    1      -36.645  70.887  24.969  0.00  0.00    +0.146 A 
ATOM     34  N   LIG    1      -36.755  69.917  24.115  0.00  0.00    -0.164 NA
ENDBRANCH  23  33
ENDBRANCH   1  24
TORSDOF 4
ENDMDL
