MODEL 1
REMARK VINA RESULT:      -7.3      0.000      0.000
REMARK  Name = pdb/CHEMBL3957079.pdb
REMARK                            x       y       z     vdW  Elec       q    Type
REMARK                         _______ _______ _______ _____ _____    ______ ____
ROOT
ATOM      1  C   LIG    1      -26.344  82.894  37.137  0.00  0.00    +0.323 A 
ATOM      2  N   LIG    1      -26.148  83.994  36.417  0.00  0.00    -0.201 NA
ATOM      3  C   LIG    1      -27.198  84.651  35.962  0.00  0.00    +0.145 A 
ATOM      4  C   LIG    1      -28.511  84.333  36.217  0.00  0.00    +0.105 A 
ATOM      5  C   LIG    1      -28.610  83.176  36.984  0.00  0.00    +0.145 A 
ATOM      6  N   LIG    1      -27.567  82.439  37.465  0.00  0.00    -0.201 NA
ENDROOT
BRANCH   4   7
ATOM      7  N   LIG    1      -29.630  85.029  35.732  0.00  0.00    -0.196 NA
ATOM      8  C   LIG    1      -30.192  84.791  34.581  0.00  0.00    +0.285 C 
BRANCH   8   9
ATOM      9  N   LIG    1      -31.319  85.316  34.044  0.00  0.00    -0.269 N 
ATOM     10  H   LIG    1      -32.115  85.346  34.646  0.00  0.00    +0.157 HD
BRANCH   9  11
ATOM     11  C   LIG    1      -31.451  86.057  32.850  0.00  0.00    +0.043 A 
ATOM     12  C   LIG    1      -30.885  87.354  32.655  0.00  0.00    +0.005 A 
ATOM     13  C   LIG    1      -31.178  87.984  31.415  0.00  0.00    +0.011 A 
ATOM     14  C   LIG    1      -31.982  87.397  30.427  0.00  0.00    +0.013 A 
ATOM     15  C   LIG    1      -32.530  86.139  30.624  0.00  0.00    +0.057 A 
ATOM     16  C   LIG    1      -32.244  85.488  31.817  0.00  0.00    +0.036 A 
BRANCH  12  17
ATOM     17  C   LIG    1      -29.968  88.082  33.605  0.00  0.00    +0.002 A 
ATOM     18  C   LIG    1      -30.401  89.027  34.537  0.00  0.00    +0.119 A 
ATOM     19  N   LIG    1      -29.636  89.655  35.471  0.00  0.00    -0.263 NA
ATOM     20  C   LIG    1      -28.344  89.290  35.543  0.00  0.00    +0.111 A 
ATOM     21  C   LIG    1      -27.782  88.357  34.697  0.00  0.00    +0.020 A 
ATOM     22  C   LIG    1      -28.597  87.768  33.718  0.00  0.00    +0.011 A 
ENDBRANCH  12  17
BRANCH  15  23
ATOM     23  C   LIG    1      -33.407  85.477  29.591  0.00  0.00    +0.417 C 
ATOM     24  F   LIG    1      -34.723  85.788  29.757  0.00  0.00    -0.166 F 
ATOM     25  F   LIG    1      -33.335  84.116  29.637  0.00  0.00    -0.166 F 
ATOM     26  F   LIG    1      -33.103  85.821  28.310  0.00  0.00    -0.166 F 
ENDBRANCH  15  23
ENDBRANCH   9  11
ENDBRANCH   8   9
BRANCH   8  27
ATOM     27  O   LIG    1      -29.675  83.899  33.718  0.00  0.00    -0.481 OA
ATOM     28  H   LIG    1      -29.115  84.303  33.029  0.00  0.00    +0.295 HD
ENDBRANCH   8  27
ENDBRANCH   4   7
BRANCH   1  29
ATOM     29  O   LIG    1      -25.227  82.197  37.579  0.00  0.00    -0.424 OA
BRANCH  29  33
ATOM     30  C   LIG    1      -23.506  79.642  34.704  0.00  0.00    -0.013 A 
ATOM     31  C   LIG    1      -22.839  80.812  35.049  0.00  0.00    +0.012 A 
ATOM     32  C   LIG    1      -23.339  81.635  36.053  0.00  0.00    +0.047 A 
ATOM     33  C   LIG    1      -24.570  81.372  36.674  0.00  0.00    +0.132 A 
ATOM     34  C   LIG    1      -25.207  80.172  36.372  0.00  0.00    +0.047 A 
ATOM     35  C   LIG    1      -24.674  79.306  35.403  0.00  0.00    +0.012 A 
BRANCH  30  39
ATOM     36  C   LIG    1      -25.381  77.295  31.421  0.00  0.00    +0.218 A 
ATOM     37  N   LIG    1      -25.057  78.036  32.434  0.00  0.00    -0.193 NA
ATOM     38  C   LIG    1      -23.705  78.119  32.699  0.00  0.00    +0.167 A 
ATOM     39  C   LIG    1      -22.965  78.784  33.668  0.00  0.00    +0.046 A 
ATOM     40  C   LIG    1      -21.627  78.436  33.398  0.00  0.00    +0.145 A 
ATOM     41  N   LIG    1      -21.496  77.620  32.353  0.00  0.00    -0.173 NA
ATOM     42  N   LIG    1      -22.765  77.423  31.923  0.00  0.00    -0.221 N 
ATOM     43  C   LIG    1      -23.175  76.629  30.855  0.00  0.00    +0.120 A 
ATOM     44  C   LIG    1      -24.472  76.533  30.536  0.00  0.00    +0.087 A 
BRANCH  36  46
ATOM     45  C   LIG    1      -27.608  76.754  32.022  0.00  0.00    +0.279 C 
ATOM     46  O   LIG    1      -26.650  77.067  31.007  0.00  0.00    -0.480 OA
ENDBRANCH  36  46
ENDBRANCH  30  39
ENDBRANCH  29  33
ENDBRANCH   1  29
TORSDOF 10
ENDMDL
MODEL 2
REMARK VINA RESULT:      -7.2      2.043      3.069
REMARK  Name = pdb/CHEMBL3957079.pdb
REMARK                            x       y       z     vdW  Elec       q    Type
REMARK                         _______ _______ _______ _____ _____    ______ ____
ROOT
ATOM      1  C   LIG    1      -25.995  81.466  37.001  0.00  0.00    +0.323 A 
ATOM      2  N   LIG    1      -25.446  82.646  36.731  0.00  0.00    -0.201 NA
ATOM      3  C   LIG    1      -26.232  83.701  36.620  0.00  0.00    +0.145 A 
ATOM      4  C   LIG    1      -27.592  83.708  36.821  0.00  0.00    +0.105 A 
ATOM      5  C   LIG    1      -28.066  82.431  37.106  0.00  0.00    +0.145 A 
ATOM      6  N   LIG    1      -27.313  81.298  37.211  0.00  0.00    -0.201 NA
ENDROOT
BRANCH   4   7
ATOM      7  N   LIG    1      -28.430  84.828  36.700  0.00  0.00    -0.196 NA
ATOM      8  C   LIG    1      -28.953  85.229  35.576  0.00  0.00    +0.285 C 
BRANCH   8   9
ATOM      9  N   LIG    1      -29.844  86.221  35.342  0.00  0.00    -0.269 N 
ATOM     10  H   LIG    1      -30.384  86.516  36.128  0.00  0.00    +0.157 HD
BRANCH   9  11
ATOM     11  C   LIG    1      -29.929  87.066  34.214  0.00  0.00    +0.043 A 
ATOM     12  C   LIG    1      -29.237  88.309  34.100  0.00  0.00    +0.005 A 
ATOM     13  C   LIG    1      -29.495  89.064  32.923  0.00  0.00    +0.011 A 
ATOM     14  C   LIG    1      -30.382  88.642  31.922  0.00  0.00    +0.013 A 
ATOM     15  C   LIG    1      -31.053  87.436  32.039  0.00  0.00    +0.057 A 
ATOM     16  C   LIG    1      -30.804  86.665  33.169  0.00  0.00    +0.036 A 
BRANCH  12  17
ATOM     17  C   LIG    1      -28.224  88.861  35.071  0.00  0.00    +0.002 A 
ATOM     18  C   LIG    1      -26.976  88.280  35.311  0.00  0.00    +0.119 A 
ATOM     19  N   LIG    1      -25.992  88.774  36.111  0.00  0.00    -0.263 NA
ATOM     20  C   LIG    1      -26.219  89.968  36.686  0.00  0.00    +0.111 A 
ATOM     21  C   LIG    1      -27.398  90.664  36.524  0.00  0.00    +0.020 A 
ATOM     22  C   LIG    1      -28.404  90.097  35.728  0.00  0.00    +0.011 A 
ENDBRANCH  12  17
BRANCH  15  23
ATOM     23  C   LIG    1      -32.021  86.951  30.990  0.00  0.00    +0.417 C 
ATOM     24  F   LIG    1      -31.470  86.008  30.176  0.00  0.00    -0.166 F 
ATOM     25  F   LIG    1      -32.447  87.953  30.167  0.00  0.00    -0.166 F 
ATOM     26  F   LIG    1      -33.149  86.388  31.500  0.00  0.00    -0.166 F 
ENDBRANCH  15  23
ENDBRANCH   9  11
ENDBRANCH   8   9
BRANCH   8  27
ATOM     27  O   LIG    1      -28.650  84.633  34.410  0.00  0.00    -0.481 OA
ATOM     28  H   LIG    1      -27.817  84.952  34.014  0.00  0.00    +0.295 HD
ENDBRANCH   8  27
ENDBRANCH   4   7
BRANCH   1  29
ATOM     29  O   LIG    1      -25.156  80.361  37.080  0.00  0.00    -0.424 OA
BRANCH  29  33
ATOM     30  C   LIG    1      -24.373  78.427  33.420  0.00  0.00    -0.013 A 
ATOM     31  C   LIG    1      -23.505  79.422  33.855  0.00  0.00    +0.012 A 
ATOM     32  C   LIG    1      -23.689  80.023  35.096  0.00  0.00    +0.047 A 
ATOM     33  C   LIG    1      -24.801  79.723  35.899  0.00  0.00    +0.132 A 
ATOM     34  C   LIG    1      -25.636  78.687  35.493  0.00  0.00    +0.047 A 
ATOM     35  C   LIG    1      -25.418  78.034  34.268  0.00  0.00    +0.012 A 
BRANCH  30  39
ATOM     36  C   LIG    1      -20.710  77.345  31.135  0.00  0.00    +0.218 A 
ATOM     37  N   LIG    1      -21.625  77.748  31.960  0.00  0.00    -0.193 NA
ATOM     38  C   LIG    1      -22.926  77.522  31.558  0.00  0.00    +0.167 A 
ATOM     39  C   LIG    1      -24.160  77.798  32.131  0.00  0.00    +0.046 A 
ATOM     40  C   LIG    1      -25.103  77.330  31.195  0.00  0.00    +0.145 A 
ATOM     41  N   LIG    1      -24.545  76.797  30.108  0.00  0.00    -0.173 NA
ATOM     42  N   LIG    1      -23.213  76.913  30.326  0.00  0.00    -0.221 N 
ATOM     43  C   LIG    1      -22.188  76.515  29.474  0.00  0.00    +0.120 A 
ATOM     44  C   LIG    1      -20.906  76.686  29.825  0.00  0.00    +0.087 A 
BRANCH  36  46
ATOM     45  C   LIG    1      -18.522  76.646  30.556  0.00  0.00    +0.279 C 
ATOM     46  O   LIG    1      -19.378  77.488  31.332  0.00  0.00    -0.480 OA
ENDBRANCH  36  46
ENDBRANCH  30  39
ENDBRANCH  29  33
ENDBRANCH   1  29
TORSDOF 10
ENDMDL
MODEL 3
REMARK VINA RESULT:      -7.0     18.816     23.530
REMARK  Name = pdb/CHEMBL3957079.pdb
REMARK                            x       y       z     vdW  Elec       q    Type
REMARK                         _______ _______ _______ _____ _____    ______ ____
ROOT
ATOM      1  C   LIG    1      -28.943  78.208  10.985  0.00  0.00    +0.323 A 
ATOM      2  N   LIG    1      -28.935  77.317  11.971  0.00  0.00    -0.201 NA
ATOM      3  C   LIG    1      -27.888  77.267  12.773  0.00  0.00    +0.145 A 
ATOM      4  C   LIG    1      -26.802  78.108  12.722  0.00  0.00    +0.105 A 
ATOM      5  C   LIG    1      -26.910  79.007  11.666  0.00  0.00    +0.145 A 
ATOM      6  N   LIG    1      -27.951  79.096  10.789  0.00  0.00    -0.201 NA
ENDROOT
BRANCH   4   7
ATOM      7  N   LIG    1      -25.686  78.054  13.572  0.00  0.00    -0.196 NA
ATOM      8  C   LIG    1      -25.626  78.642  14.733  0.00  0.00    +0.285 C 
BRANCH   8   9
ATOM      9  N   LIG    1      -24.660  78.589  15.681  0.00  0.00    -0.269 N 
ATOM     10  H   LIG    1      -24.979  78.541  16.626  0.00  0.00    +0.157 HD
BRANCH   9  11
ATOM     11  C   LIG    1      -23.283  78.330  15.507  0.00  0.00    +0.043 A 
ATOM     12  C   LIG    1      -22.286  79.350  15.446  0.00  0.00    +0.005 A 
ATOM     13  C   LIG    1      -20.957  78.912  15.193  0.00  0.00    +0.011 A 
ATOM     14  C   LIG    1      -20.618  77.566  15.000  0.00  0.00    +0.013 A 
ATOM     15  C   LIG    1      -21.591  76.580  15.058  0.00  0.00    +0.057 A 
ATOM     16  C   LIG    1      -22.896  76.975  15.324  0.00  0.00    +0.036 A 
BRANCH  12  17
ATOM     17  C   LIG    1      -22.500  80.824  15.681  0.00  0.00    +0.002 A 
ATOM     18  C   LIG    1      -22.338  81.448  16.921  0.00  0.00    +0.119 A 
ATOM     19  N   LIG    1      -22.436  82.781  17.177  0.00  0.00    -0.263 NA
ATOM     20  C   LIG    1      -22.657  83.587  16.124  0.00  0.00    +0.111 A 
ATOM     21  C   LIG    1      -22.821  83.112  14.840  0.00  0.00    +0.020 A 
ATOM     22  C   LIG    1      -22.758  81.726  14.628  0.00  0.00    +0.011 A 
ENDBRANCH  12  17
BRANCH  15  23
ATOM     23  C   LIG    1      -21.268  75.122  14.846  0.00  0.00    +0.417 C 
ATOM     24  F   LIG    1      -22.115  74.531  13.958  0.00  0.00    -0.166 F 
ATOM     25  F   LIG    1      -21.360  74.393  15.995  0.00  0.00    -0.166 F 
ATOM     26  F   LIG    1      -20.014  74.901  14.367  0.00  0.00    -0.166 F 
ENDBRANCH  15  23
ENDBRANCH   9  11
ENDBRANCH   8   9
BRANCH   8  27
ATOM     27  O   LIG    1      -26.621  79.434  15.171  0.00  0.00    -0.481 OA
ATOM     28  H   LIG    1      -27.275  78.967  15.725  0.00  0.00    +0.295 HD
ENDBRANCH   8  27
ENDBRANCH   4   7
BRANCH   1  29
ATOM     29  O   LIG    1      -30.038  78.225  10.131  0.00  0.00    -0.424 OA
BRANCH  29  33
ATOM     30  C   LIG    1      -32.620  81.515  10.637  0.00  0.00    -0.013 A 
ATOM     31  C   LIG    1      -31.756  81.500   9.549  0.00  0.00    +0.012 A 
ATOM     32  C   LIG    1      -30.949  80.392   9.308  0.00  0.00    +0.047 A 
ATOM     33  C   LIG    1      -30.905  79.308  10.198  0.00  0.00    +0.132 A 
ATOM     34  C   LIG    1      -31.811  79.296  11.254  0.00  0.00    +0.047 A 
ATOM     35  C   LIG    1      -32.673  80.386  11.467  0.00  0.00    +0.012 A 
BRANCH  30  39
ATOM     36  C   LIG    1      -31.756  85.813  11.406  0.00  0.00    +0.218 A 
ATOM     37  N   LIG    1      -31.772  84.536  11.179  0.00  0.00    -0.193 NA
ATOM     38  C   LIG    1      -33.027  83.967  11.090  0.00  0.00    +0.167 A 
ATOM     39  C   LIG    1      -33.468  82.669  10.869  0.00  0.00    +0.046 A 
ATOM     40  C   LIG    1      -34.872  82.755  10.917  0.00  0.00    +0.145 A 
ATOM     41  N   LIG    1      -35.317  83.990  11.149  0.00  0.00    -0.173 NA
ATOM     42  N   LIG    1      -34.190  84.734  11.256  0.00  0.00    -0.221 N 
ATOM     43  C   LIG    1      -34.110  86.100  11.512  0.00  0.00    +0.120 A 
ATOM     44  C   LIG    1      -32.920  86.710  11.584  0.00  0.00    +0.087 A 
BRANCH  36  46
ATOM     45  C   LIG    1      -29.402  85.933  11.171  0.00  0.00    +0.279 C 
ATOM     46  O   LIG    1      -30.633  86.556  11.547  0.00  0.00    -0.480 OA
ENDBRANCH  36  46
ENDBRANCH  30  39
ENDBRANCH  29  33
ENDBRANCH   1  29
TORSDOF 10
ENDMDL
MODEL 4
REMARK VINA RESULT:      -6.9     19.348     23.572
REMARK  Name = pdb/CHEMBL3957079.pdb
REMARK                            x       y       z     vdW  Elec       q    Type
REMARK                         _______ _______ _______ _____ _____    ______ ____
ROOT
ATOM      1  C   LIG    1      -24.485  89.607  10.820  0.00  0.00    +0.323 A 
ATOM      2  N   LIG    1      -23.516  89.247  11.655  0.00  0.00    -0.201 NA
ATOM      3  C   LIG    1      -23.463  87.993  12.063  0.00  0.00    +0.145 A 
ATOM      4  C   LIG    1      -24.300  86.982  11.651  0.00  0.00    +0.105 A 
ATOM      5  C   LIG    1      -25.270  87.458  10.774  0.00  0.00    +0.145 A 
ATOM      6  N   LIG    1      -25.394  88.743  10.332  0.00  0.00    -0.201 NA
ENDROOT
BRANCH   4   7
ATOM      7  N   LIG    1      -24.246  85.649  12.086  0.00  0.00    -0.196 NA
ATOM      8  C   LIG    1      -23.414  84.763  11.618  0.00  0.00    +0.285 C 
BRANCH   8   9
ATOM      9  N   LIG    1      -23.195  83.487  12.014  0.00  0.00    -0.269 N 
ATOM     10  H   LIG    1      -22.836  82.870  11.317  0.00  0.00    +0.157 HD
BRANCH   9  11
ATOM     11  C   LIG    1      -23.159  82.979  13.331  0.00  0.00    +0.043 A 
ATOM     12  C   LIG    1      -22.431  83.590  14.396  0.00  0.00    +0.005 A 
ATOM     13  C   LIG    1      -22.448  82.902  15.641  0.00  0.00    +0.011 A 
ATOM     14  C   LIG    1      -23.122  81.688  15.836  0.00  0.00    +0.013 A 
ATOM     15  C   LIG    1      -23.825  81.099  14.797  0.00  0.00    +0.057 A 
ATOM     16  C   LIG    1      -23.845  81.758  13.574  0.00  0.00    +0.036 A 
BRANCH  12  17
ATOM     17  C   LIG    1      -21.705  84.910  14.342  0.00  0.00    +0.002 A 
ATOM     18  C   LIG    1      -22.155  86.074  14.970  0.00  0.00    +0.119 A 
ATOM     19  N   LIG    1      -21.506  87.269  15.024  0.00  0.00    -0.263 NA
ATOM     20  C   LIG    1      -20.284  87.322  14.466  0.00  0.00    +0.111 A 
ATOM     21  C   LIG    1      -19.707  86.246  13.826  0.00  0.00    +0.020 A 
ATOM     22  C   LIG    1      -20.430  85.046  13.753  0.00  0.00    +0.011 A 
ENDBRANCH  12  17
BRANCH  15  23
ATOM     23  C   LIG    1      -24.554  79.789  14.964  0.00  0.00    +0.417 C 
ATOM     24  F   LIG    1      -24.043  79.041  15.981  0.00  0.00    -0.166 F 
ATOM     25  F   LIG    1      -24.486  79.005  13.850  0.00  0.00    -0.166 F 
ATOM     26  F   LIG    1      -25.880  79.930  15.236  0.00  0.00    -0.166 F 
ENDBRANCH  15  23
ENDBRANCH   9  11
ENDBRANCH   8   9
BRANCH   8  27
ATOM     27  O   LIG    1      -22.585  85.049  10.598  0.00  0.00    -0.481 OA
ATOM     28  H   LIG    1      -21.694  85.325  10.885  0.00  0.00    +0.295 HD
ENDBRANCH   8  27
ENDBRANCH   4   7
BRANCH   1  29
ATOM     29  O   LIG    1      -24.546  90.939  10.428  0.00  0.00    -0.424 OA
BRANCH  29  33
ATOM     30  C   LIG    1      -26.443  93.502  13.181  0.00  0.00    -0.013 A 
ATOM     31  C   LIG    1      -25.840  94.051  12.056  0.00  0.00    +0.012 A 
ATOM     32  C   LIG    1      -25.276  93.227  11.087  0.00  0.00    +0.047 A 
ATOM     33  C   LIG    1      -25.207  91.835  11.257  0.00  0.00    +0.132 A 
ATOM     34  C   LIG    1      -25.862  91.281  12.352  0.00  0.00    +0.047 A 
ATOM     35  C   LIG    1      -26.487  92.106  13.303  0.00  0.00    +0.012 A 
BRANCH  30  39
ATOM     36  C   LIG    1      -30.306  93.387  15.388  0.00  0.00    +0.218 A 
ATOM     37  N   LIG    1      -29.260  93.225  14.638  0.00  0.00    -0.193 NA
ATOM     38  C   LIG    1      -28.276  94.183  14.779  0.00  0.00    +0.167 A 
ATOM     39  C   LIG    1      -27.041  94.372  14.175  0.00  0.00    +0.046 A 
ATOM     40  C   LIG    1      -26.539  95.556  14.749  0.00  0.00    +0.145 A 
ATOM     41  N   LIG    1      -27.364  96.098  15.644  0.00  0.00    -0.173 NA
ATOM     42  N   LIG    1      -28.429  95.261  15.665  0.00  0.00    -0.221 N 
ATOM     43  C   LIG    1      -29.582  95.391  16.434  0.00  0.00    +0.120 A 
ATOM     44  C   LIG    1      -30.558  94.477  16.357  0.00  0.00    +0.087 A 
BRANCH  36  46
ATOM     45  C   LIG    1      -32.382  92.830  16.384  0.00  0.00    +0.279 C 
ATOM     46  O   LIG    1      -31.387  92.573  15.389  0.00  0.00    -0.480 OA
ENDBRANCH  36  46
ENDBRANCH  30  39
ENDBRANCH  29  33
ENDBRANCH   1  29
TORSDOF 10
ENDMDL
MODEL 5
REMARK VINA RESULT:      -6.8     19.381     23.881
REMARK  Name = pdb/CHEMBL3957079.pdb
REMARK                            x       y       z     vdW  Elec       q    Type
REMARK                         _______ _______ _______ _____ _____    ______ ____
ROOT
ATOM      1  C   LIG    1      -28.707  78.353  11.393  0.00  0.00    +0.323 A 
ATOM      2  N   LIG    1      -28.017  78.128  12.507  0.00  0.00    -0.201 NA
ATOM      3  C   LIG    1      -26.818  78.665  12.630  0.00  0.00    +0.145 A 
ATOM      4  C   LIG    1      -26.221  79.505  11.719  0.00  0.00    +0.105 A 
ATOM      5  C   LIG    1      -27.024  79.684  10.598  0.00  0.00    +0.145 A 
ATOM      6  N   LIG    1      -28.260  79.141  10.398  0.00  0.00    -0.201 NA
ENDROOT
BRANCH   4   7
ATOM      7  N   LIG    1      -24.944  80.074  11.848  0.00  0.00    -0.196 NA
ATOM      8  C   LIG    1      -24.707  81.199  12.459  0.00  0.00    +0.285 C 
BRANCH   8   9
ATOM      9  N   LIG    1      -23.526  81.802  12.735  0.00  0.00    -0.269 N 
ATOM     10  H   LIG    1      -22.972  82.057  11.945  0.00  0.00    +0.157 HD
BRANCH   9  11
ATOM     11  C   LIG    1      -23.094  82.348  13.963  0.00  0.00    +0.043 A 
ATOM     12  C   LIG    1      -22.953  81.587  15.163  0.00  0.00    +0.005 A 
ATOM     13  C   LIG    1      -22.576  82.315  16.325  0.00  0.00    +0.011 A 
ATOM     14  C   LIG    1      -22.359  83.701  16.324  0.00  0.00    +0.013 A 
ATOM     15  C   LIG    1      -22.500  84.434  15.157  0.00  0.00    +0.057 A 
ATOM     16  C   LIG    1      -22.847  83.747  14.000  0.00  0.00    +0.036 A 
BRANCH  12  17
ATOM     17  C   LIG    1      -23.107  80.093  15.299  0.00  0.00    +0.002 A 
ATOM     18  C   LIG    1      -24.311  79.458  15.613  0.00  0.00    +0.119 A 
ATOM     19  N   LIG    1      -24.529  78.116  15.669  0.00  0.00    -0.263 NA
ATOM     20  C   LIG    1      -23.499  77.319  15.336  0.00  0.00    +0.111 A 
ATOM     21  C   LIG    1      -22.256  77.808  14.990  0.00  0.00    +0.020 A 
ATOM     22  C   LIG    1      -22.063  79.197  14.989  0.00  0.00    +0.011 A 
ENDBRANCH  12  17
BRANCH  15  23
ATOM     23  C   LIG    1      -22.285  85.926  15.117  0.00  0.00    +0.417 C 
ATOM     24  F   LIG    1      -22.340  86.488  16.356  0.00  0.00    -0.166 F 
ATOM     25  F   LIG    1      -23.227  86.571  14.370  0.00  0.00    -0.166 F 
ATOM     26  F   LIG    1      -21.084  86.294  14.595  0.00  0.00    -0.166 F 
ENDBRANCH  15  23
ENDBRANCH   9  11
ENDBRANCH   8   9
BRANCH   8  27
ATOM     27  O   LIG    1      -25.705  81.957  12.947  0.00  0.00    -0.481 OA
ATOM     28  H   LIG    1      -26.565  81.497  12.975  0.00  0.00    +0.295 HD
ENDBRANCH   8  27
ENDBRANCH   4   7
BRANCH   1  29
ATOM     29  O   LIG    1      -29.954  77.753  11.267  0.00  0.00    -0.424 OA
BRANCH  29  33
ATOM     30  C   LIG    1      -33.244  79.851   9.678  0.00  0.00    -0.013 A 
ATOM     31  C   LIG    1      -32.888  80.063  11.005  0.00  0.00    +0.012 A 
ATOM     32  C   LIG    1      -31.759  79.448  11.536  0.00  0.00    +0.047 A 
ATOM     33  C   LIG    1      -31.006  78.525  10.793  0.00  0.00    +0.132 A 
ATOM     34  C   LIG    1      -31.326  78.359   9.449  0.00  0.00    +0.047 A 
ATOM     35  C   LIG    1      -32.429  79.025   8.890  0.00  0.00    +0.012 A 
BRANCH  30  39
ATOM     36  C   LIG    1      -35.649  83.357  10.995  0.00  0.00    +0.218 A 
ATOM     37  N   LIG    1      -34.822  82.375  10.809  0.00  0.00    -0.193 NA
ATOM     38  C   LIG    1      -35.048  81.619   9.675  0.00  0.00    +0.167 A 
ATOM     39  C   LIG    1      -34.414  80.510   9.131  0.00  0.00    +0.046 A 
ATOM     40  C   LIG    1      -35.154  80.208   7.972  0.00  0.00    +0.145 A 
ATOM     41  N   LIG    1      -36.177  81.037   7.770  0.00  0.00    -0.173 NA
ATOM     42  N   LIG    1      -36.117  81.901   8.811  0.00  0.00    -0.221 N 
ATOM     43  C   LIG    1      -36.980  82.961   9.072  0.00  0.00    +0.120 A 
ATOM     44  C   LIG    1      -36.794  83.744  10.142  0.00  0.00    +0.087 A 
BRANCH  36  46
ATOM     45  C   LIG    1      -36.566  85.270  12.050  0.00  0.00    +0.279 C 
ATOM     46  O   LIG    1      -35.613  84.203  12.052  0.00  0.00    -0.480 OA
ENDBRANCH  36  46
ENDBRANCH  30  39
ENDBRANCH  29  33
ENDBRANCH   1  29
TORSDOF 10
ENDMDL
MODEL 6
REMARK VINA RESULT:      -6.8      9.743     15.303
REMARK  Name = pdb/CHEMBL3957079.pdb
REMARK                            x       y       z     vdW  Elec       q    Type
REMARK                         _______ _______ _______ _____ _____    ______ ____
ROOT
ATOM      1  C   LIG    1      -32.417  93.771  25.203  0.00  0.00    +0.323 A 
ATOM      2  N   LIG    1      -33.067  94.110  26.311  0.00  0.00    -0.201 NA
ATOM      3  C   LIG    1      -33.478  93.154  27.123  0.00  0.00    +0.145 A 
ATOM      4  C   LIG    1      -33.240  91.809  26.960  0.00  0.00    +0.105 A 
ATOM      5  C   LIG    1      -32.547  91.561  25.779  0.00  0.00    +0.145 A 
ATOM      6  N   LIG    1      -32.115  92.499  24.887  0.00  0.00    -0.201 NA
ENDROOT
BRANCH   4   7
ATOM      7  N   LIG    1      -33.679  90.792  27.821  0.00  0.00    -0.196 NA
ATOM      8  C   LIG    1      -32.998  90.360  28.845  0.00  0.00    +0.285 C 
BRANCH   8   9
ATOM      9  N   LIG    1      -33.345  89.465  29.799  0.00  0.00    -0.269 N 
ATOM     10  H   LIG    1      -33.864  89.829  30.570  0.00  0.00    +0.157 HD
BRANCH   9  11
ATOM     11  C   LIG    1      -33.300  88.055  29.728  0.00  0.00    +0.043 A 
ATOM     12  C   LIG    1      -32.325  87.258  30.401  0.00  0.00    +0.005 A 
ATOM     13  C   LIG    1      -32.386  85.858  30.159  0.00  0.00    +0.011 A 
ATOM     14  C   LIG    1      -33.329  85.269  29.305  0.00  0.00    +0.013 A 
ATOM     15  C   LIG    1      -34.271  86.048  28.652  0.00  0.00    +0.057 A 
ATOM     16  C   LIG    1      -34.250  87.418  28.886  0.00  0.00    +0.036 A 
BRANCH  12  17
ATOM     17  C   LIG    1      -31.289  87.750  31.380  0.00  0.00    +0.002 A 
ATOM     18  C   LIG    1      -31.580  88.165  32.682  0.00  0.00    +0.119 A 
ATOM     19  N   LIG    1      -30.682  88.540  33.633  0.00  0.00    -0.263 NA
ATOM     20  C   LIG    1      -29.380  88.451  33.308  0.00  0.00    +0.111 A 
ATOM     21  C   LIG    1      -28.946  88.042  32.065  0.00  0.00    +0.020 A 
ATOM     22  C   LIG    1      -29.907  87.708  31.099  0.00  0.00    +0.011 A 
ENDBRANCH  12  17
BRANCH  15  23
ATOM     23  C   LIG    1      -35.295  85.454  27.719  0.00  0.00    +0.417 C 
ATOM     24  F   LIG    1      -36.508  86.066  27.828  0.00  0.00    -0.166 F 
ATOM     25  F   LIG    1      -35.520  84.131  27.962  0.00  0.00    -0.166 F 
ATOM     26  F   LIG    1      -34.955  85.536  26.404  0.00  0.00    -0.166 F 
ENDBRANCH  15  23
ENDBRANCH   9  11
ENDBRANCH   8   9
BRANCH   8  27
ATOM     27  O   LIG    1      -31.757  90.812  29.103  0.00  0.00    -0.481 OA
ATOM     28  H   LIG    1      -31.216  90.944  28.302  0.00  0.00    +0.295 HD
ENDBRANCH   8  27
ENDBRANCH   4   7
BRANCH   1  29
ATOM     29  O   LIG    1      -32.021  94.788  24.343  0.00  0.00    -0.424 OA
BRANCH  29  33
ATOM     30  C   LIG    1      -32.034  93.869  20.231  0.00  0.00    -0.013 A 
ATOM     31  C   LIG    1      -33.244  94.104  20.872  0.00  0.00    +0.012 A 
ATOM     32  C   LIG    1      -33.270  94.489  22.208  0.00  0.00    +0.047 A 
ATOM     33  C   LIG    1      -32.096  94.555  22.976  0.00  0.00    +0.132 A 
ATOM     34  C   LIG    1      -30.881  94.379  22.321  0.00  0.00    +0.047 A 
ATOM     35  C   LIG    1      -30.847  94.050  20.956  0.00  0.00    +0.012 A 
BRANCH  30  39
ATOM     36  C   LIG    1      -33.852  90.475  17.999  0.00  0.00    +0.218 A 
ATOM     37  N   LIG    1      -33.419  91.362  18.840  0.00  0.00    -0.193 NA
ATOM     38  C   LIG    1      -32.658  92.376  18.292  0.00  0.00    +0.167 A 
ATOM     39  C   LIG    1      -32.020  93.483  18.833  0.00  0.00    +0.046 A 
ATOM     40  C   LIG    1      -31.395  94.108  17.737  0.00  0.00    +0.145 A 
ATOM     41  N   LIG    1      -31.600  93.474  16.583  0.00  0.00    -0.173 NA
ATOM     42  N   LIG    1      -32.372  92.412  16.919  0.00  0.00    -0.221 N 
ATOM     43  C   LIG    1      -32.854  91.424  16.066  0.00  0.00    +0.120 A 
ATOM     44  C   LIG    1      -33.618  90.430  16.538  0.00  0.00    +0.087 A 
BRANCH  36  46
ATOM     45  C   LIG    1      -35.449  89.533  19.474  0.00  0.00    +0.279 C 
ATOM     46  O   LIG    1      -34.596  89.395  18.333  0.00  0.00    -0.480 OA
ENDBRANCH  36  46
ENDBRANCH  30  39
ENDBRANCH  29  33
ENDBRANCH   1  29
TORSDOF 10
ENDMDL
MODEL 7
REMARK VINA RESULT:      -6.8      4.392     10.805
REMARK  Name = pdb/CHEMBL3957079.pdb
REMARK                            x       y       z     vdW  Elec       q    Type
REMARK                         _______ _______ _______ _____ _____    ______ ____
ROOT
ATOM      1  C   LIG    1      -26.763  82.475  37.162  0.00  0.00    +0.323 A 
ATOM      2  N   LIG    1      -25.518  82.796  36.827  0.00  0.00    -0.201 NA
ATOM      3  C   LIG    1      -24.660  81.827  36.569  0.00  0.00    +0.145 A 
ATOM      4  C   LIG    1      -24.953  80.484  36.554  0.00  0.00    +0.105 A 
ATOM      5  C   LIG    1      -26.278  80.254  36.908  0.00  0.00    +0.145 A 
ATOM      6  N   LIG    1      -27.208  81.206  37.209  0.00  0.00    -0.201 NA
ENDROOT
BRANCH   4   7
ATOM      7  N   LIG    1      -24.041  79.452  36.282  0.00  0.00    -0.196 NA
ATOM      8  C   LIG    1      -23.896  78.898  35.112  0.00  0.00    +0.285 C 
BRANCH   8   9
ATOM      9  N   LIG    1      -22.997  77.974  34.698  0.00  0.00    -0.269 N 
ATOM     10  H   LIG    1      -23.231  77.023  34.888  0.00  0.00    +0.157 HD
BRANCH   9  11
ATOM     11  C   LIG    1      -21.912  78.152  33.812  0.00  0.00    +0.043 A 
ATOM     12  C   LIG    1      -20.850  79.079  34.036  0.00  0.00    +0.005 A 
ATOM     13  C   LIG    1      -19.877  79.177  33.004  0.00  0.00    +0.011 A 
ATOM     14  C   LIG    1      -19.939  78.429  31.819  0.00  0.00    +0.013 A 
ATOM     15  C   LIG    1      -20.974  77.533  31.606  0.00  0.00    +0.057 A 
ATOM     16  C   LIG    1      -21.929  77.399  32.607  0.00  0.00    +0.036 A 
BRANCH  12  17
ATOM     17  C   LIG    1      -20.633  79.908  35.277  0.00  0.00    +0.002 A 
ATOM     18  C   LIG    1      -19.827  79.513  36.348  0.00  0.00    +0.119 A 
ATOM     19  N   LIG    1      -19.529  80.250  37.453  0.00  0.00    -0.263 NA
ATOM     20  C   LIG    1      -20.013  81.504  37.495  0.00  0.00    +0.111 A 
ATOM     21  C   LIG    1      -20.810  82.032  36.501  0.00  0.00    +0.020 A 
ATOM     22  C   LIG    1      -21.130  81.222  35.401  0.00  0.00    +0.011 A 
ENDBRANCH  12  17
BRANCH  15  23
ATOM     23  C   LIG    1      -21.081  76.718  30.342  0.00  0.00    +0.417 C 
ATOM     24  F   LIG    1      -20.601  75.453  30.503  0.00  0.00    -0.166 F 
ATOM     25  F   LIG    1      -20.375  77.258  29.308  0.00  0.00    -0.166 F 
ATOM     26  F   LIG    1      -22.355  76.576  29.886  0.00  0.00    -0.166 F 
ENDBRANCH  15  23
ENDBRANCH   9  11
ENDBRANCH   8   9
BRANCH   8  27
ATOM     27  O   LIG    1      -24.692  79.224  34.078  0.00  0.00    -0.481 OA
ATOM     28  H   LIG    1      -25.636  79.035  34.238  0.00  0.00    +0.295 HD
ENDBRANCH   8  27
ENDBRANCH   4   7
BRANCH   1  29
ATOM     29  O   LIG    1      -27.644  83.507  37.464  0.00  0.00    -0.424 OA
BRANCH  29  33
ATOM     30  C   LIG    1      -29.547  85.721  34.426  0.00  0.00    -0.013 A 
ATOM     31  C   LIG    1      -28.232  86.025  34.756  0.00  0.00    +0.012 A 
ATOM     32  C   LIG    1      -27.549  85.261  35.697  0.00  0.00    +0.047 A 
ATOM     33  C   LIG    1      -28.185  84.233  36.411  0.00  0.00    +0.132 A 
ATOM     34  C   LIG    1      -29.481  83.890  36.039  0.00  0.00    +0.047 A 
ATOM     35  C   LIG    1      -30.155  84.619  35.045  0.00  0.00    +0.012 A 
BRANCH  30  39
ATOM     36  C   LIG    1      -32.624  84.740  31.364  0.00  0.00    +0.218 A 
ATOM     37  N   LIG    1      -31.735  84.794  32.306  0.00  0.00    -0.193 NA
ATOM     38  C   LIG    1      -31.198  86.044  32.542  0.00  0.00    +0.167 A 
ATOM     39  C   LIG    1      -30.243  86.515  33.432  0.00  0.00    +0.046 A 
ATOM     40  C   LIG    1      -30.132  87.890  33.145  0.00  0.00    +0.145 A 
ATOM     41  N   LIG    1      -30.936  88.287  32.159  0.00  0.00    -0.173 NA
ATOM     42  N   LIG    1      -31.589  87.161  31.787  0.00  0.00    -0.221 N 
ATOM     43  C   LIG    1      -32.539  87.038  30.777  0.00  0.00    +0.120 A 
ATOM     44  C   LIG    1      -33.112  85.855  30.522  0.00  0.00    +0.087 A 
BRANCH  36  46
ATOM     45  C   LIG    1      -34.167  83.740  29.871  0.00  0.00    +0.279 C 
ATOM     46  O   LIG    1      -33.256  83.611  30.965  0.00  0.00    -0.480 OA
ENDBRANCH  36  46
ENDBRANCH  30  39
ENDBRANCH  29  33
ENDBRANCH   1  29
TORSDOF 10
ENDMDL
MODEL 8
REMARK VINA RESULT:      -6.8      7.207     13.716
REMARK  Name = pdb/CHEMBL3957079.pdb
REMARK                            x       y       z     vdW  Elec       q    Type
REMARK                         _______ _______ _______ _____ _____    ______ ____
ROOT
ATOM      1  C   LIG    1      -33.253  76.614  29.719  0.00  0.00    +0.323 A 
ATOM      2  N   LIG    1      -32.227  76.375  28.908  0.00  0.00    -0.201 NA
ATOM      3  C   LIG    1      -31.057  76.070  29.438  0.00  0.00    +0.145 A 
ATOM      4  C   LIG    1      -30.805  75.913  30.781  0.00  0.00    +0.105 A 
ATOM      5  C   LIG    1      -31.941  76.174  31.541  0.00  0.00    +0.145 A 
ATOM      6  N   LIG    1      -33.171  76.516  31.058  0.00  0.00    -0.201 NA
ENDROOT
BRANCH   4   7
ATOM      7  N   LIG    1      -29.561  75.591  31.346  0.00  0.00    -0.196 NA
ATOM      8  C   LIG    1      -28.648  76.470  31.645  0.00  0.00    +0.285 C 
BRANCH   8   9
ATOM      9  N   LIG    1      -27.461  76.305  32.276  0.00  0.00    -0.269 N 
ATOM     10  H   LIG    1      -27.471  76.437  33.264  0.00  0.00    +0.157 HD
BRANCH   9  11
ATOM     11  C   LIG    1      -26.279  75.722  31.768  0.00  0.00    +0.043 A 
ATOM     12  C   LIG    1      -25.985  74.327  31.850  0.00  0.00    +0.005 A 
ATOM     13  C   LIG    1      -24.716  73.925  31.350  0.00  0.00    +0.011 A 
ATOM     14  C   LIG    1      -23.784  74.824  30.813  0.00  0.00    +0.013 A 
ATOM     15  C   LIG    1      -24.074  76.177  30.739  0.00  0.00    +0.057 A 
ATOM     16  C   LIG    1      -25.316  76.598  31.200  0.00  0.00    +0.036 A 
BRANCH  12  17
ATOM     17  C   LIG    1      -26.907  73.246  32.355  0.00  0.00    +0.002 A 
ATOM     18  C   LIG    1      -27.336  73.144  33.681  0.00  0.00    +0.119 A 
ATOM     19  N   LIG    1      -28.227  72.243  34.177  0.00  0.00    -0.263 NA
ATOM     20  C   LIG    1      -28.795  71.401  33.296  0.00  0.00    +0.111 A 
ATOM     21  C   LIG    1      -28.479  71.400  31.953  0.00  0.00    +0.020 A 
ATOM     22  C   LIG    1      -27.521  72.315  31.492  0.00  0.00    +0.011 A 
ENDBRANCH  12  17
BRANCH  15  23
ATOM     23  C   LIG    1      -23.095  77.178  30.178  0.00  0.00    +0.417 C 
ATOM     24  F   LIG    1      -23.709  78.320  29.760  0.00  0.00    -0.166 F 
ATOM     25  F   LIG    1      -22.419  76.698  29.095  0.00  0.00    -0.166 F 
ATOM     26  F   LIG    1      -22.142  77.571  31.065  0.00  0.00    -0.166 F 
ENDBRANCH  15  23
ENDBRANCH   9  11
ENDBRANCH   8   9
BRANCH   8  27
ATOM     27  O   LIG    1      -28.802  77.772  31.345  0.00  0.00    -0.481 OA
ATOM     28  H   LIG    1      -28.094  78.341  31.702  0.00  0.00    +0.295 HD
ENDBRANCH   8  27
ENDBRANCH   4   7
BRANCH   1  29
ATOM     29  O   LIG    1      -34.468  76.967  29.145  0.00  0.00    -0.424 OA
BRANCH  29  33
ATOM     30  C   LIG    1      -35.220  81.075  28.593  0.00  0.00    -0.013 A 
ATOM     31  C   LIG    1      -34.145  80.494  27.933  0.00  0.00    +0.012 A 
ATOM     32  C   LIG    1      -33.918  79.125  28.029  0.00  0.00    +0.047 A 
ATOM     33  C   LIG    1      -34.695  78.308  28.866  0.00  0.00    +0.132 A 
ATOM     34  C   LIG    1      -35.806  78.878  29.479  0.00  0.00    +0.047 A 
ATOM     35  C   LIG    1      -36.076  80.249  29.335  0.00  0.00    +0.012 A 
BRANCH  30  39
ATOM     36  C   LIG    1      -36.999  83.599  25.387  0.00  0.00    +0.218 A 
ATOM     37  N   LIG    1      -36.519  82.684  26.171  0.00  0.00    -0.193 NA
ATOM     38  C   LIG    1      -36.039  83.137  27.384  0.00  0.00    +0.167 A 
ATOM     39  C   LIG    1      -35.455  82.501  28.471  0.00  0.00    +0.046 A 
ATOM     40  C   LIG    1      -35.171  83.538  29.382  0.00  0.00    +0.145 A 
ATOM     41  N   LIG    1      -35.531  84.741  28.938  0.00  0.00    -0.173 NA
ATOM     42  N   LIG    1      -36.062  84.500  27.715  0.00  0.00    -0.221 N 
ATOM     43  C   LIG    1      -36.577  85.438  26.825  0.00  0.00    +0.120 A 
ATOM     44  C   LIG    1      -37.080  85.054  25.645  0.00  0.00    +0.087 A 
BRANCH  36  46
ATOM     45  C   LIG    1      -38.570  84.216  23.725  0.00  0.00    +0.279 C 
ATOM     46  O   LIG    1      -37.500  83.368  24.151  0.00  0.00    -0.480 OA
ENDBRANCH  36  46
ENDBRANCH  30  39
ENDBRANCH  29  33
ENDBRANCH   1  29
TORSDOF 10
ENDMDL
MODEL 9
REMARK VINA RESULT:      -6.8      2.194      3.969
REMARK  Name = pdb/CHEMBL3957079.pdb
REMARK                            x       y       z     vdW  Elec       q    Type
REMARK                         _______ _______ _______ _____ _____    ______ ____
ROOT
ATOM      1  C   LIG    1      -26.628  83.570  36.915  0.00  0.00    +0.323 A 
ATOM      2  N   LIG    1      -27.732  82.906  37.245  0.00  0.00    -0.201 NA
ATOM      3  C   LIG    1      -28.886  83.307  36.748  0.00  0.00    +0.145 A 
ATOM      4  C   LIG    1      -29.056  84.335  35.851  0.00  0.00    +0.105 A 
ATOM      5  C   LIG    1      -27.845  84.958  35.563  0.00  0.00    +0.145 A 
ATOM      6  N   LIG    1      -26.623  84.609  36.060  0.00  0.00    -0.201 NA
ENDROOT
BRANCH   4   7
ATOM      7  N   LIG    1      -30.284  84.764  35.323  0.00  0.00    -0.196 NA
ATOM      8  C   LIG    1      -30.771  84.354  34.186  0.00  0.00    +0.285 C 
BRANCH   8   9
ATOM      9  N   LIG    1      -31.972  84.611  33.617  0.00  0.00    -0.269 N 
ATOM     10  H   LIG    1      -32.765  84.524  34.215  0.00  0.00    +0.157 HD
BRANCH   9  11
ATOM     11  C   LIG    1      -32.232  85.232  32.375  0.00  0.00    +0.043 A 
ATOM     12  C   LIG    1      -33.229  84.784  31.457  0.00  0.00    +0.005 A 
ATOM     13  C   LIG    1      -33.304  85.485  30.223  0.00  0.00    +0.011 A 
ATOM     14  C   LIG    1      -32.454  86.551  29.894  0.00  0.00    +0.013 A 
ATOM     15  C   LIG    1      -31.486  86.979  30.788  0.00  0.00    +0.057 A 
ATOM     16  C   LIG    1      -31.403  86.328  32.012  0.00  0.00    +0.036 A 
BRANCH  12  17
ATOM     17  C   LIG    1      -34.237  83.689  31.697  0.00  0.00    +0.002 A 
ATOM     18  C   LIG    1      -34.625  82.759  30.728  0.00  0.00    +0.119 A 
ATOM     19  N   LIG    1      -35.465  81.704  30.908  0.00  0.00    -0.263 NA
ATOM     20  C   LIG    1      -35.928  81.501  32.154  0.00  0.00    +0.111 A 
ATOM     21  C   LIG    1      -35.616  82.329  33.212  0.00  0.00    +0.020 A 
ATOM     22  C   LIG    1      -34.783  83.432  32.973  0.00  0.00    +0.011 A 
ENDBRANCH  12  17
BRANCH  15  23
ATOM     23  C   LIG    1      -30.547  88.115  30.468  0.00  0.00    +0.417 C 
ATOM     24  F   LIG    1      -29.606  87.762  29.548  0.00  0.00    -0.166 F 
ATOM     25  F   LIG    1      -29.857  88.549  31.562  0.00  0.00    -0.166 F 
ATOM     26  F   LIG    1      -31.167  89.215  29.962  0.00  0.00    -0.166 F 
ENDBRANCH  15  23
ENDBRANCH   9  11
ENDBRANCH   8   9
BRANCH   8  27
ATOM     27  O   LIG    1      -30.073  83.537  33.378  0.00  0.00    -0.481 OA
ATOM     28  H   LIG    1      -29.282  83.955  32.988  0.00  0.00    +0.295 HD
ENDBRANCH   8  27
ENDBRANCH   4   7
BRANCH   1  29
ATOM     29  O   LIG    1      -25.426  83.155  37.475  0.00  0.00    -0.424 OA
BRANCH  29  33
ATOM     30  C   LIG    1      -23.324  80.325  35.167  0.00  0.00    -0.013 A 
ATOM     31  C   LIG    1      -22.757  81.576  35.378  0.00  0.00    +0.012 A 
ATOM     32  C   LIG    1      -23.387  82.504  36.202  0.00  0.00    +0.047 A 
ATOM     33  C   LIG    1      -24.650  82.252  36.761  0.00  0.00    +0.132 A 
ATOM     34  C   LIG    1      -25.190  80.980  36.599  0.00  0.00    +0.047 A 
ATOM     35  C   LIG    1      -24.528  80.018  35.818  0.00  0.00    +0.012 A 
BRANCH  30  39
ATOM     36  C   LIG    1      -24.690  77.776  31.784  0.00  0.00    +0.218 A 
ATOM     37  N   LIG    1      -24.518  78.590  32.779  0.00  0.00    -0.193 NA
ATOM     38  C   LIG    1      -23.234  78.644  33.284  0.00  0.00    +0.167 A 
ATOM     39  C   LIG    1      -22.650  79.362  34.319  0.00  0.00    +0.046 A 
ATOM     40  C   LIG    1      -21.306  78.942  34.331  0.00  0.00    +0.145 A 
ATOM     41  N   LIG    1      -21.029  78.035  33.395  0.00  0.00    -0.173 NA
ATOM     42  N   LIG    1      -22.207  77.849  32.753  0.00  0.00    -0.221 N 
ATOM     43  C   LIG    1      -22.455  76.983  31.693  0.00  0.00    +0.120 A 
ATOM     44  C   LIG    1      -23.676  76.908  31.146  0.00  0.00    +0.087 A 
BRANCH  36  46
ATOM     45  C   LIG    1      -26.690  76.511  31.682  0.00  0.00    +0.279 C 
ATOM     46  O   LIG    1      -25.872  77.562  31.160  0.00  0.00    -0.480 OA
ENDBRANCH  36  46
ENDBRANCH  30  39
ENDBRANCH  29  33
ENDBRANCH   1  29
TORSDOF 10
ENDMDL
