MODEL 1
REMARK VINA RESULT:      -7.4      0.000      0.000
REMARK  Name = pdb/CHEMBL3915459.pdb
REMARK                            x       y       z     vdW  Elec       q    Type
REMARK                         _______ _______ _______ _____ _____    ______ ____
ROOT
ATOM      1  C   LIG    1      -37.121  75.841  26.043  0.00  0.00    +0.149 A 
ATOM      2  N   LIG    1      -37.584  74.582  25.955  0.00  0.00    -0.160 NA
ATOM      3  N   LIG    1      -38.528  74.628  24.968  0.00  0.00    -0.218 N 
ATOM      4  C   LIG    1      -38.818  75.951  24.602  0.00  0.00    +0.129 A 
ATOM      5  C   LIG    1      -37.842  76.712  25.203  0.00  0.00    +0.078 A 
ENDROOT
BRANCH   3   6
ATOM      6  C   LIG    1      -39.127  73.423  24.502  0.00  0.00    +0.067 A 
ATOM      7  C   LIG    1      -38.414  72.215  24.577  0.00  0.00    +0.028 A 
ATOM      8  C   LIG    1      -38.987  71.028  24.108  0.00  0.00    +0.002 A 
ATOM      9  C   LIG    1      -40.260  71.042  23.542  0.00  0.00    +0.000 A 
ATOM     10  C   LIG    1      -40.967  72.239  23.455  0.00  0.00    +0.002 A 
ATOM     11  C   LIG    1      -40.406  73.427  23.932  0.00  0.00    +0.028 A 
ENDBRANCH   3   6
BRANCH   4  12
ATOM     12  N   LIG    1      -39.923  76.421  23.870  0.00  0.00    -0.266 N 
ATOM     13  H   LIG    1      -39.853  76.458  22.865  0.00  0.00    +0.157 HD
ATOM     14  C   LIG    1      -41.190  76.744  24.487  0.00  0.00    +0.251 C 
ATOM     15  O   LIG    1      -41.348  76.633  25.682  0.00  0.00    -0.270 OA
BRANCH  14  16
ATOM     16  C   LIG    1      -42.334  77.152  23.637  0.00  0.00    +0.056 A 
ATOM     17  C   LIG    1      -42.902  78.426  23.627  0.00  0.00    +0.056 A 
ATOM     18 CL   LIG    1      -42.328  79.729  24.595  0.00  0.00    -0.083 Cl
ATOM     19  C   LIG    1      -44.029  78.672  22.842  0.00  0.00    +0.059 A 
ATOM     20  C   LIG    1      -44.597  77.651  22.076  0.00  0.00    +0.134 A 
ATOM     21  F   LIG    1      -45.716  77.953  21.405  0.00  0.00    -0.205 F 
ATOM     22  C   LIG    1      -44.064  76.359  22.046  0.00  0.00    +0.039 A 
ATOM     23  C   LIG    1      -42.920  76.138  22.849  0.00  0.00    +0.027 A 
BRANCH  22  24
ATOM     24  C   LIG    1      -44.657  75.244  21.275  0.00  0.00    +0.109 A 
ATOM     25  C   LIG    1      -44.736  75.195  19.882  0.00  0.00    +0.149 A 
ATOM     26  F   LIG    1      -44.237  76.169  19.109  0.00  0.00    -0.203 F 
ATOM     27  C   LIG    1      -45.306  74.090  19.258  0.00  0.00    +0.042 A 
ATOM     28  C   LIG    1      -45.780  73.040  20.031  0.00  0.00    +0.023 A 
ATOM     29  C   LIG    1      -45.664  73.142  21.406  0.00  0.00    +0.111 A 
ATOM     30  N   LIG    1      -45.115  74.208  22.038  0.00  0.00    -0.252 NA
ENDBRANCH  22  24
ENDBRANCH  14  16
ENDBRANCH   4  12
BRANCH   1  31
ATOM     31  C   LIG    1      -36.105  76.208  27.024  0.00  0.00    +0.236 C 
ATOM     32  N   LIG    1      -35.172  77.047  26.743  0.00  0.00    -0.240 NA
BRANCH  32  33
ATOM     33  C   LIG    1      -34.294  77.456  27.874  0.00  0.00    +0.180 C 
ATOM     34  C   LIG    1      -34.343  78.980  28.094  0.00  0.00    +0.283 C 
ATOM     35  F   LIG    1      -33.886  79.257  29.350  0.00  0.00    -0.202 F 
ATOM     36  F   LIG    1      -35.630  79.421  28.068  0.00  0.00    -0.202 F 
ATOM     37  C   LIG    1      -33.503  79.757  27.068  0.00  0.00    +0.159 C 
ATOM     38  N   LIG    1      -32.129  79.249  26.889  0.00  0.00    -0.311 NA
ATOM     39  H   LIG    1      -31.664  79.777  26.151  0.00  0.00    +0.122 HD
ATOM     40  C   LIG    1      -32.145  77.826  26.551  0.00  0.00    +0.083 C 
ATOM     41  C   LIG    1      -32.850  77.001  27.629  0.00  0.00    +0.048 C 
ENDBRANCH  32  33
BRANCH  31  42
ATOM     42  O   LIG    1      -36.268  75.628  28.235  0.00  0.00    -0.491 OA
ATOM     43  H   LIG    1      -36.506  74.690  28.105  0.00  0.00    +0.294 HD
ENDBRANCH  31  42
ENDBRANCH   1  31
TORSDOF 7
ENDMDL
MODEL 2
REMARK VINA RESULT:      -7.1     18.529     21.475
REMARK  Name = pdb/CHEMBL3915459.pdb
REMARK                            x       y       z     vdW  Elec       q    Type
REMARK                         _______ _______ _______ _____ _____    ______ ____
ROOT
ATOM      1  C   LIG    1      -22.794  83.044  15.555  0.00  0.00    +0.149 A 
ATOM      2  N   LIG    1      -23.730  82.476  14.773  0.00  0.00    -0.160 NA
ATOM      3  N   LIG    1      -23.652  81.142  15.053  0.00  0.00    -0.218 N 
ATOM      4  C   LIG    1      -22.521  80.848  15.830  0.00  0.00    +0.129 A 
ATOM      5  C   LIG    1      -22.043  82.071  16.243  0.00  0.00    +0.078 A 
ENDROOT
BRANCH   3   6
ATOM      6  C   LIG    1      -24.614  80.245  14.507  0.00  0.00    +0.067 A 
ATOM      7  C   LIG    1      -24.931  80.310  13.140  0.00  0.00    +0.028 A 
ATOM      8  C   LIG    1      -25.885  79.444  12.595  0.00  0.00    +0.002 A 
ATOM      9  C   LIG    1      -26.544  78.527  13.412  0.00  0.00    +0.000 A 
ATOM     10  C   LIG    1      -26.242  78.466  14.771  0.00  0.00    +0.002 A 
ATOM     11  C   LIG    1      -25.282  79.320  15.320  0.00  0.00    +0.028 A 
ENDBRANCH   3   6
BRANCH   4  12
ATOM     12  N   LIG    1      -21.932  79.592  16.057  0.00  0.00    -0.266 N 
ATOM     13  H   LIG    1      -22.049  79.162  16.962  0.00  0.00    +0.157 HD
ATOM     14  C   LIG    1      -21.266  78.840  15.017  0.00  0.00    +0.251 C 
ATOM     15  O   LIG    1      -21.176  79.279  13.892  0.00  0.00    -0.270 OA
BRANCH  14  16
ATOM     16  C   LIG    1      -20.745  77.485  15.314  0.00  0.00    +0.056 A 
ATOM     17  C   LIG    1      -19.396  77.171  15.480  0.00  0.00    +0.056 A 
ATOM     18 CL   LIG    1      -18.132  78.336  15.391  0.00  0.00    -0.083 Cl
ATOM     19  C   LIG    1      -19.017  75.843  15.678  0.00  0.00    +0.059 A 
ATOM     20  C   LIG    1      -19.976  74.826  15.698  0.00  0.00    +0.134 A 
ATOM     21  F   LIG    1      -19.522  73.573  15.825  0.00  0.00    -0.205 F 
ATOM     22  C   LIG    1      -21.340  75.088  15.541  0.00  0.00    +0.039 A 
ATOM     23  C   LIG    1      -21.697  76.443  15.347  0.00  0.00    +0.027 A 
BRANCH  22  24
ATOM     24  C   LIG    1      -22.381  74.035  15.524  0.00  0.00    +0.109 A 
ATOM     25  C   LIG    1      -23.142  73.652  16.630  0.00  0.00    +0.149 A 
ATOM     26  F   LIG    1      -23.009  74.246  17.823  0.00  0.00    -0.203 F 
ATOM     27  C   LIG    1      -24.104  72.656  16.497  0.00  0.00    +0.042 A 
ATOM     28  C   LIG    1      -24.304  72.061  15.260  0.00  0.00    +0.023 A 
ATOM     29  C   LIG    1      -23.526  72.492  14.199  0.00  0.00    +0.111 A 
ATOM     30  N   LIG    1      -22.581  73.458  14.303  0.00  0.00    -0.252 NA
ENDBRANCH  22  24
ENDBRANCH  14  16
ENDBRANCH   4  12
BRANCH   1  31
ATOM     31  C   LIG    1      -22.545  84.481  15.517  0.00  0.00    +0.236 C 
ATOM     32  N   LIG    1      -22.148  85.066  14.443  0.00  0.00    -0.240 NA
BRANCH  32  33
ATOM     33  C   LIG    1      -22.082  86.553  14.491  0.00  0.00    +0.180 C 
ATOM     34  C   LIG    1      -22.622  87.176  13.191  0.00  0.00    +0.283 C 
ATOM     35  F   LIG    1      -22.934  88.484  13.427  0.00  0.00    -0.202 F 
ATOM     36  F   LIG    1      -23.792  86.581  12.830  0.00  0.00    -0.202 F 
ATOM     37  C   LIG    1      -21.618  87.098  12.030  0.00  0.00    +0.159 C 
ATOM     38  N   LIG    1      -20.257  87.563  12.365  0.00  0.00    -0.311 NA
ATOM     39  H   LIG    1      -19.642  87.420  11.564  0.00  0.00    +0.122 HD
ATOM     40  C   LIG    1      -19.739  86.844  13.528  0.00  0.00    +0.083 C 
ATOM     41  C   LIG    1      -20.645  87.022  14.748  0.00  0.00    +0.048 C 
ENDBRANCH  32  33
BRANCH  31  42
ATOM     42  O   LIG    1      -22.811  85.121  16.679  0.00  0.00    -0.491 OA
ATOM     43  H   LIG    1      -23.055  84.459  17.353  0.00  0.00    +0.294 HD
ENDBRANCH  31  42
ENDBRANCH   1  31
TORSDOF 7
ENDMDL
MODEL 3
REMARK VINA RESULT:      -7.0      3.828      6.781
REMARK  Name = pdb/CHEMBL3915459.pdb
REMARK                            x       y       z     vdW  Elec       q    Type
REMARK                         _______ _______ _______ _____ _____    ______ ____
ROOT
ATOM      1  C   LIG    1      -37.280  76.780  26.631  0.00  0.00    +0.149 A 
ATOM      2  N   LIG    1      -38.413  77.329  26.159  0.00  0.00    -0.160 NA
ATOM      3  N   LIG    1      -39.076  76.297  25.559  0.00  0.00    -0.218 N 
ATOM      4  C   LIG    1      -38.259  75.161  25.452  0.00  0.00    +0.129 A 
ATOM      5  C   LIG    1      -37.161  75.433  26.235  0.00  0.00    +0.078 A 
ENDROOT
BRANCH   3   6
ATOM      6  C   LIG    1      -40.401  76.490  25.074  0.00  0.00    +0.067 A 
ATOM      7  C   LIG    1      -41.470  76.570  25.980  0.00  0.00    +0.028 A 
ATOM      8  C   LIG    1      -42.778  76.744  25.515  0.00  0.00    +0.002 A 
ATOM      9  C   LIG    1      -43.029  76.815  24.146  0.00  0.00    +0.000 A 
ATOM     10  C   LIG    1      -41.973  76.725  23.242  0.00  0.00    +0.002 A 
ATOM     11  C   LIG    1      -40.663  76.562  23.700  0.00  0.00    +0.028 A 
ENDBRANCH   3   6
BRANCH   4  12
ATOM     12  N   LIG    1      -38.456  74.029  24.640  0.00  0.00    -0.266 N 
ATOM     13  H   LIG    1      -37.898  73.933  23.805  0.00  0.00    +0.157 HD
ATOM     14  C   LIG    1      -39.341  72.947  25.008  0.00  0.00    +0.251 C 
ATOM     15  O   LIG    1      -39.968  72.979  26.044  0.00  0.00    -0.270 OA
BRANCH  14  16
ATOM     16  C   LIG    1      -39.431  71.749  24.140  0.00  0.00    +0.056 A 
ATOM     17  C   LIG    1      -40.552  71.394  23.389  0.00  0.00    +0.056 A 
ATOM     18 CL   LIG    1      -41.999  72.326  23.345  0.00  0.00    -0.083 Cl
ATOM     19  C   LIG    1      -40.549  70.199  22.669  0.00  0.00    +0.059 A 
ATOM     20  C   LIG    1      -39.438  69.352  22.704  0.00  0.00    +0.134 A 
ATOM     21  F   LIG    1      -39.543  68.194  22.041  0.00  0.00    -0.205 F 
ATOM     22  C   LIG    1      -38.288  69.663  23.436  0.00  0.00    +0.039 A 
ATOM     23  C   LIG    1      -38.317  70.883  24.153  0.00  0.00    +0.027 A 
BRANCH  22  24
ATOM     24  C   LIG    1      -37.106  68.776  23.524  0.00  0.00    +0.109 A 
ATOM     25  C   LIG    1      -36.397  68.287  22.426  0.00  0.00    +0.149 A 
ATOM     26  F   LIG    1      -36.719  68.618  21.168  0.00  0.00    -0.203 F 
ATOM     27  C   LIG    1      -35.290  67.468  22.624  0.00  0.00    +0.042 A 
ATOM     28  C   LIG    1      -34.898  67.154  23.918  0.00  0.00    +0.023 A 
ATOM     29  C   LIG    1      -35.635  67.678  24.965  0.00  0.00    +0.111 A 
ATOM     30  N   LIG    1      -36.718  68.477  24.798  0.00  0.00    -0.252 NA
ENDBRANCH  22  24
ENDBRANCH  14  16
ENDBRANCH   4  12
BRANCH   1  31
ATOM     31  C   LIG    1      -36.278  77.585  27.320  0.00  0.00    +0.236 C 
ATOM     32  N   LIG    1      -35.189  77.065  27.764  0.00  0.00    -0.240 NA
BRANCH  32  33
ATOM     33  C   LIG    1      -34.180  78.017  28.306  0.00  0.00    +0.180 C 
ATOM     34  C   LIG    1      -32.759  77.646  27.842  0.00  0.00    +0.283 C 
ATOM     35  F   LIG    1      -31.949  78.735  27.994  0.00  0.00    -0.202 F 
ATOM     36  F   LIG    1      -32.753  77.370  26.510  0.00  0.00    -0.202 F 
ATOM     37  C   LIG    1      -32.166  76.463  28.623  0.00  0.00    +0.159 C 
ATOM     38  N   LIG    1      -32.276  76.580  30.090  0.00  0.00    -0.311 NA
ATOM     39  H   LIG    1      -31.918  75.731  30.527  0.00  0.00    +0.122 HD
ATOM     40  C   LIG    1      -33.666  76.799  30.488  0.00  0.00    +0.083 C 
ATOM     41  C   LIG    1      -34.244  78.058  29.839  0.00  0.00    +0.048 C 
ENDBRANCH  32  33
BRANCH  31  42
ATOM     42  O   LIG    1      -36.580  78.901  27.399  0.00  0.00    -0.491 OA
ATOM     43  H   LIG    1      -36.611  79.160  28.340  0.00  0.00    +0.294 HD
ENDBRANCH  31  42
ENDBRANCH   1  31
TORSDOF 7
ENDMDL
MODEL 4
REMARK VINA RESULT:      -6.8      3.317      6.024
REMARK  Name = pdb/CHEMBL3915459.pdb
REMARK                            x       y       z     vdW  Elec       q    Type
REMARK                         _______ _______ _______ _____ _____    ______ ____
ROOT
ATOM      1  C   LIG    1      -37.234  75.820  26.677  0.00  0.00    +0.149 A 
ATOM      2  N   LIG    1      -38.114  76.732  26.229  0.00  0.00    -0.160 NA
ATOM      3  N   LIG    1      -39.003  76.017  25.478  0.00  0.00    -0.218 N 
ATOM      4  C   LIG    1      -38.551  74.705  25.266  0.00  0.00    +0.129 A 
ATOM      5  C   LIG    1      -37.486  74.550  26.123  0.00  0.00    +0.078 A 
ENDROOT
BRANCH   3   6
ATOM      6  C   LIG    1      -40.170  76.651  24.965  0.00  0.00    +0.067 A 
ATOM      7  C   LIG    1      -40.799  77.662  25.709  0.00  0.00    +0.028 A 
ATOM      8  C   LIG    1      -41.955  78.281  25.222  0.00  0.00    +0.002 A 
ATOM      9  C   LIG    1      -42.503  77.880  24.005  0.00  0.00    +0.000 A 
ATOM     10  C   LIG    1      -41.890  76.870  23.268  0.00  0.00    +0.002 A 
ATOM     11  C   LIG    1      -40.728  76.254  23.743  0.00  0.00    +0.028 A 
ENDBRANCH   3   6
BRANCH   4  12
ATOM     12  N   LIG    1      -39.010  73.779  24.313  0.00  0.00    -0.266 N 
ATOM     13  H   LIG    1      -38.593  73.787  23.394  0.00  0.00    +0.157 HD
ATOM     14  C   LIG    1      -39.969  72.743  24.626  0.00  0.00    +0.251 C 
ATOM     15  O   LIG    1      -40.433  72.640  25.740  0.00  0.00    -0.270 OA
BRANCH  14  16
ATOM     16  C   LIG    1      -40.339  71.751  23.588  0.00  0.00    +0.056 A 
ATOM     17  C   LIG    1      -41.524  71.775  22.853  0.00  0.00    +0.056 A 
ATOM     18 CL   LIG    1      -42.727  72.994  23.030  0.00  0.00    -0.083 Cl
ATOM     19  C   LIG    1      -41.800  70.742  21.957  0.00  0.00    +0.059 A 
ATOM     20  C   LIG    1      -40.906  69.679  21.801  0.00  0.00    +0.134 A 
ATOM     21  F   LIG    1      -41.278  68.696  20.974  0.00  0.00    -0.205 F 
ATOM     22  C   LIG    1      -39.702  69.610  22.511  0.00  0.00    +0.039 A 
ATOM     23  C   LIG    1      -39.446  70.673  23.409  0.00  0.00    +0.027 A 
BRANCH  22  24
ATOM     24  C   LIG    1      -38.747  68.486  22.397  0.00  0.00    +0.109 A 
ATOM     25  C   LIG    1      -37.819  68.332  21.366  0.00  0.00    +0.149 A 
ATOM     26  F   LIG    1      -37.694  69.235  20.384  0.00  0.00    -0.203 F 
ATOM     27  C   LIG    1      -36.958  67.240  21.364  0.00  0.00    +0.042 A 
ATOM     28  C   LIG    1      -37.025  66.317  22.399  0.00  0.00    +0.023 A 
ATOM     29  C   LIG    1      -37.958  66.529  23.398  0.00  0.00    +0.111 A 
ATOM     30  N   LIG    1      -38.810  67.584  23.421  0.00  0.00    -0.252 NA
ENDBRANCH  22  24
ENDBRANCH  14  16
ENDBRANCH   4  12
BRANCH   1  31
ATOM     31  C   LIG    1      -36.095  76.207  27.503  0.00  0.00    +0.236 C 
ATOM     32  N   LIG    1      -35.183  76.998  27.060  0.00  0.00    -0.240 NA
BRANCH  32  33
ATOM     33  C   LIG    1      -34.161  77.441  28.049  0.00  0.00    +0.180 C 
ATOM     34  C   LIG    1      -34.216  78.965  28.263  0.00  0.00    +0.283 C 
ATOM     35  F   LIG    1      -33.589  79.266  29.437  0.00  0.00    -0.202 F 
ATOM     36  F   LIG    1      -35.504  79.374  28.420  0.00  0.00    -0.202 F 
ATOM     37  C   LIG    1      -33.554  79.752  27.120  0.00  0.00    +0.159 C 
ATOM     38  N   LIG    1      -32.208  79.275  26.747  0.00  0.00    -0.311 NA
ATOM     39  H   LIG    1      -31.869  79.806  25.946  0.00  0.00    +0.122 HD
ATOM     40  C   LIG    1      -32.236  77.849  26.425  0.00  0.00    +0.083 C 
ATOM     41  C   LIG    1      -32.756  77.018  27.600  0.00  0.00    +0.048 C 
ENDBRANCH  32  33
BRANCH  31  42
ATOM     42  O   LIG    1      -36.121  75.703  28.757  0.00  0.00    -0.491 OA
ATOM     43  H   LIG    1      -36.743  74.950  28.780  0.00  0.00    +0.294 HD
ENDBRANCH  31  42
ENDBRANCH   1  31
TORSDOF 7
ENDMDL
MODEL 5
REMARK VINA RESULT:      -6.8      2.288      4.038
REMARK  Name = pdb/CHEMBL3915459.pdb
REMARK                            x       y       z     vdW  Elec       q    Type
REMARK                         _______ _______ _______ _____ _____    ______ ____
ROOT
ATOM      1  C   LIG    1      -37.492  76.338  26.002  0.00  0.00    +0.149 A 
ATOM      2  N   LIG    1      -37.940  77.570  25.702  0.00  0.00    -0.160 NA
ATOM      3  N   LIG    1      -39.117  77.358  25.041  0.00  0.00    -0.218 N 
ATOM      4  C   LIG    1      -39.288  76.001  24.727  0.00  0.00    +0.129 A 
ATOM      5  C   LIG    1      -38.312  75.342  25.438  0.00  0.00    +0.078 A 
ENDROOT
BRANCH   3   6
ATOM      6  C   LIG    1      -39.949  78.463  24.702  0.00  0.00    +0.067 A 
ATOM      7  C   LIG    1      -39.468  79.457  23.834  0.00  0.00    +0.028 A 
ATOM      8  C   LIG    1      -40.271  80.555  23.506  0.00  0.00    +0.002 A 
ATOM      9  C   LIG    1      -41.545  80.679  24.057  0.00  0.00    +0.000 A 
ATOM     10  C   LIG    1      -42.023  79.702  24.927  0.00  0.00    +0.002 A 
ATOM     11  C   LIG    1      -41.230  78.597  25.251  0.00  0.00    +0.028 A 
ENDBRANCH   3   6
BRANCH   4  12
ATOM     12  N   LIG    1      -40.188  75.437  23.805  0.00  0.00    -0.266 N 
ATOM     13  H   LIG    1      -39.923  75.405  22.832  0.00  0.00    +0.157 HD
ATOM     14  C   LIG    1      -41.422  74.799  24.205  0.00  0.00    +0.251 C 
ATOM     15  O   LIG    1      -41.742  74.737  25.372  0.00  0.00    -0.270 OA
BRANCH  14  16
ATOM     16  C   LIG    1      -42.277  74.152  23.181  0.00  0.00    +0.056 A 
ATOM     17  C   LIG    1      -42.110  72.849  22.715  0.00  0.00    +0.056 A 
ATOM     18 CL   LIG    1      -40.886  71.784  23.291  0.00  0.00    -0.083 Cl
ATOM     19  C   LIG    1      -42.928  72.374  21.689  0.00  0.00    +0.059 A 
ATOM     20  C   LIG    1      -43.903  73.197  21.120  0.00  0.00    +0.134 A 
ATOM     21  F   LIG    1      -44.599  72.687  20.097  0.00  0.00    -0.205 F 
ATOM     22  C   LIG    1      -44.115  74.509  21.555  0.00  0.00    +0.039 A 
ATOM     23  C   LIG    1      -43.274  74.963  22.599  0.00  0.00    +0.027 A 
BRANCH  22  24
ATOM     24  C   LIG    1      -45.115  75.420  20.955  0.00  0.00    +0.109 A 
ATOM     25  C   LIG    1      -45.023  75.970  19.675  0.00  0.00    +0.149 A 
ATOM     26  F   LIG    1      -44.007  75.681  18.851  0.00  0.00    -0.203 F 
ATOM     27  C   LIG    1      -46.029  76.808  19.206  0.00  0.00    +0.042 A 
ATOM     28  C   LIG    1      -47.122  77.080  20.016  0.00  0.00    +0.023 A 
ATOM     29  C   LIG    1      -47.162  76.498  21.270  0.00  0.00    +0.111 A 
ATOM     30  N   LIG    1      -46.194  75.679  21.751  0.00  0.00    -0.252 NA
ENDBRANCH  22  24
ENDBRANCH  14  16
ENDBRANCH   4  12
BRANCH   1  31
ATOM     31  C   LIG    1      -36.222  76.142  26.693  0.00  0.00    +0.236 C 
ATOM     32  N   LIG    1      -35.388  77.107  26.852  0.00  0.00    -0.240 NA
BRANCH  32  33
ATOM     33  C   LIG    1      -34.204  76.819  27.708  0.00  0.00    +0.180 C 
ATOM     34  C   LIG    1      -34.052  77.871  28.823  0.00  0.00    +0.283 C 
ATOM     35  F   LIG    1      -33.251  77.360  29.802  0.00  0.00    -0.202 F 
ATOM     36  F   LIG    1      -35.253  78.106  29.418  0.00  0.00    -0.202 F 
ATOM     37  C   LIG    1      -33.453  79.193  28.317  0.00  0.00    +0.159 C 
ATOM     38  N   LIG    1      -32.230  79.040  27.504  0.00  0.00    -0.311 NA
ATOM     39  H   LIG    1      -31.935  79.953  27.159  0.00  0.00    +0.122 HD
ATOM     40  C   LIG    1      -32.466  78.133  26.382  0.00  0.00    +0.083 C 
ATOM     41  C   LIG    1      -32.927  76.755  26.860  0.00  0.00    +0.048 C 
ENDBRANCH  32  33
BRANCH  31  42
ATOM     42  O   LIG    1      -36.039  74.892  27.175  0.00  0.00    -0.491 OA
ATOM     43  H   LIG    1      -36.874  74.585  27.577  0.00  0.00    +0.294 HD
ENDBRANCH  31  42
ENDBRANCH   1  31
TORSDOF 7
ENDMDL
MODEL 6
REMARK VINA RESULT:      -6.8      2.922      4.928
REMARK  Name = pdb/CHEMBL3915459.pdb
REMARK                            x       y       z     vdW  Elec       q    Type
REMARK                         _______ _______ _______ _____ _____    ______ ____
ROOT
ATOM      1  C   LIG    1      -37.092  75.662  26.622  0.00  0.00    +0.149 A 
ATOM      2  N   LIG    1      -37.931  76.527  26.024  0.00  0.00    -0.160 NA
ATOM      3  N   LIG    1      -38.772  75.741  25.289  0.00  0.00    -0.218 N 
ATOM      4  C   LIG    1      -38.320  74.413  25.244  0.00  0.00    +0.129 A 
ATOM      5  C   LIG    1      -37.318  74.343  26.184  0.00  0.00    +0.078 A 
ENDROOT
BRANCH   3   6
ATOM      6  C   LIG    1      -39.895  76.322  24.635  0.00  0.00    +0.067 A 
ATOM      7  C   LIG    1      -40.113  77.706  24.720  0.00  0.00    +0.028 A 
ATOM      8  C   LIG    1      -41.222  78.286  24.094  0.00  0.00    +0.002 A 
ATOM      9  C   LIG    1      -42.129  77.488  23.400  0.00  0.00    +0.000 A 
ATOM     10  C   LIG    1      -41.924  76.112  23.322  0.00  0.00    +0.002 A 
ATOM     11  C   LIG    1      -40.813  75.527  23.936  0.00  0.00    +0.028 A 
ENDBRANCH   3   6
BRANCH   4  12
ATOM     12  N   LIG    1      -38.721  73.395  24.361  0.00  0.00    -0.266 N 
ATOM     13  H   LIG    1      -38.336  73.388  23.428  0.00  0.00    +0.157 HD
ATOM     14  C   LIG    1      -39.570  72.297  24.765  0.00  0.00    +0.251 C 
ATOM     15  O   LIG    1      -39.988  72.217  25.899  0.00  0.00    -0.270 OA
BRANCH  14  16
ATOM     16  C   LIG    1      -39.880  71.217  23.798  0.00  0.00    +0.056 A 
ATOM     17  C   LIG    1      -38.981  70.231  23.393  0.00  0.00    +0.056 A 
ATOM     18 CL   LIG    1      -37.371  70.112  23.989  0.00  0.00    -0.083 Cl
ATOM     19  C   LIG    1      -39.362  69.312  22.415  0.00  0.00    +0.059 A 
ATOM     20  C   LIG    1      -40.629  69.379  21.831  0.00  0.00    +0.134 A 
ATOM     21  F   LIG    1      -40.890  68.503  20.853  0.00  0.00    -0.205 F 
ATOM     22  C   LIG    1      -41.570  70.345  22.205  0.00  0.00    +0.039 A 
ATOM     23  C   LIG    1      -41.159  71.262  23.202  0.00  0.00    +0.027 A 
BRANCH  22  24
ATOM     24  C   LIG    1      -42.909  70.468  21.587  0.00  0.00    +0.109 A 
ATOM     25  C   LIG    1      -43.168  71.109  20.374  0.00  0.00    +0.149 A 
ATOM     26  F   LIG    1      -42.191  71.651  19.635  0.00  0.00    -0.203 F 
ATOM     27  C   LIG    1      -44.467  71.157  19.879  0.00  0.00    +0.042 A 
ATOM     28  C   LIG    1      -45.492  70.554  20.594  0.00  0.00    +0.023 A 
ATOM     29  C   LIG    1      -45.170  69.925  21.784  0.00  0.00    +0.111 A 
ATOM     30  N   LIG    1      -43.913  69.867  22.289  0.00  0.00    -0.252 NA
ENDBRANCH  22  24
ENDBRANCH  14  16
ENDBRANCH   4  12
BRANCH   1  31
ATOM     31  C   LIG    1      -36.009  76.129  27.481  0.00  0.00    +0.236 C 
ATOM     32  N   LIG    1      -35.099  76.925  27.043  0.00  0.00    -0.240 NA
BRANCH  32  33
ATOM     33  C   LIG    1      -34.143  77.451  28.055  0.00  0.00    +0.180 C 
ATOM     34  C   LIG    1      -34.252  78.982  28.182  0.00  0.00    +0.283 C 
ATOM     35  F   LIG    1      -33.696  79.366  29.368  0.00  0.00    -0.202 F 
ATOM     36  F   LIG    1      -35.558  79.359  28.252  0.00  0.00    -0.202 F 
ATOM     37  C   LIG    1      -33.555  79.727  27.033  0.00  0.00    +0.159 C 
ATOM     38  N   LIG    1      -32.178  79.273  26.754  0.00  0.00    -0.311 NA
ATOM     39  H   LIG    1      -31.813  79.772  25.943  0.00  0.00    +0.122 HD
ATOM     40  C   LIG    1      -32.150  77.832  26.510  0.00  0.00    +0.083 C 
ATOM     41  C   LIG    1      -32.706  77.049  27.701  0.00  0.00    +0.048 C 
ENDBRANCH  32  33
BRANCH  31  42
ATOM     42  O   LIG    1      -36.085  75.690  28.758  0.00  0.00    -0.491 OA
ATOM     43  H   LIG    1      -36.352  74.751  28.752  0.00  0.00    +0.294 HD
ENDBRANCH  31  42
ENDBRANCH   1  31
TORSDOF 7
ENDMDL
MODEL 7
REMARK VINA RESULT:      -6.8      4.404      7.252
REMARK  Name = pdb/CHEMBL3915459.pdb
REMARK                            x       y       z     vdW  Elec       q    Type
REMARK                         _______ _______ _______ _____ _____    ______ ____
ROOT
ATOM      1  C   LIG    1      -37.478  79.939  27.571  0.00  0.00    +0.149 A 
ATOM      2  N   LIG    1      -36.537  79.277  28.268  0.00  0.00    -0.160 NA
ATOM      3  N   LIG    1      -36.568  78.006  27.769  0.00  0.00    -0.218 N 
ATOM      4  C   LIG    1      -37.677  77.813  26.931  0.00  0.00    +0.129 A 
ATOM      5  C   LIG    1      -38.187  79.073  26.716  0.00  0.00    +0.078 A 
ENDROOT
BRANCH   3   6
ATOM      6  C   LIG    1      -35.587  77.059  28.180  0.00  0.00    +0.067 A 
ATOM      7  C   LIG    1      -34.743  76.469  27.224  0.00  0.00    +0.028 A 
ATOM      8  C   LIG    1      -33.786  75.527  27.614  0.00  0.00    +0.002 A 
ATOM      9  C   LIG    1      -33.681  75.150  28.952  0.00  0.00    +0.000 A 
ATOM     10  C   LIG    1      -34.522  75.723  29.902  0.00  0.00    +0.002 A 
ATOM     11  C   LIG    1      -35.474  76.673  29.522  0.00  0.00    +0.028 A 
ENDBRANCH   3   6
BRANCH   4  12
ATOM     12  N   LIG    1      -38.221  76.595  26.487  0.00  0.00    -0.266 N 
ATOM     13  H   LIG    1      -38.918  76.143  27.059  0.00  0.00    +0.157 HD
ATOM     14  C   LIG    1      -37.909  76.022  25.196  0.00  0.00    +0.251 C 
ATOM     15  O   LIG    1      -37.142  76.573  24.439  0.00  0.00    -0.270 OA
BRANCH  14  16
ATOM     16  C   LIG    1      -38.589  74.777  24.765  0.00  0.00    +0.056 A 
ATOM     17  C   LIG    1      -39.842  74.726  24.156  0.00  0.00    +0.056 A 
ATOM     18 CL   LIG    1      -40.778  76.124  23.790  0.00  0.00    -0.083 Cl
ATOM     19  C   LIG    1      -40.418  73.489  23.866  0.00  0.00    +0.059 A 
ATOM     20  C   LIG    1      -39.754  72.303  24.192  0.00  0.00    +0.134 A 
ATOM     21  F   LIG    1      -40.404  71.160  23.942  0.00  0.00    -0.205 F 
ATOM     22  C   LIG    1      -38.493  72.299  24.798  0.00  0.00    +0.039 A 
ATOM     23  C   LIG    1      -37.932  73.568  25.077  0.00  0.00    +0.027 A 
BRANCH  22  24
ATOM     24  C   LIG    1      -37.774  71.066  25.187  0.00  0.00    +0.109 A 
ATOM     25  C   LIG    1      -37.340  70.084  24.295  0.00  0.00    +0.149 A 
ATOM     26  F   LIG    1      -37.516  70.199  22.973  0.00  0.00    -0.203 F 
ATOM     27  C   LIG    1      -36.661  68.967  24.770  0.00  0.00    +0.042 A 
ATOM     28  C   LIG    1      -36.413  68.847  26.131  0.00  0.00    +0.023 A 
ATOM     29  C   LIG    1      -36.859  69.858  26.963  0.00  0.00    +0.111 A 
ATOM     30  N   LIG    1      -37.524  70.955  26.525  0.00  0.00    -0.252 NA
ENDBRANCH  22  24
ENDBRANCH  14  16
ENDBRANCH   4  12
BRANCH   1  31
ATOM     31  C   LIG    1      -37.774  81.342  27.841  0.00  0.00    +0.236 C 
ATOM     32  N   LIG    1      -36.890  82.260  27.670  0.00  0.00    -0.240 NA
BRANCH  32  33
ATOM     33  C   LIG    1      -37.360  83.664  27.827  0.00  0.00    +0.180 C 
ATOM     34  C   LIG    1      -37.198  84.456  26.517  0.00  0.00    +0.283 C 
ATOM     35  F   LIG    1      -37.999  85.560  26.569  0.00  0.00    -0.202 F 
ATOM     36  F   LIG    1      -37.652  83.725  25.463  0.00  0.00    -0.202 F 
ATOM     37  C   LIG    1      -35.748  84.896  26.261  0.00  0.00    +0.159 C 
ATOM     38  N   LIG    1      -35.095  85.553  27.411  0.00  0.00    -0.311 NA
ATOM     39  H   LIG    1      -34.122  85.755  27.180  0.00  0.00    +0.122 HD
ATOM     40  C   LIG    1      -35.161  84.700  28.597  0.00  0.00    +0.083 C 
ATOM     41  C   LIG    1      -36.606  84.361  28.966  0.00  0.00    +0.048 C 
ENDBRANCH  32  33
BRANCH  31  42
ATOM     42  O   LIG    1      -39.047  81.577  28.232  0.00  0.00    -0.491 OA
ATOM     43  H   LIG    1      -39.041  82.268  28.922  0.00  0.00    +0.294 HD
ENDBRANCH  31  42
ENDBRANCH   1  31
TORSDOF 7
ENDMDL
MODEL 8
REMARK VINA RESULT:      -6.6      3.515     10.886
REMARK  Name = pdb/CHEMBL3915459.pdb
REMARK                            x       y       z     vdW  Elec       q    Type
REMARK                         _______ _______ _______ _____ _____    ______ ____
ROOT
ATOM      1  C   LIG    1      -40.126  73.061  24.107  0.00  0.00    +0.149 A 
ATOM      2  N   LIG    1      -40.627  74.304  24.225  0.00  0.00    -0.160 NA
ATOM      3  N   LIG    1      -39.553  75.081  24.555  0.00  0.00    -0.218 N 
ATOM      4  C   LIG    1      -38.433  74.295  24.869  0.00  0.00    +0.129 A 
ATOM      5  C   LIG    1      -38.766  73.020  24.473  0.00  0.00    +0.078 A 
ENDROOT
BRANCH   3   6
ATOM      6  C   LIG    1      -39.692  76.496  24.614  0.00  0.00    +0.067 A 
ATOM      7  C   LIG    1      -39.764  77.139  25.860  0.00  0.00    +0.028 A 
ATOM      8  C   LIG    1      -39.916  78.528  25.930  0.00  0.00    +0.002 A 
ATOM      9  C   LIG    1      -40.021  79.279  24.761  0.00  0.00    +0.000 A 
ATOM     10  C   LIG    1      -39.963  78.646  23.521  0.00  0.00    +0.002 A 
ATOM     11  C   LIG    1      -39.800  77.259  23.444  0.00  0.00    +0.028 A 
ENDBRANCH   3   6
BRANCH   4  12
ATOM     12  N   LIG    1      -37.262  74.691  25.540  0.00  0.00    -0.266 N 
ATOM     13  H   LIG    1      -36.503  75.073  24.997  0.00  0.00    +0.157 HD
ATOM     14  C   LIG    1      -37.144  74.680  26.980  0.00  0.00    +0.251 C 
ATOM     15  O   LIG    1      -38.061  74.309  27.678  0.00  0.00    -0.270 OA
BRANCH  14  16
ATOM     16  C   LIG    1      -35.907  75.193  27.616  0.00  0.00    +0.056 A 
ATOM     17  C   LIG    1      -34.865  74.394  28.088  0.00  0.00    +0.056 A 
ATOM     18 CL   LIG    1      -34.859  72.676  27.971  0.00  0.00    -0.083 Cl
ATOM     19  C   LIG    1      -33.784  74.986  28.741  0.00  0.00    +0.059 A 
ATOM     20  C   LIG    1      -33.743  76.369  28.937  0.00  0.00    +0.134 A 
ATOM     21  F   LIG    1      -32.705  76.848  29.632  0.00  0.00    -0.205 F 
ATOM     22  C   LIG    1      -34.758  77.215  28.479  0.00  0.00    +0.039 A 
ATOM     23  C   LIG    1      -35.841  76.589  27.817  0.00  0.00    +0.027 A 
BRANCH  22  24
ATOM     24  C   LIG    1      -34.766  78.679  28.696  0.00  0.00    +0.109 A 
ATOM     25  C   LIG    1      -34.773  79.296  29.948  0.00  0.00    +0.149 A 
ATOM     26  F   LIG    1      -34.739  78.592  31.087  0.00  0.00    -0.203 F 
ATOM     27  C   LIG    1      -34.768  80.685  30.036  0.00  0.00    +0.042 A 
ATOM     28  C   LIG    1      -34.745  81.442  28.874  0.00  0.00    +0.023 A 
ATOM     29  C   LIG    1      -34.728  80.772  27.663  0.00  0.00    +0.111 A 
ATOM     30  N   LIG    1      -34.735  79.421  27.550  0.00  0.00    -0.252 NA
ENDBRANCH  22  24
ENDBRANCH  14  16
ENDBRANCH   4  12
BRANCH   1  31
ATOM     31  C   LIG    1      -40.985  71.925  23.789  0.00  0.00    +0.236 C 
ATOM     32  N   LIG    1      -41.844  71.979  22.835  0.00  0.00    -0.240 NA
BRANCH  32  33
ATOM     33  C   LIG    1      -42.546  70.707  22.510  0.00  0.00    +0.180 C 
ATOM     34  C   LIG    1      -42.119  70.171  21.131  0.00  0.00    +0.283 C 
ATOM     35  F   LIG    1      -42.439  68.847  21.055  0.00  0.00    -0.202 F 
ATOM     36  F   LIG    1      -40.766  70.228  21.000  0.00  0.00    -0.202 F 
ATOM     37  C   LIG    1      -42.788  70.920  19.967  0.00  0.00    +0.159 C 
ATOM     38  N   LIG    1      -44.251  71.068  20.095  0.00  0.00    -0.311 NA
ATOM     39  H   LIG    1      -44.605  71.627  19.319  0.00  0.00    +0.122 HD
ATOM     40  C   LIG    1      -44.596  71.703  21.366  0.00  0.00    +0.083 C 
ATOM     41  C   LIG    1      -44.067  70.901  22.556  0.00  0.00    +0.048 C 
ENDBRANCH  32  33
BRANCH  31  42
ATOM     42  O   LIG    1      -40.757  70.828  24.547  0.00  0.00    -0.491 OA
ATOM     43  H   LIG    1      -40.737  71.095  25.487  0.00  0.00    +0.294 HD
ENDBRANCH  31  42
ENDBRANCH   1  31
TORSDOF 7
ENDMDL
MODEL 9
REMARK VINA RESULT:      -6.6      2.488      3.112
REMARK  Name = pdb/CHEMBL3915459.pdb
REMARK                            x       y       z     vdW  Elec       q    Type
REMARK                         _______ _______ _______ _____ _____    ______ ____
ROOT
ATOM      1  C   LIG    1      -36.742  75.969  26.465  0.00  0.00    +0.149 A 
ATOM      2  N   LIG    1      -36.986  74.739  26.951  0.00  0.00    -0.160 NA
ATOM      3  N   LIG    1      -37.795  74.153  26.020  0.00  0.00    -0.218 N 
ATOM      4  C   LIG    1      -38.243  75.086  25.073  0.00  0.00    +0.129 A 
ATOM      5  C   LIG    1      -37.482  76.212  25.291  0.00  0.00    +0.078 A 
ENDROOT
BRANCH   3   6
ATOM      6  C   LIG    1      -38.133  72.775  26.141  0.00  0.00    +0.067 A 
ATOM      7  C   LIG    1      -37.617  71.847  25.222  0.00  0.00    +0.028 A 
ATOM      8  C   LIG    1      -37.954  70.493  25.322  0.00  0.00    +0.002 A 
ATOM      9  C   LIG    1      -38.824  70.061  26.321  0.00  0.00    +0.000 A 
ATOM     10  C   LIG    1      -39.348  70.979  27.229  0.00  0.00    +0.002 A 
ATOM     11  C   LIG    1      -39.006  72.332  27.142  0.00  0.00    +0.028 A 
ENDBRANCH   3   6
BRANCH   4  12
ATOM     12  N   LIG    1      -39.308  74.951  24.165  0.00  0.00    -0.266 N 
ATOM     13  H   LIG    1      -39.099  74.687  23.215  0.00  0.00    +0.157 HD
ATOM     14  C   LIG    1      -40.694  75.062  24.563  0.00  0.00    +0.251 C 
ATOM     15  O   LIG    1      -40.996  75.293  25.712  0.00  0.00    -0.270 OA
BRANCH  14  16
ATOM     16  C   LIG    1      -41.763  74.822  23.564  0.00  0.00    +0.056 A 
ATOM     17  C   LIG    1      -42.579  75.814  23.020  0.00  0.00    +0.056 A 
ATOM     18 CL   LIG    1      -42.440  77.482  23.419  0.00  0.00    -0.083 Cl
ATOM     19  C   LIG    1      -43.606  75.458  22.146  0.00  0.00    +0.059 A 
ATOM     20  C   LIG    1      -43.830  74.117  21.821  0.00  0.00    +0.134 A 
ATOM     21  F   LIG    1      -44.877  73.856  21.030  0.00  0.00    -0.205 F 
ATOM     22  C   LIG    1      -43.037  73.086  22.334  0.00  0.00    +0.039 A 
ATOM     23  C   LIG    1      -42.000  73.475  23.215  0.00  0.00    +0.027 A 
BRANCH  22  24
ATOM     24  C   LIG    1      -43.263  71.653  22.039  0.00  0.00    +0.109 A 
ATOM     25  C   LIG    1      -42.889  71.017  20.854  0.00  0.00    +0.149 A 
ATOM     26  F   LIG    1      -42.247  71.665  19.873  0.00  0.00    -0.203 F 
ATOM     27  C   LIG    1      -43.140  69.659  20.687  0.00  0.00    +0.042 A 
ATOM     28  C   LIG    1      -43.753  68.948  21.710  0.00  0.00    +0.023 A 
ATOM     29  C   LIG    1      -44.090  69.632  22.864  0.00  0.00    +0.111 A 
ATOM     30  N   LIG    1      -43.858  70.955  23.051  0.00  0.00    -0.252 NA
ENDBRANCH  22  24
ENDBRANCH  14  16
ENDBRANCH   4  12
BRANCH   1  31
ATOM     31  C   LIG    1      -35.928  76.928  27.203  0.00  0.00    +0.236 C 
ATOM     32  N   LIG    1      -34.823  76.582  27.762  0.00  0.00    -0.240 NA
BRANCH  32  33
ATOM     33  C   LIG    1      -34.009  77.682  28.348  0.00  0.00    +0.180 C 
ATOM     34  C   LIG    1      -32.522  77.536  27.973  0.00  0.00    +0.283 C 
ATOM     35  F   LIG    1      -31.903  78.739  28.156  0.00  0.00    -0.202 F 
ATOM     36  F   LIG    1      -32.394  77.257  26.647  0.00  0.00    -0.202 F 
ATOM     37  C   LIG    1      -31.800  76.464  28.804  0.00  0.00    +0.159 C 
ATOM     38  N   LIG    1      -32.014  76.570  30.261  0.00  0.00    -0.311 NA
ATOM     39  H   LIG    1      -31.555  75.790  30.730  0.00  0.00    +0.122 HD
ATOM     40  C   LIG    1      -33.443  76.571  30.573  0.00  0.00    +0.083 C 
ATOM     41  C   LIG    1      -34.170  77.720  29.873  0.00  0.00    +0.048 C 
ENDBRANCH  32  33
BRANCH  31  42
ATOM     42  O   LIG    1      -36.415  78.190  27.199  0.00  0.00    -0.491 OA
ATOM     43  H   LIG    1      -36.664  78.427  26.286  0.00  0.00    +0.294 HD
ENDBRANCH  31  42
ENDBRANCH   1  31
TORSDOF 7
ENDMDL
