MODEL 1
REMARK VINA RESULT:      -5.7      0.000      0.000
REMARK  Name = pdb/CHEMBL3676072.pdb
REMARK                            x       y       z     vdW  Elec       q    Type
REMARK                         _______ _______ _______ _____ _____    ______ ____
ROOT
ATOM      1  C   LIG    1      -21.506  80.000  36.002  0.00  0.00    +0.105 C 
ATOM      2  N   LIG    1      -22.808  80.512  35.553  0.00  0.00    -0.308 N 
ATOM      3  C   LIG    1      -22.839  81.976  35.650  0.00  0.00    +0.107 C 
ATOM      4  C   LIG    1      -21.611  82.339  36.470  0.00  0.00    +0.021 C 
ATOM      5  C   LIG    1      -20.623  81.255  36.090  0.00  0.00    +0.029 C 
ENDROOT
BRANCH   2   6
ATOM      6  C   LIG    1      -23.948  79.800  35.206  0.00  0.00    +0.126 A 
ATOM      7  N   LIG    1      -23.956  79.213  34.023  0.00  0.00    -0.212 NA
ATOM      8  C   LIG    1      -24.975  78.345  33.734  0.00  0.00    +0.170 A 
ATOM      9  C   LIG    1      -25.281  77.615  32.600  0.00  0.00    +0.100 A 
ATOM     10  C   LIG    1      -26.315  76.752  33.025  0.00  0.00    +0.150 A 
ATOM     11  N   LIG    1      -26.741  77.008  34.265  0.00  0.00    -0.173 NA
ATOM     12  N   LIG    1      -25.953  78.028  34.678  0.00  0.00    -0.221 N 
ATOM     13  C   LIG    1      -26.039  78.742  35.860  0.00  0.00    +0.118 A 
ATOM     14  C   LIG    1      -25.119  79.670  36.152  0.00  0.00    +0.063 A 
BRANCH   9  15
ATOM     15  C   LIG    1      -24.675  77.657  31.275  0.00  0.00    +0.249 C 
ATOM     16  N   LIG    1      -23.327  77.333  31.246  0.00  0.00    -0.308 N 
ATOM     17  H   LIG    1      -22.871  77.147  32.134  0.00  0.00    +0.149 HD
ATOM     18  O   LIG    1      -25.308  77.990  30.290  0.00  0.00    -0.270 OA
BRANCH  16  19
ATOM     19  C   LIG    1      -22.554  77.322  30.040  0.00  0.00    +0.073 C 
ATOM     20  C   LIG    1      -21.531  76.249  29.768  0.00  0.00    +0.024 C 
ATOM     21  C   LIG    1      -21.084  77.643  30.088  0.00  0.00    +0.024 C 
ENDBRANCH  16  19
ENDBRANCH   9  15
ENDBRANCH   2   6
BRANCH   1  24
ATOM     22  C   LIG    1      -20.484  76.666  34.389  0.00  0.00    +0.124 A 
ATOM     23  C   LIG    1      -21.086  77.601  35.242  0.00  0.00    +0.051 A 
ATOM     24  C   LIG    1      -20.841  78.974  35.111  0.00  0.00    -0.021 A 
ATOM     25  C   LIG    1      -19.980  79.399  34.093  0.00  0.00    +0.044 A 
ATOM     26  C   LIG    1      -19.351  78.466  33.272  0.00  0.00    +0.127 A 
ATOM     27  F   LIG    1      -18.522  78.904  32.316  0.00  0.00    -0.205 F 
ATOM     28  C   LIG    1      -19.578  77.101  33.423  0.00  0.00    +0.084 A 
BRANCH  22  29
ATOM     29  O   LIG    1      -20.725  75.315  34.470  0.00  0.00    -0.489 OA
BRANCH  29  30
ATOM     30  C   LIG    1      -22.120  74.984  34.589  0.00  0.00    +0.263 C 
BRANCH  30  34
ATOM     31  C   LIG    1      -25.066  73.732  31.217  0.00  0.00    +0.074 C 
ATOM     32  C   LIG    1      -24.158  73.134  32.281  0.00  0.00    +0.165 C 
ATOM     33  O   LIG    1      -24.031  74.052  33.378  0.00  0.00    -0.340 OA
ATOM     34  C   LIG    1      -22.717  74.596  33.246  0.00  0.00    +0.184 C 
ATOM     35  C   LIG    1      -21.941  73.465  32.610  0.00  0.00    +0.198 C 
ATOM     36  O   LIG    1      -22.870  72.896  31.692  0.00  0.00    -0.346 OA
ATOM     37  C   LIG    1      -24.715  71.828  32.827  0.00  0.00    +0.074 C 
ENDBRANCH  30  34
ENDBRANCH  29  30
ENDBRANCH  22  29
ENDBRANCH   1  24
TORSDOF 7
ENDMDL
MODEL 2
REMARK VINA RESULT:      -5.7     13.494     16.762
REMARK  Name = pdb/CHEMBL3676072.pdb
REMARK                            x       y       z     vdW  Elec       q    Type
REMARK                         _______ _______ _______ _____ _____    ______ ____
ROOT
ATOM      1  C   LIG    1      -38.777  77.215  24.478  0.00  0.00    +0.105 C 
ATOM      2  N   LIG    1      -39.099  77.917  25.728  0.00  0.00    -0.308 N 
ATOM      3  C   LIG    1      -39.879  79.127  25.444  0.00  0.00    +0.107 C 
ATOM      4  C   LIG    1      -39.769  79.319  23.940  0.00  0.00    +0.021 C 
ATOM      5  C   LIG    1      -39.671  77.896  23.428  0.00  0.00    +0.029 C 
ENDROOT
BRANCH   2   6
ATOM      6  C   LIG    1      -38.661  77.642  27.016  0.00  0.00    +0.126 A 
ATOM      7  N   LIG    1      -37.573  78.268  27.430  0.00  0.00    -0.212 NA
ATOM      8  C   LIG    1      -37.231  78.172  28.753  0.00  0.00    +0.170 A 
ATOM      9  C   LIG    1      -36.161  78.669  29.474  0.00  0.00    +0.100 A 
ATOM     10  C   LIG    1      -36.515  78.413  30.818  0.00  0.00    +0.150 A 
ATOM     11  N   LIG    1      -37.627  77.684  30.942  0.00  0.00    -0.173 NA
ATOM     12  N   LIG    1      -38.034  77.487  29.666  0.00  0.00    -0.221 N 
ATOM     13  C   LIG    1      -39.088  76.710  29.221  0.00  0.00    +0.118 A 
ATOM     14  C   LIG    1      -39.410  76.694  27.922  0.00  0.00    +0.063 A 
BRANCH   9  15
ATOM     15  C   LIG    1      -34.959  79.347  29.007  0.00  0.00    +0.249 C 
ATOM     16  N   LIG    1      -34.460  78.874  27.802  0.00  0.00    -0.308 N 
ATOM     17  H   LIG    1      -34.932  78.081  27.380  0.00  0.00    +0.149 HD
ATOM     18  O   LIG    1      -34.426  80.230  29.655  0.00  0.00    -0.270 OA
BRANCH  16  19
ATOM     19  C   LIG    1      -33.284  79.408  27.183  0.00  0.00    +0.073 C 
ATOM     20  C   LIG    1      -32.461  78.593  26.217  0.00  0.00    +0.024 C 
ATOM     21  C   LIG    1      -31.926  78.896  27.584  0.00  0.00    +0.024 C 
ENDBRANCH  16  19
ENDBRANCH   9  15
ENDBRANCH   2   6
BRANCH   1  24
ATOM     22  C   LIG    1      -38.354  73.429  24.978  0.00  0.00    +0.124 A 
ATOM     23  C   LIG    1      -38.097  74.806  24.975  0.00  0.00    +0.051 A 
ATOM     24  C   LIG    1      -39.024  75.722  24.460  0.00  0.00    -0.021 A 
ATOM     25  C   LIG    1      -40.231  75.228  23.953  0.00  0.00    +0.044 A 
ATOM     26  C   LIG    1      -40.468  73.856  23.919  0.00  0.00    +0.127 A 
ATOM     27  F   LIG    1      -41.627  73.414  23.413  0.00  0.00    -0.205 F 
ATOM     28  C   LIG    1      -39.533  72.949  24.407  0.00  0.00    +0.084 A 
BRANCH  22  29
ATOM     29  O   LIG    1      -37.480  72.505  25.501  0.00  0.00    -0.489 OA
BRANCH  29  30
ATOM     30  C   LIG    1      -37.896  71.974  26.771  0.00  0.00    +0.263 C 
BRANCH  30  34
ATOM     31  C   LIG    1      -35.870  74.601  30.029  0.00  0.00    +0.074 C 
ATOM     32  C   LIG    1      -35.758  74.243  28.554  0.00  0.00    +0.165 C 
ATOM     33  O   LIG    1      -37.051  73.886  28.045  0.00  0.00    -0.340 OA
ATOM     34  C   LIG    1      -37.004  72.465  27.899  0.00  0.00    +0.184 C 
ATOM     35  C   LIG    1      -35.546  72.201  27.597  0.00  0.00    +0.198 C 
ATOM     36  O   LIG    1      -34.858  73.132  28.429  0.00  0.00    -0.346 OA
ATOM     37  C   LIG    1      -35.238  75.412  27.730  0.00  0.00    +0.074 C 
ENDBRANCH  30  34
ENDBRANCH  29  30
ENDBRANCH  22  29
ENDBRANCH   1  24
TORSDOF 7
ENDMDL
MODEL 3
REMARK VINA RESULT:      -5.6      2.912      5.442
REMARK  Name = pdb/CHEMBL3676072.pdb
REMARK                            x       y       z     vdW  Elec       q    Type
REMARK                         _______ _______ _______ _____ _____    ______ ____
ROOT
ATOM      1  C   LIG    1      -22.563  79.777  34.729  0.00  0.00    +0.105 C 
ATOM      2  N   LIG    1      -21.289  79.231  34.243  0.00  0.00    -0.308 N 
ATOM      3  C   LIG    1      -20.173  79.772  35.026  0.00  0.00    +0.107 C 
ATOM      4  C   LIG    1      -20.775  80.919  35.823  0.00  0.00    +0.021 C 
ATOM      5  C   LIG    1      -22.196  80.450  36.062  0.00  0.00    +0.029 C 
ENDROOT
BRANCH   2   6
ATOM      6  C   LIG    1      -21.054  78.432  33.133  0.00  0.00    +0.126 A 
ATOM      7  N   LIG    1      -22.110  77.949  32.502  0.00  0.00    -0.212 NA
ATOM      8  C   LIG    1      -21.920  77.328  31.296  0.00  0.00    +0.170 A 
ATOM      9  C   LIG    1      -22.794  76.702  30.426  0.00  0.00    +0.100 A 
ATOM     10  C   LIG    1      -22.012  76.477  29.271  0.00  0.00    +0.150 A 
ATOM     11  N   LIG    1      -20.723  76.784  29.437  0.00  0.00    -0.173 NA
ATOM     12  N   LIG    1      -20.659  77.253  30.705  0.00  0.00    -0.221 N 
ATOM     13  C   LIG    1      -19.531  77.621  31.418  0.00  0.00    +0.118 A 
ATOM     14  C   LIG    1      -19.654  78.150  32.642  0.00  0.00    +0.063 A 
BRANCH   9  15
ATOM     15  C   LIG    1      -24.204  76.377  30.596  0.00  0.00    +0.249 C 
ATOM     16  N   LIG    1      -24.447  75.224  31.328  0.00  0.00    -0.308 N 
ATOM     17  H   LIG    1      -23.642  74.687  31.634  0.00  0.00    +0.149 HD
ATOM     18  O   LIG    1      -25.084  77.054  30.097  0.00  0.00    -0.270 OA
BRANCH  16  19
ATOM     19  C   LIG    1      -25.766  74.738  31.599  0.00  0.00    +0.073 C 
ATOM     20  C   LIG    1      -26.114  74.094  32.918  0.00  0.00    +0.024 C 
ATOM     21  C   LIG    1      -26.016  73.255  31.680  0.00  0.00    +0.024 C 
ENDBRANCH  16  19
ENDBRANCH   9  15
ENDBRANCH   2   6
BRANCH   1  24
ATOM     22  C   LIG    1      -25.774  77.714  34.280  0.00  0.00    +0.124 A 
ATOM     23  C   LIG    1      -24.761  78.660  34.072  0.00  0.00    +0.051 A 
ATOM     24  C   LIG    1      -23.681  78.783  34.955  0.00  0.00    -0.021 A 
ATOM     25  C   LIG    1      -23.627  77.922  36.058  0.00  0.00    +0.044 A 
ATOM     26  C   LIG    1      -24.654  77.010  36.287  0.00  0.00    +0.127 A 
ATOM     27  F   LIG    1      -24.580  76.211  37.359  0.00  0.00    -0.205 F 
ATOM     28  C   LIG    1      -25.738  76.911  35.420  0.00  0.00    +0.084 A 
BRANCH  22  29
ATOM     29  O   LIG    1      -26.832  77.547  33.419  0.00  0.00    -0.489 OA
BRANCH  29  30
ATOM     30  C   LIG    1      -28.068  77.227  34.080  0.00  0.00    +0.263 C 
BRANCH  30  34
ATOM     31  C   LIG    1      -31.789  75.590  31.823  0.00  0.00    +0.074 C 
ATOM     32  C   LIG    1      -30.275  75.446  31.876  0.00  0.00    +0.165 C 
ATOM     33  O   LIG    1      -29.808  75.748  33.199  0.00  0.00    -0.340 OA
ATOM     34  C   LIG    1      -29.200  77.036  33.084  0.00  0.00    +0.184 C 
ATOM     35  C   LIG    1      -28.684  77.044  31.662  0.00  0.00    +0.198 C 
ATOM     36  O   LIG    1      -29.702  76.365  30.933  0.00  0.00    -0.346 OA
ATOM     37  C   LIG    1      -29.833  74.030  31.537  0.00  0.00    +0.074 C 
ENDBRANCH  30  34
ENDBRANCH  29  30
ENDBRANCH  22  29
ENDBRANCH   1  24
TORSDOF 7
ENDMDL
MODEL 4
REMARK VINA RESULT:      -5.5     13.866     17.853
REMARK  Name = pdb/CHEMBL3676072.pdb
REMARK                            x       y       z     vdW  Elec       q    Type
REMARK                         _______ _______ _______ _____ _____    ______ ____
ROOT
ATOM      1  C   LIG    1      -40.018  72.781  26.572  0.00  0.00    +0.105 C 
ATOM      2  N   LIG    1      -39.939  71.518  25.825  0.00  0.00    -0.308 N 
ATOM      3  C   LIG    1      -41.202  70.780  25.942  0.00  0.00    +0.107 C 
ATOM      4  C   LIG    1      -41.968  71.488  27.048  0.00  0.00    +0.021 C 
ATOM      5  C   LIG    1      -41.513  72.926  26.902  0.00  0.00    +0.029 C 
ENDROOT
BRANCH   2   6
ATOM      6  C   LIG    1      -38.842  70.951  25.193  0.00  0.00    +0.126 A 
ATOM      7  N   LIG    1      -37.731  70.838  25.899  0.00  0.00    -0.212 NA
ATOM      8  C   LIG    1      -36.698  70.108  25.374  0.00  0.00    +0.170 A 
ATOM      9  C   LIG    1      -35.423  69.835  25.837  0.00  0.00    +0.100 A 
ATOM     10  C   LIG    1      -34.947  68.848  24.946  0.00  0.00    +0.150 A 
ATOM     11  N   LIG    1      -35.771  68.620  23.920  0.00  0.00    -0.173 NA
ATOM     12  N   LIG    1      -36.822  69.440  24.155  0.00  0.00    -0.221 N 
ATOM     13  C   LIG    1      -37.919  69.670  23.343  0.00  0.00    +0.118 A 
ATOM     14  C   LIG    1      -38.918  70.452  23.770  0.00  0.00    +0.063 A 
BRANCH   9  15
ATOM     15  C   LIG    1      -34.717  70.376  26.991  0.00  0.00    +0.249 C 
ATOM     16  N   LIG    1      -34.833  71.749  27.148  0.00  0.00    -0.308 N 
ATOM     17  H   LIG    1      -35.347  72.259  26.436  0.00  0.00    +0.149 HD
ATOM     18  O   LIG    1      -34.051  69.670  27.725  0.00  0.00    -0.270 OA
BRANCH  16  19
ATOM     19  C   LIG    1      -34.208  72.466  28.219  0.00  0.00    +0.073 C 
ATOM     20  C   LIG    1      -34.913  73.592  28.932  0.00  0.00    +0.024 C 
ATOM     21  C   LIG    1      -33.770  73.892  28.011  0.00  0.00    +0.024 C 
ENDBRANCH  16  19
ENDBRANCH   9  15
ENDBRANCH   2   6
BRANCH   1  24
ATOM     22  C   LIG    1      -37.882  75.784  25.484  0.00  0.00    +0.124 A 
ATOM     23  C   LIG    1      -38.329  74.652  26.179  0.00  0.00    +0.051 A 
ATOM     24  C   LIG    1      -39.537  74.022  25.853  0.00  0.00    -0.021 A 
ATOM     25  C   LIG    1      -40.293  74.546  24.798  0.00  0.00    +0.044 A 
ATOM     26  C   LIG    1      -39.869  75.694  24.134  0.00  0.00    +0.127 A 
ATOM     27  F   LIG    1      -40.622  76.179  23.139  0.00  0.00    -0.205 F 
ATOM     28  C   LIG    1      -38.681  76.331  24.480  0.00  0.00    +0.084 A 
BRANCH  22  29
ATOM     29  O   LIG    1      -36.689  76.409  25.757  0.00  0.00    -0.489 OA
BRANCH  29  30
ATOM     30  C   LIG    1      -36.367  76.447  27.158  0.00  0.00    +0.263 C 
BRANCH  30  34
ATOM     31  C   LIG    1      -32.689  79.291  27.188  0.00  0.00    +0.074 C 
ATOM     32  C   LIG    1      -33.203  78.010  27.828  0.00  0.00    +0.165 C 
ATOM     33  O   LIG    1      -34.104  77.348  26.927  0.00  0.00    -0.340 OA
ATOM     34  C   LIG    1      -35.402  77.577  27.478  0.00  0.00    +0.184 C 
ATOM     35  C   LIG    1      -35.132  77.661  28.963  0.00  0.00    +0.198 C 
ATOM     36  O   LIG    1      -33.892  78.357  29.039  0.00  0.00    -0.346 OA
ATOM     37  C   LIG    1      -32.070  77.046  28.146  0.00  0.00    +0.074 C 
ENDBRANCH  30  34
ENDBRANCH  29  30
ENDBRANCH  22  29
ENDBRANCH   1  24
TORSDOF 7
ENDMDL
MODEL 5
REMARK VINA RESULT:      -5.4     14.685     17.880
REMARK  Name = pdb/CHEMBL3676072.pdb
REMARK                            x       y       z     vdW  Elec       q    Type
REMARK                         _______ _______ _______ _____ _____    ______ ____
ROOT
ATOM      1  C   LIG    1      -40.413  78.598  24.419  0.00  0.00    +0.105 C 
ATOM      2  N   LIG    1      -40.647  79.442  25.599  0.00  0.00    -0.308 N 
ATOM      3  C   LIG    1      -42.071  79.777  25.709  0.00  0.00    +0.107 C 
ATOM      4  C   LIG    1      -42.674  79.363  24.376  0.00  0.00    +0.021 C 
ATOM      5  C   LIG    1      -41.825  78.173  23.980  0.00  0.00    +0.029 C 
ENDROOT
BRANCH   2   6
ATOM      6  C   LIG    1      -39.717  80.008  26.459  0.00  0.00    +0.126 A 
ATOM      7  N   LIG    1      -39.044  81.055  26.016  0.00  0.00    -0.212 NA
ATOM      8  C   LIG    1      -38.269  81.754  26.902  0.00  0.00    +0.170 A 
ATOM      9  C   LIG    1      -37.438  82.848  26.749  0.00  0.00    +0.100 A 
ATOM     10  C   LIG    1      -37.118  83.216  28.075  0.00  0.00    +0.150 A 
ATOM     11  N   LIG    1      -37.571  82.351  28.986  0.00  0.00    -0.173 NA
ATOM     12  N   LIG    1      -38.229  81.421  28.257  0.00  0.00    -0.221 N 
ATOM     13  C   LIG    1      -38.809  80.246  28.703  0.00  0.00    +0.118 A 
ATOM     14  C   LIG    1      -39.502  79.475  27.856  0.00  0.00    +0.063 A 
BRANCH   9  15
ATOM     15  C   LIG    1      -37.006  83.525  25.533  0.00  0.00    +0.249 C 
ATOM     16  N   LIG    1      -38.035  83.880  24.672  0.00  0.00    -0.308 N 
ATOM     17  H   LIG    1      -38.976  83.601  24.930  0.00  0.00    +0.149 HD
ATOM     18  O   LIG    1      -35.829  83.721  25.289  0.00  0.00    -0.270 OA
BRANCH  16  19
ATOM     19  C   LIG    1      -37.812  84.548  23.426  0.00  0.00    +0.073 C 
ATOM     20  C   LIG    1      -38.566  85.801  23.056  0.00  0.00    +0.024 C 
ATOM     21  C   LIG    1      -38.871  84.512  22.356  0.00  0.00    +0.024 C 
ENDBRANCH  16  19
ENDBRANCH   9  15
ENDBRANCH   2   6
BRANCH   1  24
ATOM     22  C   LIG    1      -37.520  76.281  25.432  0.00  0.00    +0.124 A 
ATOM     23  C   LIG    1      -38.289  77.433  25.219  0.00  0.00    +0.051 A 
ATOM     24  C   LIG    1      -39.558  77.368  24.628  0.00  0.00    -0.021 A 
ATOM     25  C   LIG    1      -40.053  76.111  24.262  0.00  0.00    +0.044 A 
ATOM     26  C   LIG    1      -39.273  74.971  24.437  0.00  0.00    +0.127 A 
ATOM     27  F   LIG    1      -39.770  73.785  24.063  0.00  0.00    -0.205 F 
ATOM     28  C   LIG    1      -38.002  75.045  25.000  0.00  0.00    +0.084 A 
BRANCH  22  29
ATOM     29  O   LIG    1      -36.285  76.305  26.035  0.00  0.00    -0.489 OA
BRANCH  29  30
ATOM     30  C   LIG    1      -36.342  76.225  27.469  0.00  0.00    +0.263 C 
BRANCH  30  34
ATOM     31  C   LIG    1      -34.525  80.443  28.190  0.00  0.00    +0.074 C 
ATOM     32  C   LIG    1      -34.126  78.977  28.108  0.00  0.00    +0.165 C 
ATOM     33  O   LIG    1      -35.030  78.278  27.241  0.00  0.00    -0.340 OA
ATOM     34  C   LIG    1      -35.853  77.508  28.120  0.00  0.00    +0.184 C 
ATOM     35  C   LIG    1      -34.932  77.215  29.282  0.00  0.00    +0.198 C 
ATOM     36  O   LIG    1      -34.187  78.421  29.430  0.00  0.00    -0.346 OA
ATOM     37  C   LIG    1      -32.720  78.807  27.551  0.00  0.00    +0.074 C 
ENDBRANCH  30  34
ENDBRANCH  29  30
ENDBRANCH  22  29
ENDBRANCH   1  24
TORSDOF 7
ENDMDL
MODEL 6
REMARK VINA RESULT:      -5.3      2.774      4.826
REMARK  Name = pdb/CHEMBL3676072.pdb
REMARK                            x       y       z     vdW  Elec       q    Type
REMARK                         _______ _______ _______ _____ _____    ______ ____
ROOT
ATOM      1  C   LIG    1      -22.714  80.052  34.633  0.00  0.00    +0.105 C 
ATOM      2  N   LIG    1      -21.271  79.965  34.898  0.00  0.00    -0.308 N 
ATOM      3  C   LIG    1      -20.869  80.993  35.864  0.00  0.00    +0.107 C 
ATOM      4  C   LIG    1      -22.065  81.928  35.960  0.00  0.00    +0.021 C 
ATOM      5  C   LIG    1      -23.237  80.996  35.729  0.00  0.00    +0.029 C 
ENDROOT
BRANCH   2   6
ATOM      6  C   LIG    1      -20.322  79.165  34.277  0.00  0.00    +0.126 A 
ATOM      7  N   LIG    1      -20.598  78.736  33.059  0.00  0.00    -0.212 NA
ATOM      8  C   LIG    1      -19.606  78.116  32.346  0.00  0.00    +0.170 A 
ATOM      9  C   LIG    1      -19.586  77.538  31.090  0.00  0.00    +0.100 A 
ATOM     10  C   LIG    1      -18.215  77.287  30.859  0.00  0.00    +0.150 A 
ATOM     11  N   LIG    1      -17.445  77.534  31.922  0.00  0.00    -0.173 NA
ATOM     12  N   LIG    1      -18.312  77.989  32.855  0.00  0.00    -0.221 N 
ATOM     13  C   LIG    1      -18.051  78.300  34.178  0.00  0.00    +0.118 A 
ATOM     14  C   LIG    1      -19.012  78.824  34.948  0.00  0.00    +0.063 A 
BRANCH   9  15
ATOM     15  C   LIG    1      -20.684  77.276  30.170  0.00  0.00    +0.249 C 
ATOM     16  N   LIG    1      -21.948  77.483  30.702  0.00  0.00    -0.308 N 
ATOM     17  H   LIG    1      -22.004  77.747  31.681  0.00  0.00    +0.149 HD
ATOM     18  O   LIG    1      -20.490  76.869  29.038  0.00  0.00    -0.270 OA
BRANCH  16  19
ATOM     19  C   LIG    1      -23.152  77.275  29.956  0.00  0.00    +0.073 C 
ATOM     20  C   LIG    1      -24.438  77.971  30.323  0.00  0.00    +0.024 C 
ATOM     21  C   LIG    1      -24.289  76.500  30.567  0.00  0.00    +0.024 C 
ENDBRANCH  16  19
ENDBRANCH   9  15
ENDBRANCH   2   6
BRANCH   1  24
ATOM     22  C   LIG    1      -23.775  76.448  35.438  0.00  0.00    +0.124 A 
ATOM     23  C   LIG    1      -23.032  77.636  35.386  0.00  0.00    +0.051 A 
ATOM     24  C   LIG    1      -23.487  78.753  34.673  0.00  0.00    -0.021 A 
ATOM     25  C   LIG    1      -24.719  78.661  34.015  0.00  0.00    +0.044 A 
ATOM     26  C   LIG    1      -25.437  77.469  34.034  0.00  0.00    +0.127 A 
ATOM     27  F   LIG    1      -26.606  77.409  33.383  0.00  0.00    -0.205 F 
ATOM     28  C   LIG    1      -24.968  76.353  34.722  0.00  0.00    +0.084 A 
BRANCH  22  29
ATOM     29  O   LIG    1      -23.373  75.344  36.151  0.00  0.00    -0.489 OA
BRANCH  29  30
ATOM     30  C   LIG    1      -22.062  75.477  36.727  0.00  0.00    +0.263 C 
BRANCH  30  34
ATOM     31  C   LIG    1      -18.852  74.256  33.594  0.00  0.00    +0.074 C 
ATOM     32  C   LIG    1      -20.358  74.258  33.810  0.00  0.00    +0.165 C 
ATOM     33  O   LIG    1      -20.718  75.335  34.687  0.00  0.00    -0.340 OA
ATOM     34  C   LIG    1      -21.023  74.704  35.932  0.00  0.00    +0.184 C 
ATOM     35  C   LIG    1      -21.553  73.352  35.509  0.00  0.00    +0.198 C 
ATOM     36  O   LIG    1      -20.729  73.002  34.400  0.00  0.00    -0.346 OA
ATOM     37  C   LIG    1      -21.114  74.447  32.503  0.00  0.00    +0.074 C 
ENDBRANCH  30  34
ENDBRANCH  29  30
ENDBRANCH  22  29
ENDBRANCH   1  24
TORSDOF 7
ENDMDL
MODEL 7
REMARK VINA RESULT:      -5.3     18.733     21.178
REMARK  Name = pdb/CHEMBL3676072.pdb
REMARK                            x       y       z     vdW  Elec       q    Type
REMARK                         _______ _______ _______ _____ _____    ______ ____
ROOT
ATOM      1  C   LIG    1      -19.564  82.017  13.910  0.00  0.00    +0.105 C 
ATOM      2  N   LIG    1      -19.517  83.092  12.911  0.00  0.00    -0.308 N 
ATOM      3  C   LIG    1      -18.798  82.642  11.713  0.00  0.00    +0.107 C 
ATOM      4  C   LIG    1      -18.128  81.341  12.127  0.00  0.00    +0.021 C 
ATOM      5  C   LIG    1      -19.101  80.770  13.138  0.00  0.00    +0.029 C 
ENDROOT
BRANCH   2   6
ATOM      6  C   LIG    1      -19.932  84.411  13.034  0.00  0.00    +0.126 A 
ATOM      7  N   LIG    1      -21.193  84.676  12.745  0.00  0.00    -0.212 NA
ATOM      8  C   LIG    1      -21.683  85.919  13.046  0.00  0.00    +0.170 A 
ATOM      9  C   LIG    1      -22.919  86.506  12.843  0.00  0.00    +0.100 A 
ATOM     10  C   LIG    1      -22.844  87.708  13.581  0.00  0.00    +0.150 A 
ATOM     11  N   LIG    1      -21.629  87.948  14.080  0.00  0.00    -0.173 NA
ATOM     12  N   LIG    1      -20.901  86.873  13.699  0.00  0.00    -0.221 N 
ATOM     13  C   LIG    1      -19.544  86.661  13.873  0.00  0.00    +0.118 A 
ATOM     14  C   LIG    1      -18.995  85.495  13.511  0.00  0.00    +0.063 A 
BRANCH   9  15
ATOM     15  C   LIG    1      -24.070  86.015  12.097  0.00  0.00    +0.249 C 
ATOM     16  N   LIG    1      -24.313  84.656  12.236  0.00  0.00    -0.308 N 
ATOM     17  H   LIG    1      -23.656  84.119  12.793  0.00  0.00    +0.149 HD
ATOM     18  O   LIG    1      -24.731  86.746  11.382  0.00  0.00    -0.270 OA
BRANCH  16  19
ATOM     19  C   LIG    1      -25.395  83.987  11.578  0.00  0.00    +0.073 C 
ATOM     20  C   LIG    1      -25.596  82.498  11.705  0.00  0.00    +0.024 C 
ATOM     21  C   LIG    1      -25.116  83.079  10.410  0.00  0.00    +0.024 C 
ENDBRANCH  16  19
ENDBRANCH   9  15
ENDBRANCH   2   6
BRANCH   1  24
ATOM     22  C   LIG    1      -23.161  80.795  14.487  0.00  0.00    +0.124 A 
ATOM     23  C   LIG    1      -21.930  81.063  13.872  0.00  0.00    +0.051 A 
ATOM     24  C   LIG    1      -20.909  81.746  14.547  0.00  0.00    -0.021 A 
ATOM     25  C   LIG    1      -21.142  82.148  15.867  0.00  0.00    +0.044 A 
ATOM     26  C   LIG    1      -22.379  81.916  16.463  0.00  0.00    +0.127 A 
ATOM     27  F   LIG    1      -22.575  82.326  17.723  0.00  0.00    -0.205 F 
ATOM     28  C   LIG    1      -23.399  81.261  15.779  0.00  0.00    +0.084 A 
BRANCH  22  29
ATOM     29  O   LIG    1      -24.173  80.103  13.865  0.00  0.00    -0.489 OA
BRANCH  29  30
ATOM     30  C   LIG    1      -25.251  79.744  14.746  0.00  0.00    +0.263 C 
BRANCH  30  34
ATOM     31  C   LIG    1      -27.945  76.090  13.744  0.00  0.00    +0.074 C 
ATOM     32  C   LIG    1      -26.533  76.616  13.533  0.00  0.00    +0.165 C 
ATOM     33  O   LIG    1      -26.173  77.481  14.620  0.00  0.00    -0.340 OA
ATOM     34  C   LIG    1      -26.231  78.799  14.071  0.00  0.00    +0.184 C 
ATOM     35  C   LIG    1      -25.869  78.580  12.620  0.00  0.00    +0.198 C 
ATOM     36  O   LIG    1      -26.506  77.348  12.297  0.00  0.00    -0.346 OA
ATOM     37  C   LIG    1      -25.514  75.488  13.476  0.00  0.00    +0.074 C 
ENDBRANCH  30  34
ENDBRANCH  29  30
ENDBRANCH  22  29
ENDBRANCH   1  24
TORSDOF 7
ENDMDL
MODEL 8
REMARK VINA RESULT:      -5.3      2.490      5.865
REMARK  Name = pdb/CHEMBL3676072.pdb
REMARK                            x       y       z     vdW  Elec       q    Type
REMARK                         _______ _______ _______ _____ _____    ______ ____
ROOT
ATOM      1  C   LIG    1      -21.300  75.847  33.397  0.00  0.00    +0.105 C 
ATOM      2  N   LIG    1      -20.644  76.936  34.134  0.00  0.00    -0.308 N 
ATOM      3  C   LIG    1      -19.376  76.469  34.706  0.00  0.00    +0.107 C 
ATOM      4  C   LIG    1      -19.412  74.957  34.556  0.00  0.00    +0.021 C 
ATOM      5  C   LIG    1      -20.212  74.766  33.284  0.00  0.00    +0.029 C 
ENDROOT
BRANCH   2   6
ATOM      6  C   LIG    1      -21.130  78.202  34.426  0.00  0.00    +0.126 A 
ATOM      7  N   LIG    1      -22.408  78.299  34.748  0.00  0.00    -0.212 NA
ATOM      8  C   LIG    1      -22.869  79.495  35.231  0.00  0.00    +0.170 A 
ATOM      9  C   LIG    1      -24.127  79.919  35.616  0.00  0.00    +0.100 A 
ATOM     10  C   LIG    1      -23.887  81.169  36.228  0.00  0.00    +0.150 A 
ATOM     11  N   LIG    1      -22.622  81.581  36.110  0.00  0.00    -0.173 NA
ATOM     12  N   LIG    1      -22.010  80.575  35.444  0.00  0.00    -0.221 N 
ATOM     13  C   LIG    1      -20.709  80.534  34.976  0.00  0.00    +0.118 A 
ATOM     14  C   LIG    1      -20.233  79.418  34.410  0.00  0.00    +0.063 A 
BRANCH   9  15
ATOM     15  C   LIG    1      -25.414  79.249  35.486  0.00  0.00    +0.249 C 
ATOM     16  N   LIG    1      -26.244  79.371  36.591  0.00  0.00    -0.308 N 
ATOM     17  H   LIG    1      -25.876  79.863  37.400  0.00  0.00    +0.149 HD
ATOM     18  O   LIG    1      -25.706  78.604  34.496  0.00  0.00    -0.270 OA
BRANCH  16  19
ATOM     19  C   LIG    1      -27.546  78.780  36.657  0.00  0.00    +0.073 C 
ATOM     20  C   LIG    1      -28.369  78.821  37.920  0.00  0.00    +0.024 C 
ATOM     21  C   LIG    1      -27.762  77.528  37.467  0.00  0.00    +0.024 C 
ENDBRANCH  16  19
ENDBRANCH   9  15
ENDBRANCH   2   6
BRANCH   1  24
ATOM     22  C   LIG    1      -23.654  76.695  30.481  0.00  0.00    +0.124 A 
ATOM     23  C   LIG    1      -23.189  76.354  31.758  0.00  0.00    +0.051 A 
ATOM     24  C   LIG    1      -21.822  76.185  32.018  0.00  0.00    -0.021 A 
ATOM     25  C   LIG    1      -20.920  76.378  30.966  0.00  0.00    +0.044 A 
ATOM     26  C   LIG    1      -21.386  76.678  29.688  0.00  0.00    +0.127 A 
ATOM     27  F   LIG    1      -20.498  76.842  28.700  0.00  0.00    -0.205 F 
ATOM     28  C   LIG    1      -22.746  76.818  29.430  0.00  0.00    +0.084 A 
BRANCH  22  29
ATOM     29  O   LIG    1      -24.984  76.897  30.198  0.00  0.00    -0.489 OA
BRANCH  29  30
ATOM     30  C   LIG    1      -25.745  77.380  31.319  0.00  0.00    +0.263 C 
BRANCH  30  34
ATOM     31  C   LIG    1      -30.206  76.116  31.665  0.00  0.00    +0.074 C 
ATOM     32  C   LIG    1      -29.060  76.666  32.501  0.00  0.00    +0.165 C 
ATOM     33  O   LIG    1      -28.167  77.415  31.664  0.00  0.00    -0.340 OA
ATOM     34  C   LIG    1      -27.020  76.577  31.514  0.00  0.00    +0.184 C 
ATOM     35  C   LIG    1      -26.988  75.807  32.816  0.00  0.00    +0.198 C 
ATOM     36  O   LIG    1      -28.363  75.558  33.092  0.00  0.00    -0.346 OA
ATOM     37  C   LIG    1      -29.560  77.594  33.599  0.00  0.00    +0.074 C 
ENDBRANCH  30  34
ENDBRANCH  29  30
ENDBRANCH  22  29
ENDBRANCH   1  24
TORSDOF 7
ENDMDL
MODEL 9
REMARK VINA RESULT:      -5.3     13.525     16.726
REMARK  Name = pdb/CHEMBL3676072.pdb
REMARK                            x       y       z     vdW  Elec       q    Type
REMARK                         _______ _______ _______ _____ _____    ______ ____
ROOT
ATOM      1  C   LIG    1      -38.787  76.881  24.580  0.00  0.00    +0.105 C 
ATOM      2  N   LIG    1      -39.203  77.555  25.818  0.00  0.00    -0.308 N 
ATOM      3  C   LIG    1      -40.002  78.746  25.504  0.00  0.00    +0.107 C 
ATOM      4  C   LIG    1      -39.809  78.962  24.011  0.00  0.00    +0.021 C 
ATOM      5  C   LIG    1      -39.638  77.551  23.488  0.00  0.00    +0.029 C 
ENDROOT
BRANCH   2   6
ATOM      6  C   LIG    1      -38.834  77.274  27.125  0.00  0.00    +0.126 A 
ATOM      7  N   LIG    1      -37.541  77.263  27.398  0.00  0.00    -0.212 NA
ATOM      8  C   LIG    1      -37.153  77.188  28.709  0.00  0.00    +0.170 A 
ATOM      9  C   LIG    1      -35.908  77.124  29.308  0.00  0.00    +0.100 A 
ATOM     10  C   LIG    1      -36.188  77.295  30.682  0.00  0.00    +0.150 A 
ATOM     11  N   LIG    1      -37.494  77.311  30.958  0.00  0.00    -0.173 NA
ATOM     12  N   LIG    1      -38.086  77.186  29.747  0.00  0.00    -0.221 N 
ATOM     13  C   LIG    1      -39.435  77.049  29.471  0.00  0.00    +0.118 A 
ATOM     14  C   LIG    1      -39.862  77.024  28.203  0.00  0.00    +0.063 A 
BRANCH   9  15
ATOM     15  C   LIG    1      -34.592  76.968  28.703  0.00  0.00    +0.249 C 
ATOM     16  N   LIG    1      -33.907  78.156  28.492  0.00  0.00    -0.308 N 
ATOM     17  H   LIG    1      -34.388  79.019  28.725  0.00  0.00    +0.149 HD
ATOM     18  O   LIG    1      -34.159  75.877  28.378  0.00  0.00    -0.270 OA
BRANCH  16  19
ATOM     19  C   LIG    1      -32.603  78.210  27.905  0.00  0.00    +0.073 C 
ATOM     20  C   LIG    1      -32.307  79.095  26.720  0.00  0.00    +0.024 C 
ATOM     21  C   LIG    1      -32.367  77.608  26.545  0.00  0.00    +0.024 C 
ENDBRANCH  16  19
ENDBRANCH   9  15
ENDBRANCH   2   6
BRANCH   1  24
ATOM     22  C   LIG    1      -38.264  73.101  25.030  0.00  0.00    +0.124 A 
ATOM     23  C   LIG    1      -38.051  74.486  25.060  0.00  0.00    +0.051 A 
ATOM     24  C   LIG    1      -38.988  75.382  24.528  0.00  0.00    -0.021 A 
ATOM     25  C   LIG    1      -40.161  74.861  23.971  0.00  0.00    +0.044 A 
ATOM     26  C   LIG    1      -40.354  73.484  23.906  0.00  0.00    +0.127 A 
ATOM     27  F   LIG    1      -41.480  73.015  23.354  0.00  0.00    -0.205 F 
ATOM     28  C   LIG    1      -39.408  72.596  24.411  0.00  0.00    +0.084 A 
BRANCH  22  29
ATOM     29  O   LIG    1      -37.381  72.195  25.568  0.00  0.00    -0.489 OA
BRANCH  29  30
ATOM     30  C   LIG    1      -36.939  72.538  26.892  0.00  0.00    +0.263 C 
BRANCH  30  34
ATOM     31  C   LIG    1      -33.439  69.648  27.898  0.00  0.00    +0.074 C 
ATOM     32  C   LIG    1      -34.623  69.794  26.954  0.00  0.00    +0.165 C 
ATOM     33  O   LIG    1      -34.905  71.186  26.745  0.00  0.00    -0.340 OA
ATOM     34  C   LIG    1      -36.092  71.433  27.501  0.00  0.00    +0.184 C 
ATOM     35  C   LIG    1      -36.811  70.104  27.452  0.00  0.00    +0.198 C 
ATOM     36  O   LIG    1      -35.758  69.150  27.553  0.00  0.00    -0.346 OA
ATOM     37  C   LIG    1      -34.341  69.166  25.597  0.00  0.00    +0.074 C 
ENDBRANCH  30  34
ENDBRANCH  29  30
ENDBRANCH  22  29
ENDBRANCH   1  24
TORSDOF 7
ENDMDL
