MODEL 1
REMARK VINA RESULT:      -6.6      0.000      0.000
REMARK  Name = pdb/CHEMBL3909097.pdb
REMARK                            x       y       z     vdW  Elec       q    Type
REMARK                         _______ _______ _______ _____ _____    ______ ____
ROOT
ATOM      1  C   LIG    1      -38.672  72.596  24.858  0.00  0.00    +0.126 A 
ATOM      2  N   LIG    1      -37.871  73.578  25.217  0.00  0.00    -0.211 NA
ATOM      3  C   LIG    1      -38.267  74.869  24.950  0.00  0.00    +0.179 A 
ATOM      4  C   LIG    1      -37.658  76.094  25.144  0.00  0.00    +0.098 A 
ATOM      5  C   LIG    1      -38.570  77.038  24.629  0.00  0.00    +0.160 A 
ATOM      6  N   LIG    1      -39.677  76.479  24.142  0.00  0.00    -0.171 NA
ATOM      7  N   LIG    1      -39.482  75.153  24.324  0.00  0.00    -0.220 N 
ATOM      8  C   LIG    1      -40.337  74.133  23.956  0.00  0.00    +0.118 A 
ATOM      9  C   LIG    1      -40.005  72.861  24.191  0.00  0.00    +0.063 A 
ENDROOT
BRANCH   1  11
ATOM     10  C   LIG    1      -37.610  70.452  24.054  0.00  0.00    +0.108 C 
ATOM     11  N   LIG    1      -38.285  71.278  25.068  0.00  0.00    -0.308 N 
ATOM     12  C   LIG    1      -38.334  70.592  26.358  0.00  0.00    +0.107 C 
ATOM     13  C   LIG    1      -37.714  69.224  26.117  0.00  0.00    +0.021 C 
ATOM     14  C   LIG    1      -36.809  69.460  24.922  0.00  0.00    +0.029 C 
BRANCH  10  18
ATOM     15  F   LIG    1      -42.142  69.053  22.694  0.00  0.00    -0.205 F 
ATOM     16  C   LIG    1      -40.828  69.098  22.436  0.00  0.00    +0.124 A 
ATOM     17  C   LIG    1      -39.973  69.700  23.356  0.00  0.00    +0.046 A 
ATOM     18  C   LIG    1      -38.590  69.766  23.113  0.00  0.00    +0.011 A 
ATOM     19  C   LIG    1      -38.121  69.210  21.913  0.00  0.00    +0.129 A 
ATOM     20  F   LIG    1      -36.814  69.261  21.618  0.00  0.00    -0.205 F 
ATOM     21  C   LIG    1      -38.978  68.599  20.995  0.00  0.00    +0.041 A 
ATOM     22  C   LIG    1      -40.344  68.546  21.258  0.00  0.00    +0.041 A 
ENDBRANCH  10  18
ENDBRANCH   1  11
BRANCH   4  23
ATOM     23  N   LIG    1      -36.415  76.276  25.723  0.00  0.00    -0.275 N 
ATOM     24  H   LIG    1      -35.627  76.424  25.099  0.00  0.00    +0.155 HD
ATOM     25  C   LIG    1      -36.204  76.312  27.096  0.00  0.00    +0.286 C 
ATOM     26  O   LIG    1      -37.082  76.218  27.947  0.00  0.00    -0.266 OA
BRANCH  25  27
ATOM     27  C   LIG    1      -34.762  76.488  27.492  0.00  0.00    +0.216 A 
ATOM     28  N   LIG    1      -34.283  75.674  28.462  0.00  0.00    -0.232 NA
ATOM     29  C   LIG    1      -32.989  75.862  28.783  0.00  0.00    +0.115 A 
ATOM     30  C   LIG    1      -32.191  76.829  28.216  0.00  0.00    +0.039 A 
ATOM     31  C   LIG    1      -32.793  77.615  27.260  0.00  0.00    +0.115 A 
ATOM     32  N   LIG    1      -34.066  77.465  26.869  0.00  0.00    -0.232 NA
ENDBRANCH  25  27
ENDBRANCH   4  23
TORSDOF 4
ENDMDL
MODEL 2
REMARK VINA RESULT:      -6.5     18.189     20.268
REMARK  Name = pdb/CHEMBL3909097.pdb
REMARK                            x       y       z     vdW  Elec       q    Type
REMARK                         _______ _______ _______ _____ _____    ______ ____
ROOT
ATOM      1  C   LIG    1      -33.453  92.431  20.138  0.00  0.00    +0.126 A 
ATOM      2  N   LIG    1      -33.281  92.746  21.405  0.00  0.00    -0.211 NA
ATOM      3  C   LIG    1      -32.188  93.512  21.742  0.00  0.00    +0.179 A 
ATOM      4  C   LIG    1      -31.698  93.966  22.951  0.00  0.00    +0.098 A 
ATOM      5  C   LIG    1      -30.526  94.677  22.625  0.00  0.00    +0.160 A 
ATOM      6  N   LIG    1      -30.271  94.688  21.317  0.00  0.00    -0.171 NA
ATOM      7  N   LIG    1      -31.279  93.961  20.782  0.00  0.00    -0.220 N 
ATOM      8  C   LIG    1      -31.457  93.651  19.448  0.00  0.00    +0.118 A 
ATOM      9  C   LIG    1      -32.500  92.911  19.064  0.00  0.00    +0.063 A 
ENDROOT
BRANCH   1  11
ATOM     10  C   LIG    1      -34.358  90.294  19.148  0.00  0.00    +0.108 C 
ATOM     11  N   LIG    1      -34.518  91.619  19.766  0.00  0.00    -0.308 N 
ATOM     12  C   LIG    1      -35.918  91.884  20.091  0.00  0.00    +0.107 C 
ATOM     13  C   LIG    1      -36.691  90.678  19.579  0.00  0.00    +0.021 C 
ATOM     14  C   LIG    1      -35.650  89.573  19.583  0.00  0.00    +0.029 C 
BRANCH  10  18
ATOM     15  F   LIG    1      -34.803  92.577  14.796  0.00  0.00    -0.205 F 
ATOM     16  C   LIG    1      -34.399  91.509  15.497  0.00  0.00    +0.124 A 
ATOM     17  C   LIG    1      -34.613  91.475  16.873  0.00  0.00    +0.046 A 
ATOM     18  C   LIG    1      -34.197  90.370  17.636  0.00  0.00    +0.011 A 
ATOM     19  C   LIG    1      -33.559  89.322  16.955  0.00  0.00    +0.129 A 
ATOM     20  F   LIG    1      -33.123  88.251  17.635  0.00  0.00    -0.205 F 
ATOM     21  C   LIG    1      -33.352  89.353  15.575  0.00  0.00    +0.041 A 
ATOM     22  C   LIG    1      -33.773  90.458  14.840  0.00  0.00    +0.041 A 
ENDBRANCH  10  18
ENDBRANCH   1  11
BRANCH   4  23
ATOM     23  N   LIG    1      -32.287  93.728  24.181  0.00  0.00    -0.275 N 
ATOM     24  H   LIG    1      -32.974  94.401  24.507  0.00  0.00    +0.155 HD
ATOM     25  C   LIG    1      -32.019  92.608  24.958  0.00  0.00    +0.286 C 
ATOM     26  O   LIG    1      -31.264  91.694  24.641  0.00  0.00    -0.266 OA
BRANCH  25  27
ATOM     27  C   LIG    1      -32.751  92.581  26.273  0.00  0.00    +0.216 A 
ATOM     28  N   LIG    1      -32.733  91.421  26.969  0.00  0.00    -0.232 NA
ATOM     29  C   LIG    1      -33.397  91.442  28.140  0.00  0.00    +0.115 A 
ATOM     30  C   LIG    1      -34.090  92.534  28.608  0.00  0.00    +0.039 A 
ATOM     31  C   LIG    1      -34.062  93.650  27.804  0.00  0.00    +0.115 A 
ATOM     32  N   LIG    1      -33.397  93.711  26.642  0.00  0.00    -0.232 NA
ENDBRANCH  25  27
ENDBRANCH   4  23
TORSDOF 4
ENDMDL
MODEL 3
REMARK VINA RESULT:      -6.3     13.711     19.922
REMARK  Name = pdb/CHEMBL3909097.pdb
REMARK                            x       y       z     vdW  Elec       q    Type
REMARK                         _______ _______ _______ _____ _____    ______ ____
ROOT
ATOM      1  C   LIG    1      -20.983  78.429  33.219  0.00  0.00    +0.126 A 
ATOM      2  N   LIG    1      -22.051  77.791  32.786  0.00  0.00    -0.211 NA
ATOM      3  C   LIG    1      -22.015  77.247  31.522  0.00  0.00    +0.179 A 
ATOM      4  C   LIG    1      -22.955  76.576  30.764  0.00  0.00    +0.098 A 
ATOM      5  C   LIG    1      -22.309  76.306  29.540  0.00  0.00    +0.160 A 
ATOM      6  N   LIG    1      -21.057  76.761  29.502  0.00  0.00    -0.171 NA
ATOM      7  N   LIG    1      -20.886  77.350  30.708  0.00  0.00    -0.220 N 
ATOM      8  C   LIG    1      -19.754  78.003  31.155  0.00  0.00    +0.118 A 
ATOM      9  C   LIG    1      -19.733  78.549  32.374  0.00  0.00    +0.063 A 
ENDROOT
BRANCH   1  11
ATOM     10  C   LIG    1      -19.788  79.466  35.185  0.00  0.00    +0.108 C 
ATOM     11  N   LIG    1      -20.999  79.032  34.470  0.00  0.00    -0.308 N 
ATOM     12  C   LIG    1      -22.206  79.473  35.166  0.00  0.00    +0.107 C 
ATOM     13  C   LIG    1      -21.720  80.164  36.430  0.00  0.00    +0.021 C 
ATOM     14  C   LIG    1      -20.320  80.619  36.060  0.00  0.00    +0.029 C 
BRANCH  10  18
ATOM     15  F   LIG    1      -19.899  75.082  37.445  0.00  0.00    -0.205 F 
ATOM     16  C   LIG    1      -19.208  76.173  37.089  0.00  0.00    +0.124 A 
ATOM     17  C   LIG    1      -19.853  77.188  36.386  0.00  0.00    +0.046 A 
ATOM     18  C   LIG    1      -19.154  78.344  35.995  0.00  0.00    +0.011 A 
ATOM     19  C   LIG    1      -17.796  78.421  36.337  0.00  0.00    +0.129 A 
ATOM     20  F   LIG    1      -17.074  79.491  35.973  0.00  0.00    -0.205 F 
ATOM     21  C   LIG    1      -17.153  77.406  37.048  0.00  0.00    +0.041 A 
ATOM     22  C   LIG    1      -17.865  76.271  37.425  0.00  0.00    +0.041 A 
ENDBRANCH  10  18
ENDBRANCH   1  11
BRANCH   4  23
ATOM     23  N   LIG    1      -24.239  76.273  31.182  0.00  0.00    -0.275 N 
ATOM     24  H   LIG    1      -24.366  75.416  31.713  0.00  0.00    +0.155 HD
ATOM     25  C   LIG    1      -25.336  77.095  30.955  0.00  0.00    +0.286 C 
ATOM     26  O   LIG    1      -25.296  78.184  30.391  0.00  0.00    -0.266 OA
BRANCH  25  27
ATOM     27  C   LIG    1      -26.636  76.542  31.473  0.00  0.00    +0.216 A 
ATOM     28  N   LIG    1      -26.685  75.215  31.734  0.00  0.00    -0.232 NA
ATOM     29  C   LIG    1      -27.864  74.763  32.199  0.00  0.00    +0.115 A 
ATOM     30  C   LIG    1      -28.975  75.556  32.371  0.00  0.00    +0.039 A 
ATOM     31  C   LIG    1      -28.817  76.884  32.048  0.00  0.00    +0.115 A 
ATOM     32  N   LIG    1      -27.665  77.410  31.609  0.00  0.00    -0.232 NA
ENDBRANCH  25  27
ENDBRANCH   4  23
TORSDOF 4
ENDMDL
MODEL 4
REMARK VINA RESULT:      -6.2      4.186      7.239
REMARK  Name = pdb/CHEMBL3909097.pdb
REMARK                            x       y       z     vdW  Elec       q    Type
REMARK                         _______ _______ _______ _____ _____    ______ ____
ROOT
ATOM      1  C   LIG    1      -41.875  72.498  23.059  0.00  0.00    +0.126 A 
ATOM      2  N   LIG    1      -40.895  71.673  23.365  0.00  0.00    -0.211 NA
ATOM      3  C   LIG    1      -40.687  70.583  22.551  0.00  0.00    +0.179 A 
ATOM      4  C   LIG    1      -39.801  69.524  22.612  0.00  0.00    +0.098 A 
ATOM      5  C   LIG    1      -40.114  68.723  21.495  0.00  0.00    +0.160 A 
ATOM      6  N   LIG    1      -41.116  69.215  20.767  0.00  0.00    -0.171 NA
ATOM      7  N   LIG    1      -41.474  70.343  21.424  0.00  0.00    -0.220 N 
ATOM      8  C   LIG    1      -42.496  71.208  21.084  0.00  0.00    +0.118 A 
ATOM      9  C   LIG    1      -42.743  72.283  21.837  0.00  0.00    +0.063 A 
ENDROOT
BRANCH   1  11
ATOM     10  C   LIG    1      -41.722  74.961  23.587  0.00  0.00    +0.108 C 
ATOM     11  N   LIG    1      -42.146  73.583  23.883  0.00  0.00    -0.308 N 
ATOM     12  C   LIG    1      -43.026  73.543  25.050  0.00  0.00    +0.107 C 
ATOM     13  C   LIG    1      -43.098  74.975  25.557  0.00  0.00    +0.021 C 
ATOM     14  C   LIG    1      -42.792  75.796  24.318  0.00  0.00    +0.029 C 
BRANCH  10  18
ATOM     15  F   LIG    1      -37.463  73.684  25.727  0.00  0.00    -0.205 F 
ATOM     16  C   LIG    1      -38.202  74.610  25.103  0.00  0.00    +0.124 A 
ATOM     17  C   LIG    1      -39.507  74.302  24.726  0.00  0.00    +0.046 A 
ATOM     18  C   LIG    1      -40.307  75.252  24.067  0.00  0.00    +0.011 A 
ATOM     19  C   LIG    1      -39.732  76.505  23.805  0.00  0.00    +0.129 A 
ATOM     20  F   LIG    1      -40.441  77.444  23.161  0.00  0.00    -0.205 F 
ATOM     21  C   LIG    1      -38.427  76.816  24.190  0.00  0.00    +0.041 A 
ATOM     22  C   LIG    1      -37.654  75.859  24.842  0.00  0.00    +0.041 A 
ENDBRANCH  10  18
ENDBRANCH   1  11
BRANCH   4  23
ATOM     23  N   LIG    1      -38.842  69.351  23.594  0.00  0.00    -0.275 N 
ATOM     24  H   LIG    1      -39.168  69.128  24.530  0.00  0.00    +0.155 HD
ATOM     25  C   LIG    1      -37.475  69.422  23.355  0.00  0.00    +0.286 C 
ATOM     26  O   LIG    1      -36.960  69.613  22.258  0.00  0.00    -0.266 OA
BRANCH  25  27
ATOM     27  C   LIG    1      -36.625  69.235  24.583  0.00  0.00    +0.216 A 
ATOM     28  N   LIG    1      -37.202  69.491  25.780  0.00  0.00    -0.232 NA
ATOM     29  C   LIG    1      -36.409  69.307  26.853  0.00  0.00    +0.115 A 
ATOM     30  C   LIG    1      -35.089  68.926  26.773  0.00  0.00    +0.039 A 
ATOM     31  C   LIG    1      -34.602  68.719  25.503  0.00  0.00    +0.115 A 
ATOM     32  N   LIG    1      -35.341  68.853  24.393  0.00  0.00    -0.232 NA
ENDBRANCH  25  27
ENDBRANCH   4  23
TORSDOF 4
ENDMDL
MODEL 5
REMARK VINA RESULT:      -6.2      3.634      8.814
REMARK  Name = pdb/CHEMBL3909097.pdb
REMARK                            x       y       z     vdW  Elec       q    Type
REMARK                         _______ _______ _______ _____ _____    ______ ____
ROOT
ATOM      1  C   LIG    1      -33.081  75.349  28.405  0.00  0.00    +0.126 A 
ATOM      2  N   LIG    1      -33.885  74.414  27.944  0.00  0.00    -0.211 NA
ATOM      3  C   LIG    1      -33.669  73.116  28.346  0.00  0.00    +0.179 A 
ATOM      4  C   LIG    1      -34.280  71.920  28.021  0.00  0.00    +0.098 A 
ATOM      5  C   LIG    1      -33.574  70.940  28.748  0.00  0.00    +0.160 A 
ATOM      6  N   LIG    1      -32.587  71.451  29.485  0.00  0.00    -0.171 NA
ATOM      7  N   LIG    1      -32.638  72.778  29.225  0.00  0.00    -0.220 N 
ATOM      8  C   LIG    1      -31.797  73.751  29.728  0.00  0.00    +0.118 A 
ATOM      9  C   LIG    1      -31.960  75.028  29.371  0.00  0.00    +0.063 A 
ENDROOT
BRANCH   1  11
ATOM     10  C   LIG    1      -34.249  77.583  28.531  0.00  0.00    +0.108 C 
ATOM     11  N   LIG    1      -33.238  76.664  27.984  0.00  0.00    -0.308 N 
ATOM     12  C   LIG    1      -32.325  77.363  27.082  0.00  0.00    +0.107 C 
ATOM     13  C   LIG    1      -32.842  78.792  27.004  0.00  0.00    +0.021 C 
ATOM     14  C   LIG    1      -33.591  78.960  28.314  0.00  0.00    +0.029 C 
BRANCH  10  18
ATOM     15  F   LIG    1      -37.268  75.636  25.148  0.00  0.00    -0.205 F 
ATOM     16  C   LIG    1      -37.086  76.469  26.181  0.00  0.00    +0.124 A 
ATOM     17  C   LIG    1      -35.819  76.585  26.749  0.00  0.00    +0.046 A 
ATOM     18  C   LIG    1      -35.597  77.449  27.836  0.00  0.00    +0.011 A 
ATOM     19  C   LIG    1      -36.698  78.173  28.317  0.00  0.00    +0.129 A 
ATOM     20  F   LIG    1      -36.550  78.996  29.365  0.00  0.00    -0.205 F 
ATOM     21  C   LIG    1      -37.965  78.062  27.742  0.00  0.00    +0.041 A 
ATOM     22  C   LIG    1      -38.161  77.201  26.667  0.00  0.00    +0.041 A 
ENDBRANCH  10  18
ENDBRANCH   1  11
BRANCH   4  23
ATOM     23  N   LIG    1      -35.350  71.789  27.153  0.00  0.00    -0.275 N 
ATOM     24  H   LIG    1      -36.215  72.259  27.406  0.00  0.00    +0.155 HD
ATOM     25  C   LIG    1      -35.285  71.096  25.951  0.00  0.00    +0.286 C 
ATOM     26  O   LIG    1      -34.282  70.550  25.505  0.00  0.00    -0.266 OA
BRANCH  25  27
ATOM     27  C   LIG    1      -36.584  71.061  25.191  0.00  0.00    +0.216 A 
ATOM     28  N   LIG    1      -37.506  72.003  25.497  0.00  0.00    -0.232 NA
ATOM     29  C   LIG    1      -38.651  71.938  24.791  0.00  0.00    +0.115 A 
ATOM     30  C   LIG    1      -38.916  70.972  23.848  0.00  0.00    +0.039 A 
ATOM     31  C   LIG    1      -37.916  70.050  23.639  0.00  0.00    +0.115 A 
ATOM     32  N   LIG    1      -36.741  70.071  24.282  0.00  0.00    -0.232 NA
ENDBRANCH  25  27
ENDBRANCH   4  23
TORSDOF 4
ENDMDL
MODEL 6
REMARK VINA RESULT:      -6.2      5.459      9.014
REMARK  Name = pdb/CHEMBL3909097.pdb
REMARK                            x       y       z     vdW  Elec       q    Type
REMARK                         _______ _______ _______ _____ _____    ______ ____
ROOT
ATOM      1  C   LIG    1      -38.073  77.711  27.200  0.00  0.00    +0.126 A 
ATOM      2  N   LIG    1      -38.373  78.480  26.173  0.00  0.00    -0.211 NA
ATOM      3  C   LIG    1      -39.063  77.921  25.122  0.00  0.00    +0.179 A 
ATOM      4  C   LIG    1      -39.481  78.420  23.904  0.00  0.00    +0.098 A 
ATOM      5  C   LIG    1      -40.113  77.335  23.263  0.00  0.00    +0.160 A 
ATOM      6  N   LIG    1      -40.109  76.223  23.998  0.00  0.00    -0.171 NA
ATOM      7  N   LIG    1      -39.453  76.580  25.127  0.00  0.00    -0.220 N 
ATOM      8  C   LIG    1      -39.157  75.766  26.203  0.00  0.00    +0.118 A 
ATOM      9  C   LIG    1      -38.489  76.256  27.251  0.00  0.00    +0.063 A 
ENDROOT
BRANCH   1  11
ATOM     10  C   LIG    1      -36.260  79.220  28.097  0.00  0.00    +0.108 C 
ATOM     11  N   LIG    1      -37.335  78.228  28.257  0.00  0.00    -0.308 N 
ATOM     12  C   LIG    1      -37.633  77.999  29.670  0.00  0.00    +0.107 C 
ATOM     13  C   LIG    1      -36.633  78.846  30.441  0.00  0.00    +0.021 C 
ATOM     14  C   LIG    1      -36.280  79.946  29.457  0.00  0.00    +0.029 C 
BRANCH  10  18
ATOM     15  F   LIG    1      -33.345  75.331  27.244  0.00  0.00    -0.205 F 
ATOM     16  C   LIG    1      -33.488  76.659  27.341  0.00  0.00    +0.124 A 
ATOM     17  C   LIG    1      -34.733  77.188  27.676  0.00  0.00    +0.046 A 
ATOM     18  C   LIG    1      -34.915  78.578  27.783  0.00  0.00    +0.011 A 
ATOM     19  C   LIG    1      -33.801  79.394  27.534  0.00  0.00    +0.129 A 
ATOM     20  F   LIG    1      -33.922  80.728  27.602  0.00  0.00    -0.205 F 
ATOM     21  C   LIG    1      -32.553  78.863  27.207  0.00  0.00    +0.041 A 
ATOM     22  C   LIG    1      -32.396  77.483  27.107  0.00  0.00    +0.041 A 
ENDBRANCH  10  18
ENDBRANCH   1  11
BRANCH   4  23
ATOM     23  N   LIG    1      -39.281  79.720  23.472  0.00  0.00    -0.275 N 
ATOM     24  H   LIG    1      -38.503  79.887  22.841  0.00  0.00    +0.155 HD
ATOM     25  C   LIG    1      -40.108  80.781  23.820  0.00  0.00    +0.286 C 
ATOM     26  O   LIG    1      -41.115  80.692  24.515  0.00  0.00    -0.266 OA
BRANCH  25  27
ATOM     27  C   LIG    1      -39.673  82.108  23.258  0.00  0.00    +0.216 A 
ATOM     28  N   LIG    1      -40.233  82.499  22.089  0.00  0.00    -0.232 NA
ATOM     29  C   LIG    1      -39.820  83.694  21.625  0.00  0.00    +0.115 A 
ATOM     30  C   LIG    1      -38.868  84.469  22.245  0.00  0.00    +0.039 A 
ATOM     31  C   LIG    1      -38.349  83.959  23.413  0.00  0.00    +0.115 A 
ATOM     32  N   LIG    1      -38.734  82.793  23.950  0.00  0.00    -0.232 NA
ENDBRANCH  25  27
ENDBRANCH   4  23
TORSDOF 4
ENDMDL
MODEL 7
REMARK VINA RESULT:      -6.1      2.367      4.130
REMARK  Name = pdb/CHEMBL3909097.pdb
REMARK                            x       y       z     vdW  Elec       q    Type
REMARK                         _______ _______ _______ _____ _____    ______ ____
ROOT
ATOM      1  C   LIG    1      -38.578  72.497  24.746  0.00  0.00    +0.126 A 
ATOM      2  N   LIG    1      -37.867  73.541  25.118  0.00  0.00    -0.211 NA
ATOM      3  C   LIG    1      -38.379  74.795  24.874  0.00  0.00    +0.179 A 
ATOM      4  C   LIG    1      -37.883  76.067  25.086  0.00  0.00    +0.098 A 
ATOM      5  C   LIG    1      -38.879  76.933  24.592  0.00  0.00    +0.160 A 
ATOM      6  N   LIG    1      -39.935  76.285  24.101  0.00  0.00    -0.171 NA
ATOM      7  N   LIG    1      -39.619  74.979  24.260  0.00  0.00    -0.220 N 
ATOM      8  C   LIG    1      -40.381  73.892  23.878  0.00  0.00    +0.118 A 
ATOM      9  C   LIG    1      -39.934  72.651  24.090  0.00  0.00    +0.063 A 
ENDROOT
BRANCH   1  11
ATOM     10  C   LIG    1      -38.221  70.451  26.181  0.00  0.00    +0.108 C 
ATOM     11  N   LIG    1      -38.072  71.216  24.932  0.00  0.00    -0.308 N 
ATOM     12  C   LIG    1      -37.486  70.392  23.877  0.00  0.00    +0.107 C 
ATOM     13  C   LIG    1      -37.184  69.050  24.527  0.00  0.00    +0.021 C 
ATOM     14  C   LIG    1      -38.170  68.994  25.679  0.00  0.00    +0.029 C 
BRANCH  10  18
ATOM     15  F   LIG    1      -33.920  72.469  27.513  0.00  0.00    -0.205 F 
ATOM     16  C   LIG    1      -35.022  71.788  27.851  0.00  0.00    +0.124 A 
ATOM     17  C   LIG    1      -35.964  71.483  26.871  0.00  0.00    +0.046 A 
ATOM     18  C   LIG    1      -37.132  70.772  27.195  0.00  0.00    +0.011 A 
ATOM     19  C   LIG    1      -37.304  70.396  28.536  0.00  0.00    +0.129 A 
ATOM     20  F   LIG    1      -38.409  69.733  28.908  0.00  0.00    -0.205 F 
ATOM     21  C   LIG    1      -36.356  70.694  29.516  0.00  0.00    +0.041 A 
ATOM     22  C   LIG    1      -35.207  71.399  29.171  0.00  0.00    +0.041 A 
ENDBRANCH  10  18
ENDBRANCH   1  11
BRANCH   4  23
ATOM     23  N   LIG    1      -36.657  76.352  25.662  0.00  0.00    -0.275 N 
ATOM     24  H   LIG    1      -35.863  76.460  25.038  0.00  0.00    +0.155 HD
ATOM     25  C   LIG    1      -36.474  76.538  27.027  0.00  0.00    +0.286 C 
ATOM     26  O   LIG    1      -37.365  76.503  27.869  0.00  0.00    -0.266 OA
BRANCH  25  27
ATOM     27  C   LIG    1      -35.047  76.804  27.425  0.00  0.00    +0.216 A 
ATOM     28  N   LIG    1      -34.299  75.739  27.797  0.00  0.00    -0.232 NA
ATOM     29  C   LIG    1      -33.028  76.020  28.141  0.00  0.00    +0.115 A 
ATOM     30  C   LIG    1      -32.504  77.292  28.164  0.00  0.00    +0.039 A 
ATOM     31  C   LIG    1      -33.364  78.300  27.791  0.00  0.00    +0.115 A 
ATOM     32  N   LIG    1      -34.631  78.091  27.408  0.00  0.00    -0.232 NA
ENDBRANCH  25  27
ENDBRANCH   4  23
TORSDOF 4
ENDMDL
MODEL 8
REMARK VINA RESULT:      -6.1      3.759      8.618
REMARK  Name = pdb/CHEMBL3909097.pdb
REMARK                            x       y       z     vdW  Elec       q    Type
REMARK                         _______ _______ _______ _____ _____    ______ ____
ROOT
ATOM      1  C   LIG    1      -38.007  78.653  27.209  0.00  0.00    +0.126 A 
ATOM      2  N   LIG    1      -38.180  77.612  26.421  0.00  0.00    -0.211 NA
ATOM      3  C   LIG    1      -38.972  77.765  25.306  0.00  0.00    +0.179 A 
ATOM      4  C   LIG    1      -39.390  76.886  24.325  0.00  0.00    +0.098 A 
ATOM      5  C   LIG    1      -40.213  77.653  23.476  0.00  0.00    +0.160 A 
ATOM      6  N   LIG    1      -40.324  78.922  23.867  0.00  0.00    -0.171 NA
ATOM      7  N   LIG    1      -39.578  78.984  24.994  0.00  0.00    -0.220 N 
ATOM      8  C   LIG    1      -39.393  80.088  25.804  0.00  0.00    +0.118 A 
ATOM      9  C   LIG    1      -38.633  79.997  26.898  0.00  0.00    +0.063 A 
ENDROOT
BRANCH   1  11
ATOM     10  C   LIG    1      -36.050  79.323  28.655  0.00  0.00    +0.108 C 
ATOM     11  N   LIG    1      -37.253  78.524  28.369  0.00  0.00    -0.308 N 
ATOM     12  C   LIG    1      -37.638  77.719  29.526  0.00  0.00    +0.107 C 
ATOM     13  C   LIG    1      -36.568  77.976  30.576  0.00  0.00    +0.021 C 
ATOM     14  C   LIG    1      -36.033  79.344  30.197  0.00  0.00    +0.029 C 
BRANCH  10  18
ATOM     15  F   LIG    1      -33.351  75.530  27.019  0.00  0.00    -0.205 F 
ATOM     16  C   LIG    1      -33.473  76.848  27.226  0.00  0.00    +0.124 A 
ATOM     17  C   LIG    1      -34.631  77.340  27.824  0.00  0.00    +0.046 A 
ATOM     18  C   LIG    1      -34.790  78.718  28.052  0.00  0.00    +0.011 A 
ATOM     19  C   LIG    1      -33.744  79.562  27.648  0.00  0.00    +0.129 A 
ATOM     20  F   LIG    1      -33.849  80.887  27.822  0.00  0.00    -0.205 F 
ATOM     21  C   LIG    1      -32.580  79.067  27.057  0.00  0.00    +0.041 A 
ATOM     22  C   LIG    1      -32.445  77.698  26.841  0.00  0.00    +0.041 A 
ENDBRANCH  10  18
ENDBRANCH   1  11
BRANCH   4  23
ATOM     23  N   LIG    1      -39.036  75.550  24.259  0.00  0.00    -0.275 N 
ATOM     24  H   LIG    1      -38.148  75.323  23.821  0.00  0.00    +0.155 HD
ATOM     25  C   LIG    1      -39.805  74.524  24.796  0.00  0.00    +0.286 C 
ATOM     26  O   LIG    1      -40.857  74.677  25.408  0.00  0.00    -0.266 OA
BRANCH  25  27
ATOM     27  C   LIG    1      -39.237  73.148  24.573  0.00  0.00    +0.216 A 
ATOM     28  N   LIG    1      -37.943  72.950  24.917  0.00  0.00    -0.232 NA
ATOM     29  C   LIG    1      -37.475  71.705  24.705  0.00  0.00    +0.115 A 
ATOM     30  C   LIG    1      -38.218  70.693  24.142  0.00  0.00    +0.039 A 
ATOM     31  C   LIG    1      -39.513  71.017  23.807  0.00  0.00    +0.115 A 
ATOM     32  N   LIG    1      -40.054  72.225  24.017  0.00  0.00    -0.232 NA
ENDBRANCH  25  27
ENDBRANCH   4  23
TORSDOF 4
ENDMDL
MODEL 9
REMARK VINA RESULT:      -6.1     13.363     18.909
REMARK  Name = pdb/CHEMBL3909097.pdb
REMARK                            x       y       z     vdW  Elec       q    Type
REMARK                         _______ _______ _______ _____ _____    ______ ____
ROOT
ATOM      1  C   LIG    1      -20.792  78.091  33.056  0.00  0.00    +0.126 A 
ATOM      2  N   LIG    1      -22.060  77.908  32.746  0.00  0.00    -0.211 NA
ATOM      3  C   LIG    1      -22.369  77.572  31.448  0.00  0.00    +0.179 A 
ATOM      4  C   LIG    1      -23.569  77.363  30.795  0.00  0.00    +0.098 A 
ATOM      5  C   LIG    1      -23.212  77.076  29.462  0.00  0.00    +0.160 A 
ATOM      6  N   LIG    1      -21.894  77.094  29.261  0.00  0.00    -0.171 NA
ATOM      7  N   LIG    1      -21.383  77.414  30.472  0.00  0.00    -0.220 N 
ATOM      8  C   LIG    1      -20.050  77.587  30.787  0.00  0.00    +0.118 A 
ATOM      9  C   LIG    1      -19.691  77.915  32.031  0.00  0.00    +0.063 A 
ENDROOT
BRANCH   1  11
ATOM     10  C   LIG    1      -21.245  78.160  35.537  0.00  0.00    +0.108 C 
ATOM     11  N   LIG    1      -20.445  78.478  34.344  0.00  0.00    -0.308 N 
ATOM     12  C   LIG    1      -19.171  79.092  34.713  0.00  0.00    +0.107 C 
ATOM     13  C   LIG    1      -19.208  79.232  36.227  0.00  0.00    +0.021 C 
ATOM     14  C   LIG    1      -20.178  78.144  36.651  0.00  0.00    +0.029 C 
BRANCH  10  18
ATOM     15  F   LIG    1      -23.011  82.762  35.768  0.00  0.00    -0.205 F 
ATOM     16  C   LIG    1      -23.223  81.444  35.876  0.00  0.00    +0.124 A 
ATOM     17  C   LIG    1      -22.161  80.563  35.682  0.00  0.00    +0.046 A 
ATOM     18  C   LIG    1      -22.353  79.174  35.786  0.00  0.00    +0.011 A 
ATOM     19  C   LIG    1      -23.648  78.725  36.083  0.00  0.00    +0.129 A 
ATOM     20  F   LIG    1      -23.894  77.410  36.174  0.00  0.00    -0.205 F 
ATOM     21  C   LIG    1      -24.710  79.608  36.286  0.00  0.00    +0.041 A 
ATOM     22  C   LIG    1      -24.496  80.979  36.178  0.00  0.00    +0.041 A 
ENDBRANCH  10  18
ENDBRANCH   1  11
BRANCH   4  23
ATOM     23  N   LIG    1      -24.816  77.441  31.389  0.00  0.00    -0.275 N 
ATOM     24  H   LIG    1      -25.117  78.352  31.724  0.00  0.00    +0.155 HD
ATOM     25  C   LIG    1      -25.681  76.360  31.506  0.00  0.00    +0.286 C 
ATOM     26  O   LIG    1      -25.461  75.232  31.079  0.00  0.00    -0.266 OA
BRANCH  25  27
ATOM     27  C   LIG    1      -26.969  76.677  32.219  0.00  0.00    +0.216 A 
ATOM     28  N   LIG    1      -28.092  76.748  31.467  0.00  0.00    -0.232 NA
ATOM     29  C   LIG    1      -29.221  77.030  32.144  0.00  0.00    +0.115 A 
ATOM     30  C   LIG    1      -29.261  77.275  33.498  0.00  0.00    +0.039 A 
ATOM     31  C   LIG    1      -28.055  77.202  34.155  0.00  0.00    +0.115 A 
ATOM     32  N   LIG    1      -26.898  76.897  33.552  0.00  0.00    -0.232 NA
ENDBRANCH  25  27
ENDBRANCH   4  23
TORSDOF 4
ENDMDL
