MODEL 1
REMARK VINA RESULT:      -6.1      0.000      0.000
REMARK  Name = pdb/CHEMBL3966864.pdb
REMARK                            x       y       z     vdW  Elec       q    Type
REMARK                         _______ _______ _______ _____ _____    ______ ____
ROOT
ATOM      1  C   LIG    1      -38.892  68.460  22.155  0.00  0.00    +0.105 A 
ATOM      2  C   LIG    1      -37.658  69.071  22.062  0.00  0.00    +0.145 A 
ATOM      3  N   LIG    1      -36.641  68.892  22.935  0.00  0.00    -0.201 NA
ATOM      4  C   LIG    1      -36.842  68.015  23.934  0.00  0.00    +0.323 A 
ATOM      5  N   LIG    1      -37.956  67.281  24.066  0.00  0.00    -0.201 NA
ATOM      6  C   LIG    1      -38.933  67.506  23.154  0.00  0.00    +0.145 A 
ENDROOT
BRANCH   1   8
ATOM      7  C   LIG    1      -40.877  69.603  21.521  0.00  0.00    +0.285 C 
ATOM      8  N   LIG    1      -39.914  68.792  21.249  0.00  0.00    -0.196 NA
BRANCH   7   9
ATOM      9  N   LIG    1      -41.267  70.250  22.661  0.00  0.00    -0.268 N 
ATOM     10  H   LIG    1      -41.900  69.755  23.276  0.00  0.00    +0.157 HD
BRANCH   9  12
ATOM     11  C   LIG    1      -41.780  72.652  22.986  0.00  0.00    +0.109 A 
ATOM     12  C   LIG    1      -40.942  71.528  23.155  0.00  0.00    +0.060 A 
ATOM     13  C   LIG    1      -39.732  71.742  23.845  0.00  0.00    +0.037 A 
ATOM     14  C   LIG    1      -39.371  73.007  24.353  0.00  0.00    +0.057 A 
ATOM     15  C   LIG    1      -40.244  74.087  24.183  0.00  0.00    +0.014 A 
ATOM     16  C   LIG    1      -41.447  73.902  23.522  0.00  0.00    +0.029 A 
BRANCH  11  18
ATOM     17  C   LIG    1      -43.952  74.270  22.236  0.00  0.00    +0.200 C 
ATOM     18  S   LIG    1      -43.337  72.600  22.119  0.00  0.00    -0.004 S 
ATOM     19  O   LIG    1      -43.048  72.320  20.711  0.00  0.00    -0.170 OA
ATOM     20  O   LIG    1      -44.202  71.740  22.864  0.00  0.00    -0.170 OA
ENDBRANCH  11  18
BRANCH  14  21
ATOM     21  C   LIG    1      -38.051  73.204  25.058  0.00  0.00    +0.417 C 
ATOM     22  F   LIG    1      -37.535  74.445  24.850  0.00  0.00    -0.166 F 
ATOM     23  F   LIG    1      -37.098  72.320  24.654  0.00  0.00    -0.166 F 
ATOM     24  F   LIG    1      -38.141  73.062  26.412  0.00  0.00    -0.166 F 
ENDBRANCH  14  21
ENDBRANCH   9  12
ENDBRANCH   7   9
BRANCH   7  25
ATOM     25  O   LIG    1      -41.691  69.810  20.470  0.00  0.00    -0.481 OA
ATOM     26  H   LIG    1      -42.024  70.720  20.558  0.00  0.00    +0.295 HD
ENDBRANCH   7  25
ENDBRANCH   1   8
BRANCH   4  27
ATOM     27  O   LIG    1      -35.901  67.849  24.949  0.00  0.00    -0.424 OA
BRANCH  27  28
ATOM     28  C   LIG    1      -35.472  68.927  25.688  0.00  0.00    +0.132 A 
ATOM     29  C   LIG    1      -34.156  69.368  25.743  0.00  0.00    +0.047 A 
ATOM     30  C   LIG    1      -33.806  70.480  26.510  0.00  0.00    +0.012 A 
ATOM     31  C   LIG    1      -34.730  71.159  27.323  0.00  0.00    -0.014 A 
ATOM     32  C   LIG    1      -36.046  70.658  27.309  0.00  0.00    +0.012 A 
ATOM     33  C   LIG    1      -36.413  69.564  26.499  0.00  0.00    +0.047 A 
BRANCH  31  34
ATOM     34  C   LIG    1      -34.278  72.315  28.156  0.00  0.00    +0.022 A 
ATOM     35  C   LIG    1      -33.887  72.243  29.504  0.00  0.00    +0.124 A 
ATOM     36  N   LIG    1      -33.492  73.312  30.232  0.00  0.00    -0.240 NA
ATOM     37  C   LIG    1      -33.505  74.527  29.645  0.00  0.00    +0.125 A 
ATOM     38  C   LIG    1      -33.885  74.740  28.338  0.00  0.00    +0.074 A 
ATOM     39  C   LIG    1      -34.252  73.613  27.595  0.00  0.00    +0.025 A 
BRANCH  38  40
ATOM     40  C   LIG    1      -33.895  76.128  27.781  0.00  0.00    +0.419 C 
ATOM     41  F   LIG    1      -34.870  76.310  26.850  0.00  0.00    -0.166 F 
ATOM     42  F   LIG    1      -32.724  76.446  27.162  0.00  0.00    -0.166 F 
ATOM     43  F   LIG    1      -34.090  77.093  28.721  0.00  0.00    -0.166 F 
ENDBRANCH  38  40
BRANCH  35  44
ATOM     44  N   LIG    1      -33.902  71.066  30.250  0.00  0.00    -0.343 N 
ATOM     45  H   LIG    1      -33.081  70.509  30.038  0.00  0.00    +0.144 HD
ATOM     46  H   LIG    1      -34.753  70.578  29.976  0.00  0.00    +0.144 HD
ENDBRANCH  35  44
ENDBRANCH  31  34
ENDBRANCH  27  28
ENDBRANCH   4  27
TORSDOF 11
ENDMDL
MODEL 2
REMARK VINA RESULT:      -5.8      8.765     14.310
REMARK  Name = pdb/CHEMBL3966864.pdb
REMARK                            x       y       z     vdW  Elec       q    Type
REMARK                         _______ _______ _______ _____ _____    ______ ____
ROOT
ATOM      1  C   LIG    1      -25.894  72.230  32.706  0.00  0.00    +0.105 A 
ATOM      2  C   LIG    1      -26.272  72.199  31.379  0.00  0.00    +0.145 A 
ATOM      3  N   LIG    1      -27.534  71.990  30.942  0.00  0.00    -0.201 NA
ATOM      4  C   LIG    1      -28.489  71.852  31.878  0.00  0.00    +0.323 A 
ATOM      5  N   LIG    1      -28.263  71.971  33.193  0.00  0.00    -0.201 NA
ATOM      6  C   LIG    1      -26.976  72.186  33.563  0.00  0.00    +0.145 A 
ENDROOT
BRANCH   1   8
ATOM      7  C   LIG    1      -23.947  73.486  33.238  0.00  0.00    +0.285 C 
ATOM      8  N   LIG    1      -24.537  72.356  33.050  0.00  0.00    -0.196 NA
BRANCH   7   9
ATOM      9  N   LIG    1      -24.337  74.787  33.080  0.00  0.00    -0.268 N 
ATOM     10  H   LIG    1      -24.931  75.179  33.799  0.00  0.00    +0.157 HD
BRANCH   9  12
ATOM     11  C   LIG    1      -25.017  76.626  31.566  0.00  0.00    +0.109 A 
ATOM     12  C   LIG    1      -24.057  75.717  32.060  0.00  0.00    +0.060 A 
ATOM     13  C   LIG    1      -22.777  75.770  31.472  0.00  0.00    +0.037 A 
ATOM     14  C   LIG    1      -22.459  76.686  30.448  0.00  0.00    +0.057 A 
ATOM     15  C   LIG    1      -23.435  77.585  30.007  0.00  0.00    +0.014 A 
ATOM     16  C   LIG    1      -24.697  77.565  30.577  0.00  0.00    +0.029 A 
BRANCH  11  18
ATOM     17  C   LIG    1      -26.544  77.303  33.826  0.00  0.00    +0.200 C 
ATOM     18  S   LIG    1      -26.698  76.701  32.154  0.00  0.00    -0.004 S 
ATOM     19  O   LIG    1      -27.396  77.720  31.367  0.00  0.00    -0.170 OA
ATOM     20  O   LIG    1      -27.187  75.358  32.193  0.00  0.00    -0.170 OA
ENDBRANCH  11  18
BRANCH  14  21
ATOM     21  C   LIG    1      -21.086  76.690  29.820  0.00  0.00    +0.417 C 
ATOM     22  F   LIG    1      -21.130  76.442  28.484  0.00  0.00    -0.166 F 
ATOM     23  F   LIG    1      -20.256  75.754  30.356  0.00  0.00    -0.166 F 
ATOM     24  F   LIG    1      -20.439  77.883  29.955  0.00  0.00    -0.166 F 
ENDBRANCH  14  21
ENDBRANCH   9  12
ENDBRANCH   7   9
BRANCH   7  25
ATOM     25  O   LIG    1      -22.665  73.342  33.622  0.00  0.00    -0.481 OA
ATOM     26  H   LIG    1      -22.291  74.239  33.662  0.00  0.00    +0.295 HD
ENDBRANCH   7  25
ENDBRANCH   1   8
BRANCH   4  27
ATOM     27  O   LIG    1      -29.797  71.518  31.531  0.00  0.00    -0.424 OA
BRANCH  27  28
ATOM     28  C   LIG    1      -30.607  72.433  30.897  0.00  0.00    +0.132 A 
ATOM     29  C   LIG    1      -31.338  72.169  29.746  0.00  0.00    +0.047 A 
ATOM     30  C   LIG    1      -32.146  73.151  29.172  0.00  0.00    +0.012 A 
ATOM     31  C   LIG    1      -32.205  74.466  29.666  0.00  0.00    -0.014 A 
ATOM     32  C   LIG    1      -31.406  74.736  30.793  0.00  0.00    +0.012 A 
ATOM     33  C   LIG    1      -30.625  73.733  31.405  0.00  0.00    +0.047 A 
BRANCH  31  34
ATOM     34  C   LIG    1      -33.055  75.482  28.975  0.00  0.00    +0.022 A 
ATOM     35  C   LIG    1      -34.450  75.402  28.814  0.00  0.00    +0.124 A 
ATOM     36  N   LIG    1      -35.189  76.336  28.173  0.00  0.00    -0.240 NA
ATOM     37  C   LIG    1      -34.552  77.392  27.625  0.00  0.00    +0.125 A 
ATOM     38  C   LIG    1      -33.189  77.581  27.693  0.00  0.00    +0.074 A 
ATOM     39  C   LIG    1      -32.451  76.621  28.393  0.00  0.00    +0.025 A 
BRANCH  38  40
ATOM     40  C   LIG    1      -32.568  78.769  27.029  0.00  0.00    +0.419 C 
ATOM     41  F   LIG    1      -32.223  78.524  25.736  0.00  0.00    -0.166 F 
ATOM     42  F   LIG    1      -31.424  79.170  27.651  0.00  0.00    -0.166 F 
ATOM     43  F   LIG    1      -33.376  79.865  27.000  0.00  0.00    -0.166 F 
ENDBRANCH  38  40
BRANCH  35  44
ATOM     44  N   LIG    1      -35.218  74.330  29.261  0.00  0.00    -0.343 N 
ATOM     45  H   LIG    1      -35.951  74.123  28.591  0.00  0.00    +0.144 HD
ATOM     46  H   LIG    1      -35.613  74.627  30.151  0.00  0.00    +0.144 HD
ENDBRANCH  35  44
ENDBRANCH  31  34
ENDBRANCH  27  28
ENDBRANCH   4  27
TORSDOF 11
ENDMDL
MODEL 3
REMARK VINA RESULT:      -5.8     17.922     22.078
REMARK  Name = pdb/CHEMBL3966864.pdb
REMARK                            x       y       z     vdW  Elec       q    Type
REMARK                         _______ _______ _______ _____ _____    ______ ____
ROOT
ATOM      1  C   LIG    1      -24.246  81.624  38.392  0.00  0.00    +0.105 A 
ATOM      2  C   LIG    1      -25.259  81.793  37.471  0.00  0.00    +0.145 A 
ATOM      3  N   LIG    1      -25.773  80.808  36.701  0.00  0.00    -0.201 NA
ATOM      4  C   LIG    1      -25.287  79.569  36.890  0.00  0.00    +0.323 A 
ATOM      5  N   LIG    1      -24.381  79.262  37.829  0.00  0.00    -0.201 NA
ATOM      6  C   LIG    1      -23.912  80.295  38.570  0.00  0.00    +0.145 A 
ENDROOT
BRANCH   1   8
ATOM      7  C   LIG    1      -22.653  83.362  38.699  0.00  0.00    +0.285 C 
ATOM      8  N   LIG    1      -23.716  82.735  39.071  0.00  0.00    -0.196 NA
BRANCH   7   9
ATOM      9  N   LIG    1      -21.722  83.136  37.724  0.00  0.00    -0.268 N 
ATOM     10  H   LIG    1      -21.643  83.832  36.994  0.00  0.00    +0.157 HD
BRANCH   9  12
ATOM     11  C   LIG    1      -19.705  81.855  38.379  0.00  0.00    +0.109 A 
ATOM     12  C   LIG    1      -20.818  82.072  37.538  0.00  0.00    +0.060 A 
ATOM     13  C   LIG    1      -20.990  81.166  36.473  0.00  0.00    +0.037 A 
ATOM     14  C   LIG    1      -20.106  80.089  36.253  0.00  0.00    +0.057 A 
ATOM     15  C   LIG    1      -19.030  79.899  37.126  0.00  0.00    +0.014 A 
ATOM     16  C   LIG    1      -18.845  80.765  38.190  0.00  0.00    +0.029 A 
BRANCH  11  18
ATOM     17  C   LIG    1      -17.663  82.363  40.241  0.00  0.00    +0.200 C 
ATOM     18  S   LIG    1      -19.294  82.902  39.761  0.00  0.00    -0.004 S 
ATOM     19  O   LIG    1      -19.190  84.274  39.261  0.00  0.00    -0.170 OA
ATOM     20  O   LIG    1      -20.209  82.584  40.813  0.00  0.00    -0.170 OA
ENDBRANCH  11  18
BRANCH  14  21
ATOM     21  C   LIG    1      -20.304  79.159  35.080  0.00  0.00    +0.417 C 
ATOM     22  F   LIG    1      -21.315  78.274  35.290  0.00  0.00    -0.166 F 
ATOM     23  F   LIG    1      -19.199  78.417  34.799  0.00  0.00    -0.166 F 
ATOM     24  F   LIG    1      -20.618  79.814  33.926  0.00  0.00    -0.166 F 
ENDBRANCH  14  21
ENDBRANCH   9  12
ENDBRANCH   7   9
BRANCH   7  25
ATOM     25  O   LIG    1      -22.387  84.431  39.472  0.00  0.00    -0.481 OA
ATOM     26  H   LIG    1      -23.077  84.450  40.157  0.00  0.00    +0.295 HD
ENDBRANCH   7  25
ENDBRANCH   1   8
BRANCH   4  27
ATOM     27  O   LIG    1      -25.668  78.510  36.067  0.00  0.00    -0.424 OA
BRANCH  27  28
ATOM     28  C   LIG    1      -24.923  78.185  34.957  0.00  0.00    +0.132 A 
ATOM     29  C   LIG    1      -24.589  76.888  34.588  0.00  0.00    +0.047 A 
ATOM     30  C   LIG    1      -23.837  76.644  33.438  0.00  0.00    +0.012 A 
ATOM     31  C   LIG    1      -23.312  77.678  32.644  0.00  0.00    -0.014 A 
ATOM     32  C   LIG    1      -23.601  78.988  33.070  0.00  0.00    +0.012 A 
ATOM     33  C   LIG    1      -24.401  79.239  34.205  0.00  0.00    +0.047 A 
BRANCH  31  34
ATOM     34  C   LIG    1      -22.475  77.347  31.451  0.00  0.00    +0.022 A 
ATOM     35  C   LIG    1      -22.960  77.153  30.145  0.00  0.00    +0.124 A 
ATOM     36  N   LIG    1      -22.174  76.844  29.088  0.00  0.00    -0.240 NA
ATOM     37  C   LIG    1      -20.852  76.677  29.299  0.00  0.00    +0.125 A 
ATOM     38  C   LIG    1      -20.252  76.818  30.532  0.00  0.00    +0.074 A 
ATOM     39  C   LIG    1      -21.079  77.175  31.602  0.00  0.00    +0.025 A 
BRANCH  38  40
ATOM     40  C   LIG    1      -18.781  76.584  30.675  0.00  0.00    +0.419 C 
ATOM     41  F   LIG    1      -18.150  76.480  29.474  0.00  0.00    -0.166 F 
ATOM     42  F   LIG    1      -18.502  75.431  31.344  0.00  0.00    -0.166 F 
ATOM     43  F   LIG    1      -18.134  77.572  31.354  0.00  0.00    -0.166 F 
ENDBRANCH  38  40
BRANCH  35  44
ATOM     44  N   LIG    1      -24.309  77.219  29.806  0.00  0.00    -0.343 N 
ATOM     45  H   LIG    1      -24.509  76.574  29.048  0.00  0.00    +0.144 HD
ATOM     46  H   LIG    1      -24.473  78.181  29.516  0.00  0.00    +0.144 HD
ENDBRANCH  35  44
ENDBRANCH  31  34
ENDBRANCH  27  28
ENDBRANCH   4  27
TORSDOF 11
ENDMDL
MODEL 4
REMARK VINA RESULT:      -5.6     11.269     17.093
REMARK  Name = pdb/CHEMBL3966864.pdb
REMARK                            x       y       z     vdW  Elec       q    Type
REMARK                         _______ _______ _______ _____ _____    ______ ____
ROOT
ATOM      1  C   LIG    1      -24.339  76.729  30.449  0.00  0.00    +0.105 A 
ATOM      2  C   LIG    1      -25.190  77.764  30.781  0.00  0.00    +0.145 A 
ATOM      3  N   LIG    1      -26.351  77.619  31.458  0.00  0.00    -0.201 NA
ATOM      4  C   LIG    1      -26.664  76.380  31.874  0.00  0.00    +0.323 A 
ATOM      5  N   LIG    1      -25.867  75.316  31.707  0.00  0.00    -0.201 NA
ATOM      6  C   LIG    1      -24.715  75.531  31.025  0.00  0.00    +0.145 A 
ENDROOT
BRANCH   1   8
ATOM      7  C   LIG    1      -21.995  76.894  30.092  0.00  0.00    +0.285 C 
ATOM      8  N   LIG    1      -23.204  76.976  29.656  0.00  0.00    -0.196 NA
BRANCH   7   9
ATOM      9  N   LIG    1      -21.454  76.686  31.330  0.00  0.00    -0.268 N 
ATOM     10  H   LIG    1      -21.293  75.725  31.605  0.00  0.00    +0.157 HD
BRANCH   9  12
ATOM     11  C   LIG    1      -19.718  77.837  32.671  0.00  0.00    +0.109 A 
ATOM     12  C   LIG    1      -21.067  77.594  32.334  0.00  0.00    +0.060 A 
ATOM     13  C   LIG    1      -22.038  78.306  33.067  0.00  0.00    +0.037 A 
ATOM     14  C   LIG    1      -21.690  79.223  34.081  0.00  0.00    +0.057 A 
ATOM     15  C   LIG    1      -20.340  79.450  34.364  0.00  0.00    +0.014 A 
ATOM     16  C   LIG    1      -19.364  78.775  33.649  0.00  0.00    +0.029 A 
BRANCH  11  18
ATOM     17  C   LIG    1      -18.363  75.377  32.584  0.00  0.00    +0.200 C 
ATOM     18  S   LIG    1      -18.343  77.019  31.886  0.00  0.00    -0.004 S 
ATOM     19  O   LIG    1      -18.651  76.908  30.459  0.00  0.00    -0.170 OA
ATOM     20  O   LIG    1      -17.156  77.686  32.320  0.00  0.00    -0.170 OA
ENDBRANCH  11  18
BRANCH  14  21
ATOM     21  C   LIG    1      -22.760  79.942  34.866  0.00  0.00    +0.417 C 
ATOM     22  F   LIG    1      -22.426  81.233  35.131  0.00  0.00    -0.166 F 
ATOM     23  F   LIG    1      -23.018  79.359  36.068  0.00  0.00    -0.166 F 
ATOM     24  F   LIG    1      -23.957  79.996  34.214  0.00  0.00    -0.166 F 
ENDBRANCH  14  21
ENDBRANCH   9  12
ENDBRANCH   7   9
BRANCH   7  25
ATOM     25  O   LIG    1      -21.082  77.112  29.127  0.00  0.00    -0.481 OA
ATOM     26  H   LIG    1      -21.282  76.480  28.415  0.00  0.00    +0.295 HD
ENDBRANCH   7  25
ENDBRANCH   1   8
BRANCH   4  27
ATOM     27  O   LIG    1      -27.893  76.109  32.476  0.00  0.00    -0.424 OA
BRANCH  27  28
ATOM     28  C   LIG    1      -28.944  75.626  31.731  0.00  0.00    +0.132 A 
ATOM     29  C   LIG    1      -29.734  76.401  30.893  0.00  0.00    +0.047 A 
ATOM     30  C   LIG    1      -30.777  75.829  30.162  0.00  0.00    +0.012 A 
ATOM     31  C   LIG    1      -31.136  74.476  30.291  0.00  0.00    -0.014 A 
ATOM     32  C   LIG    1      -30.369  73.719  31.196  0.00  0.00    +0.012 A 
ATOM     33  C   LIG    1      -29.285  74.282  31.900  0.00  0.00    +0.047 A 
BRANCH  31  34
ATOM     34  C   LIG    1      -32.294  73.938  29.513  0.00  0.00    +0.022 A 
ATOM     35  C   LIG    1      -33.301  74.712  28.912  0.00  0.00    +0.124 A 
ATOM     36  N   LIG    1      -34.342  74.191  28.222  0.00  0.00    -0.240 NA
ATOM     37  C   LIG    1      -34.442  72.849  28.131  0.00  0.00    +0.125 A 
ATOM     38  C   LIG    1      -33.535  71.976  28.691  0.00  0.00    +0.074 A 
ATOM     39  C   LIG    1      -32.448  72.539  29.366  0.00  0.00    +0.025 A 
BRANCH  38  40
ATOM     40  C   LIG    1      -33.745  70.500  28.562  0.00  0.00    +0.419 C 
ATOM     41  F   LIG    1      -34.540  70.176  27.507  0.00  0.00    -0.166 F 
ATOM     42  F   LIG    1      -34.346  69.965  29.660  0.00  0.00    -0.166 F 
ATOM     43  F   LIG    1      -32.591  69.796  28.392  0.00  0.00    -0.166 F 
ENDBRANCH  38  40
BRANCH  35  44
ATOM     44  N   LIG    1      -33.360  76.102  28.996  0.00  0.00    -0.343 N 
ATOM     45  H   LIG    1      -34.173  76.447  28.496  0.00  0.00    +0.144 HD
ATOM     46  H   LIG    1      -32.500  76.440  28.567  0.00  0.00    +0.144 HD
ENDBRANCH  35  44
ENDBRANCH  31  34
ENDBRANCH  27  28
ENDBRANCH   4  27
TORSDOF 11
ENDMDL
MODEL 5
REMARK VINA RESULT:      -5.6      1.739      2.466
REMARK  Name = pdb/CHEMBL3966864.pdb
REMARK                            x       y       z     vdW  Elec       q    Type
REMARK                         _______ _______ _______ _____ _____    ______ ____
ROOT
ATOM      1  C   LIG    1      -39.685  70.110  23.678  0.00  0.00    +0.105 A 
ATOM      2  C   LIG    1      -40.135  69.837  24.954  0.00  0.00    +0.145 A 
ATOM      3  N   LIG    1      -39.344  69.740  26.046  0.00  0.00    -0.201 NA
ATOM      4  C   LIG    1      -38.033  69.976  25.872  0.00  0.00    +0.323 A 
ATOM      5  N   LIG    1      -37.494  70.356  24.705  0.00  0.00    -0.201 NA
ATOM      6  C   LIG    1      -38.344  70.439  23.652  0.00  0.00    +0.145 A 
ENDROOT
BRANCH   1   8
ATOM      7  C   LIG    1      -41.519  70.957  22.427  0.00  0.00    +0.285 C 
ATOM      8  N   LIG    1      -40.581  70.091  22.595  0.00  0.00    -0.196 NA
BRANCH   7   9
ATOM      9  N   LIG    1      -41.994  71.989  23.188  0.00  0.00    -0.268 N 
ATOM     10  H   LIG    1      -42.875  71.841  23.664  0.00  0.00    +0.157 HD
BRANCH   9  12
ATOM     11  C   LIG    1      -42.131  74.460  23.069  0.00  0.00    +0.109 A 
ATOM     12  C   LIG    1      -41.467  73.270  23.440  0.00  0.00    +0.060 A 
ATOM     13  C   LIG    1      -40.219  73.417  24.077  0.00  0.00    +0.037 A 
ATOM     14  C   LIG    1      -39.657  74.683  24.345  0.00  0.00    +0.057 A 
ATOM     15  C   LIG    1      -40.362  75.835  23.982  0.00  0.00    +0.014 A 
ATOM     16  C   LIG    1      -41.597  75.720  23.367  0.00  0.00    +0.029 A 
BRANCH  11  18
ATOM     17  C   LIG    1      -44.890  74.181  23.523  0.00  0.00    +0.200 C 
ATOM     18  S   LIG    1      -43.702  74.491  22.228  0.00  0.00    -0.004 S 
ATOM     19  O   LIG    1      -43.913  75.853  21.736  0.00  0.00    -0.170 OA
ATOM     20  O   LIG    1      -43.713  73.385  21.322  0.00  0.00    -0.170 OA
ENDBRANCH  11  18
BRANCH  14  21
ATOM     21  C   LIG    1      -38.302  74.799  25.000  0.00  0.00    +0.417 C 
ATOM     22  F   LIG    1      -37.521  73.710  24.766  0.00  0.00    -0.166 F 
ATOM     23  F   LIG    1      -38.376  74.933  26.352  0.00  0.00    -0.166 F 
ATOM     24  F   LIG    1      -37.584  75.871  24.558  0.00  0.00    -0.166 F 
ENDBRANCH  14  21
ENDBRANCH   9  12
ENDBRANCH   7   9
BRANCH   7  25
ATOM     25  O   LIG    1      -42.201  70.765  21.282  0.00  0.00    -0.481 OA
ATOM     26  H   LIG    1      -41.774  70.014  20.834  0.00  0.00    +0.295 HD
ENDBRANCH   7  25
ENDBRANCH   1   8
BRANCH   4  27
ATOM     27  O   LIG    1      -37.121  69.787  26.910  0.00  0.00    -0.424 OA
BRANCH  27  28
ATOM     28  C   LIG    1      -36.243  70.787  27.261  0.00  0.00    +0.132 A 
ATOM     29  C   LIG    1      -34.865  70.634  27.328  0.00  0.00    +0.047 A 
ATOM     30  C   LIG    1      -34.044  71.705  27.682  0.00  0.00    +0.012 A 
ATOM     31  C   LIG    1      -34.556  72.958  28.064  0.00  0.00    -0.014 A 
ATOM     32  C   LIG    1      -35.959  73.077  28.055  0.00  0.00    +0.012 A 
ATOM     33  C   LIG    1      -36.790  72.011  27.653  0.00  0.00    +0.047 A 
BRANCH  31  34
ATOM     34  C   LIG    1      -33.622  74.049  28.476  0.00  0.00    +0.022 A 
ATOM     35  C   LIG    1      -32.748  74.000  29.576  0.00  0.00    +0.124 A 
ATOM     36  N   LIG    1      -31.921  75.012  29.927  0.00  0.00    -0.240 NA
ATOM     37  C   LIG    1      -31.957  76.149  29.202  0.00  0.00    +0.125 A 
ATOM     38  C   LIG    1      -32.779  76.335  28.113  0.00  0.00    +0.074 A 
ATOM     39  C   LIG    1      -33.597  75.261  27.747  0.00  0.00    +0.025 A 
BRANCH  38  40
ATOM     40  C   LIG    1      -32.769  77.643  27.386  0.00  0.00    +0.419 C 
ATOM     41  F   LIG    1      -32.050  78.597  28.038  0.00  0.00    -0.166 F 
ATOM     42  F   LIG    1      -34.020  78.159  27.232  0.00  0.00    -0.166 F 
ATOM     43  F   LIG    1      -32.243  77.568  26.133  0.00  0.00    -0.166 F 
ENDBRANCH  38  40
BRANCH  35  44
ATOM     44  N   LIG    1      -32.670  72.919  30.451  0.00  0.00    -0.343 N 
ATOM     45  H   LIG    1      -33.589  72.707  30.826  0.00  0.00    +0.144 HD
ATOM     46  H   LIG    1      -32.035  73.211  31.193  0.00  0.00    +0.144 HD
ENDBRANCH  35  44
ENDBRANCH  31  34
ENDBRANCH  27  28
ENDBRANCH   4  27
TORSDOF 11
ENDMDL
MODEL 6
REMARK VINA RESULT:      -5.6     18.057     20.826
REMARK  Name = pdb/CHEMBL3966864.pdb
REMARK                            x       y       z     vdW  Elec       q    Type
REMARK                         _______ _______ _______ _____ _____    ______ ____
ROOT
ATOM      1  C   LIG    1      -23.035  80.647  15.897  0.00  0.00    +0.105 A 
ATOM      2  C   LIG    1      -24.248  80.720  15.243  0.00  0.00    +0.145 A 
ATOM      3  N   LIG    1      -24.704  79.802  14.361  0.00  0.00    -0.201 NA
ATOM      4  C   LIG    1      -23.933  78.722  14.151  0.00  0.00    +0.323 A 
ATOM      5  N   LIG    1      -22.788  78.487  14.807  0.00  0.00    -0.201 NA
ATOM      6  C   LIG    1      -22.391  79.444  15.681  0.00  0.00    +0.145 A 
ENDROOT
BRANCH   1   8
ATOM      7  C   LIG    1      -22.614  82.942  16.354  0.00  0.00    +0.285 C 
ATOM      8  N   LIG    1      -22.613  81.706  16.720  0.00  0.00    -0.196 NA
BRANCH   7   9
ATOM      9  N   LIG    1      -22.873  83.571  15.168  0.00  0.00    -0.268 N 
ATOM     10  H   LIG    1      -23.722  83.307  14.684  0.00  0.00    +0.157 HD
BRANCH   9  12
ATOM     11  C   LIG    1      -21.037  84.250  13.650  0.00  0.00    +0.109 A 
ATOM     12  C   LIG    1      -22.148  84.553  14.466  0.00  0.00    +0.060 A 
ATOM     13  C   LIG    1      -22.508  85.912  14.563  0.00  0.00    +0.037 A 
ATOM     14  C   LIG    1      -21.806  86.925  13.876  0.00  0.00    +0.057 A 
ATOM     15  C   LIG    1      -20.726  86.576  13.060  0.00  0.00    +0.014 A 
ATOM     16  C   LIG    1      -20.360  85.246  12.935  0.00  0.00    +0.029 A 
BRANCH  11  18
ATOM     17  C   LIG    1      -19.156  82.789  12.158  0.00  0.00    +0.200 C 
ATOM     18  S   LIG    1      -20.404  82.600  13.419  0.00  0.00    -0.004 S 
ATOM     19  O   LIG    1      -19.737  82.205  14.661  0.00  0.00    -0.170 OA
ATOM     20  O   LIG    1      -21.473  81.813  12.891  0.00  0.00    -0.170 OA
ENDBRANCH  11  18
BRANCH  14  21
ATOM     21  C   LIG    1      -22.201  88.374  14.031  0.00  0.00    +0.417 C 
ATOM     22  F   LIG    1      -22.666  88.651  15.279  0.00  0.00    -0.166 F 
ATOM     23  F   LIG    1      -23.179  88.752  13.165  0.00  0.00    -0.166 F 
ATOM     24  F   LIG    1      -21.165  89.236  13.823  0.00  0.00    -0.166 F 
ENDBRANCH  14  21
ENDBRANCH   9  12
ENDBRANCH   7   9
BRANCH   7  25
ATOM     25  O   LIG    1      -22.228  83.772  17.340  0.00  0.00    -0.481 OA
ATOM     26  H   LIG    1      -22.718  84.602  17.205  0.00  0.00    +0.295 HD
ENDBRANCH   7  25
ENDBRANCH   1   8
BRANCH   4  27
ATOM     27  O   LIG    1      -24.259  77.780  13.176  0.00  0.00    -0.424 OA
BRANCH  27  28
ATOM     28  C   LIG    1      -24.903  76.613  13.520  0.00  0.00    +0.132 A 
ATOM     29  C   LIG    1      -24.268  75.392  13.707  0.00  0.00    +0.047 A 
ATOM     30  C   LIG    1      -24.996  74.257  14.067  0.00  0.00    +0.012 A 
ATOM     31  C   LIG    1      -26.397  74.260  14.178  0.00  0.00    -0.014 A 
ATOM     32  C   LIG    1      -27.032  75.490  13.918  0.00  0.00    +0.012 A 
ATOM     33  C   LIG    1      -26.296  76.651  13.601  0.00  0.00    +0.047 A 
BRANCH  31  34
ATOM     34  C   LIG    1      -27.118  72.997  14.522  0.00  0.00    +0.022 A 
ATOM     35  C   LIG    1      -27.699  72.114  13.596  0.00  0.00    +0.124 A 
ATOM     36  N   LIG    1      -28.354  70.982  13.942  0.00  0.00    -0.240 NA
ATOM     37  C   LIG    1      -28.491  70.697  15.254  0.00  0.00    +0.125 A 
ATOM     38  C   LIG    1      -27.987  71.487  16.264  0.00  0.00    +0.074 A 
ATOM     39  C   LIG    1      -27.281  72.632  15.879  0.00  0.00    +0.025 A 
BRANCH  38  40
ATOM     40  C   LIG    1      -28.212  71.105  17.692  0.00  0.00    +0.419 C 
ATOM     41  F   LIG    1      -28.824  72.089  18.406  0.00  0.00    -0.166 F 
ATOM     42  F   LIG    1      -27.048  70.838  18.347  0.00  0.00    -0.166 F 
ATOM     43  F   LIG    1      -28.986  69.995  17.846  0.00  0.00    -0.166 F 
ENDBRANCH  38  40
BRANCH  35  44
ATOM     44  N   LIG    1      -27.699  72.329  12.220  0.00  0.00    -0.343 N 
ATOM     45  H   LIG    1      -27.664  73.324  12.023  0.00  0.00    +0.144 HD
ATOM     46  H   LIG    1      -28.568  71.923  11.877  0.00  0.00    +0.144 HD
ENDBRANCH  35  44
ENDBRANCH  31  34
ENDBRANCH  27  28
ENDBRANCH   4  27
TORSDOF 11
ENDMDL
MODEL 7
REMARK VINA RESULT:      -5.5      5.135     10.810
REMARK  Name = pdb/CHEMBL3966864.pdb
REMARK                            x       y       z     vdW  Elec       q    Type
REMARK                         _______ _______ _______ _____ _____    ______ ____
ROOT
ATOM      1  C   LIG    1      -32.629  76.928  28.733  0.00  0.00    +0.105 A 
ATOM      2  C   LIG    1      -33.748  77.187  29.498  0.00  0.00    +0.145 A 
ATOM      3  N   LIG    1      -34.997  77.345  29.006  0.00  0.00    -0.201 NA
ATOM      4  C   LIG    1      -35.156  77.187  27.681  0.00  0.00    +0.323 A 
ATOM      5  N   LIG    1      -34.167  76.828  26.851  0.00  0.00    -0.201 NA
ATOM      6  C   LIG    1      -32.940  76.681  27.410  0.00  0.00    +0.145 A 
ENDROOT
BRANCH   1   8
ATOM      7  C   LIG    1      -31.000  75.974  30.177  0.00  0.00    +0.285 C 
ATOM      8  N   LIG    1      -31.359  76.880  29.335  0.00  0.00    -0.196 NA
BRANCH   7   9
ATOM      9  N   LIG    1      -31.662  74.949  30.795  0.00  0.00    -0.268 N 
ATOM     10  H   LIG    1      -31.979  75.113  31.742  0.00  0.00    +0.157 HD
BRANCH   9  12
ATOM     11  C   LIG    1      -31.292  72.500  30.744  0.00  0.00    +0.109 A 
ATOM     12  C   LIG    1      -31.993  73.658  30.342  0.00  0.00    +0.060 A 
ATOM     13  C   LIG    1      -33.057  73.468  29.438  0.00  0.00    +0.037 A 
ATOM     14  C   LIG    1      -33.418  72.191  28.961  0.00  0.00    +0.057 A 
ATOM     15  C   LIG    1      -32.710  71.070  29.405  0.00  0.00    +0.014 A 
ATOM     16  C   LIG    1      -31.669  71.225  30.304  0.00  0.00    +0.029 A 
BRANCH  11  18
ATOM     17  C   LIG    1      -29.399  70.818  31.964  0.00  0.00    +0.200 C 
ATOM     18  S   LIG    1      -29.898  72.528  31.855  0.00  0.00    -0.004 S 
ATOM     19  O   LIG    1      -28.823  73.273  31.197  0.00  0.00    -0.170 OA
ATOM     20  O   LIG    1      -30.389  72.943  33.131  0.00  0.00    -0.170 OA
ENDBRANCH  11  18
BRANCH  14  21
ATOM     21  C   LIG    1      -34.544  72.032  27.967  0.00  0.00    +0.417 C 
ATOM     22  F   LIG    1      -35.651  71.477  28.528  0.00  0.00    -0.166 F 
ATOM     23  F   LIG    1      -34.212  71.240  26.912  0.00  0.00    -0.166 F 
ATOM     24  F   LIG    1      -34.954  73.217  27.430  0.00  0.00    -0.166 F 
ENDBRANCH  14  21
ENDBRANCH   9  12
ENDBRANCH   7   9
BRANCH   7  25
ATOM     25  O   LIG    1      -29.717  76.106  30.561  0.00  0.00    -0.481 OA
ATOM     26  H   LIG    1      -29.482  75.278  31.015  0.00  0.00    +0.295 HD
ENDBRANCH   7  25
ENDBRANCH   1   8
BRANCH   4  27
ATOM     27  O   LIG    1      -36.380  77.444  27.064  0.00  0.00    -0.424 OA
BRANCH  27  28
ATOM     28  C   LIG    1      -37.058  76.439  26.412  0.00  0.00    +0.132 A 
ATOM     29  C   LIG    1      -37.490  76.512  25.094  0.00  0.00    +0.047 A 
ATOM     30  C   LIG    1      -38.162  75.441  24.503  0.00  0.00    +0.012 A 
ATOM     31  C   LIG    1      -38.509  74.280  25.215  0.00  0.00    -0.014 A 
ATOM     32  C   LIG    1      -38.124  74.250  26.569  0.00  0.00    +0.012 A 
ATOM     33  C   LIG    1      -37.403  75.310  27.157  0.00  0.00    +0.047 A 
BRANCH  31  34
ATOM     34  C   LIG    1      -39.271  73.190  24.533  0.00  0.00    +0.022 A 
ATOM     35  C   LIG    1      -38.850  71.853  24.417  0.00  0.00    +0.124 A 
ATOM     36  N   LIG    1      -39.561  70.892  23.783  0.00  0.00    -0.240 NA
ATOM     37  C   LIG    1      -40.726  71.238  23.197  0.00  0.00    +0.125 A 
ATOM     38  C   LIG    1      -41.242  72.515  23.219  0.00  0.00    +0.074 A 
ATOM     39  C   LIG    1      -40.508  73.483  23.913  0.00  0.00    +0.025 A 
BRANCH  38  40
ATOM     40  C   LIG    1      -42.529  72.811  22.517  0.00  0.00    +0.419 C 
ATOM     41  F   LIG    1      -42.787  74.145  22.440  0.00  0.00    -0.166 F 
ATOM     42  F   LIG    1      -43.603  72.260  23.147  0.00  0.00    -0.166 F 
ATOM     43  F   LIG    1      -42.573  72.347  21.237  0.00  0.00    -0.166 F 
ENDBRANCH  38  40
BRANCH  35  44
ATOM     44  N   LIG    1      -37.635  71.381  24.907  0.00  0.00    -0.343 N 
ATOM     45  H   LIG    1      -36.884  72.010  24.640  0.00  0.00    +0.144 HD
ATOM     46  H   LIG    1      -37.506  70.463  24.485  0.00  0.00    +0.144 HD
ENDBRANCH  35  44
ENDBRANCH  31  34
ENDBRANCH  27  28
ENDBRANCH   4  27
TORSDOF 11
ENDMDL
MODEL 8
REMARK VINA RESULT:      -5.5     17.692     21.493
REMARK  Name = pdb/CHEMBL3966864.pdb
REMARK                            x       y       z     vdW  Elec       q    Type
REMARK                         _______ _______ _______ _____ _____    ______ ____
ROOT
ATOM      1  C   LIG    1      -29.204  85.264  36.328  0.00  0.00    +0.105 A 
ATOM      2  C   LIG    1      -30.517  85.680  36.250  0.00  0.00    +0.145 A 
ATOM      3  N   LIG    1      -31.360  85.386  35.236  0.00  0.00    -0.201 NA
ATOM      4  C   LIG    1      -30.888  84.589  34.262  0.00  0.00    +0.323 A 
ATOM      5  N   LIG    1      -29.668  84.035  34.280  0.00  0.00    -0.201 NA
ATOM      6  C   LIG    1      -28.875  84.367  35.329  0.00  0.00    +0.145 A 
ENDROOT
BRANCH   1   8
ATOM      7  C   LIG    1      -27.489  86.628  37.250  0.00  0.00    +0.285 C 
ATOM      8  N   LIG    1      -28.383  85.709  37.379  0.00  0.00    -0.196 NA
BRANCH   7   9
ATOM      9  N   LIG    1      -27.001  87.320  36.177  0.00  0.00    -0.268 N 
ATOM     10  H   LIG    1      -26.152  86.969  35.752  0.00  0.00    +0.157 HD
BRANCH   9  12
ATOM     11  C   LIG    1      -26.965  89.767  35.793  0.00  0.00    +0.109 A 
ATOM     12  C   LIG    1      -27.475  88.477  35.530  0.00  0.00    +0.060 A 
ATOM     13  C   LIG    1      -28.512  88.391  34.580  0.00  0.00    +0.037 A 
ATOM     14  C   LIG    1      -29.015  89.528  33.912  0.00  0.00    +0.057 A 
ATOM     15  C   LIG    1      -28.463  90.782  34.187  0.00  0.00    +0.014 A 
ATOM     16  C   LIG    1      -27.433  90.895  35.106  0.00  0.00    +0.029 A 
BRANCH  11  18
ATOM     17  C   LIG    1      -25.472  91.866  36.917  0.00  0.00    +0.200 C 
ATOM     18  S   LIG    1      -25.676  90.095  36.980  0.00  0.00    -0.004 S 
ATOM     19  O   LIG    1      -26.196  89.745  38.304  0.00  0.00    -0.170 OA
ATOM     20  O   LIG    1      -24.486  89.478  36.485  0.00  0.00    -0.170 OA
ENDBRANCH  11  18
BRANCH  14  21
ATOM     21  C   LIG    1      -30.149  89.398  32.924  0.00  0.00    +0.417 C 
ATOM     22  F   LIG    1      -31.169  88.638  33.406  0.00  0.00    -0.166 F 
ATOM     23  F   LIG    1      -29.767  88.827  31.750  0.00  0.00    -0.166 F 
ATOM     24  F   LIG    1      -30.707  90.598  32.591  0.00  0.00    -0.166 F 
ENDBRANCH  14  21
ENDBRANCH   9  12
ENDBRANCH   7   9
BRANCH   7  25
ATOM     25  O   LIG    1      -26.881  86.923  38.414  0.00  0.00    -0.481 OA
ATOM     26  H   LIG    1      -26.230  86.217  38.568  0.00  0.00    +0.295 HD
ENDBRANCH   7  25
ENDBRANCH   1   8
BRANCH   4  27
ATOM     27  O   LIG    1      -31.640  84.324  33.117  0.00  0.00    -0.424 OA
BRANCH  27  28
ATOM     28  C   LIG    1      -31.961  85.337  32.243  0.00  0.00    +0.132 A 
ATOM     29  C   LIG    1      -31.156  85.749  31.189  0.00  0.00    +0.047 A 
ATOM     30  C   LIG    1      -31.563  86.778  30.339  0.00  0.00    +0.012 A 
ATOM     31  C   LIG    1      -32.751  87.503  30.543  0.00  0.00    -0.014 A 
ATOM     32  C   LIG    1      -33.523  87.118  31.656  0.00  0.00    +0.012 A 
ATOM     33  C   LIG    1      -33.138  86.046  32.489  0.00  0.00    +0.047 A 
BRANCH  31  34
ATOM     34  C   LIG    1      -33.104  88.625  29.622  0.00  0.00    +0.022 A 
ATOM     35  C   LIG    1      -33.865  88.504  28.446  0.00  0.00    +0.124 A 
ATOM     36  N   LIG    1      -34.158  89.541  27.628  0.00  0.00    -0.240 NA
ATOM     37  C   LIG    1      -33.667  90.759  27.937  0.00  0.00    +0.125 A 
ATOM     38  C   LIG    1      -32.893  91.011  29.048  0.00  0.00    +0.074 A 
ATOM     39  C   LIG    1      -32.634  89.931  29.898  0.00  0.00    +0.025 A 
BRANCH  38  40
ATOM     40  C   LIG    1      -32.368  92.390  29.293  0.00  0.00    +0.419 C 
ATOM     41  F   LIG    1      -33.215  93.145  30.045  0.00  0.00    -0.166 F 
ATOM     42  F   LIG    1      -32.176  93.085  28.138  0.00  0.00    -0.166 F 
ATOM     43  F   LIG    1      -31.171  92.413  29.941  0.00  0.00    -0.166 F 
ENDBRANCH  38  40
BRANCH  35  44
ATOM     44  N   LIG    1      -34.365  87.293  27.972  0.00  0.00    -0.343 N 
ATOM     45  H   LIG    1      -33.808  86.523  28.329  0.00  0.00    +0.144 HD
ATOM     46  H   LIG    1      -34.300  87.347  26.957  0.00  0.00    +0.144 HD
ENDBRANCH  35  44
ENDBRANCH  31  34
ENDBRANCH  27  28
ENDBRANCH   4  27
TORSDOF 11
ENDMDL
MODEL 9
REMARK VINA RESULT:      -5.5      3.143      5.596
REMARK  Name = pdb/CHEMBL3966864.pdb
REMARK                            x       y       z     vdW  Elec       q    Type
REMARK                         _______ _______ _______ _____ _____    ______ ____
ROOT
ATOM      1  C   LIG    1      -43.683  74.288  23.781  0.00  0.00    +0.105 A 
ATOM      2  C   LIG    1      -43.287  74.299  25.103  0.00  0.00    +0.145 A 
ATOM      3  N   LIG    1      -42.538  75.268  25.675  0.00  0.00    -0.201 NA
ATOM      4  C   LIG    1      -42.202  76.315  24.903  0.00  0.00    +0.323 A 
ATOM      5  N   LIG    1      -42.618  76.470  23.639  0.00  0.00    -0.201 NA
ATOM      6  C   LIG    1      -43.371  75.465  23.128  0.00  0.00    +0.145 A 
ENDROOT
BRANCH   1   8
ATOM      7  C   LIG    1      -43.823  72.251  22.564  0.00  0.00    +0.285 C 
ATOM      8  N   LIG    1      -44.378  73.182  23.262  0.00  0.00    -0.196 NA
BRANCH   7   9
ATOM      9  N   LIG    1      -42.568  72.084  22.049  0.00  0.00    -0.268 N 
ATOM     10  H   LIG    1      -42.415  72.402  21.100  0.00  0.00    +0.157 HD
BRANCH   9  12
ATOM     11  C   LIG    1      -40.935  70.236  22.284  0.00  0.00    +0.109 A 
ATOM     12  C   LIG    1      -41.405  71.526  22.613  0.00  0.00    +0.060 A 
ATOM     13  C   LIG    1      -40.652  72.249  23.560  0.00  0.00    +0.037 A 
ATOM     14  C   LIG    1      -39.482  71.723  24.148  0.00  0.00    +0.057 A 
ATOM     15  C   LIG    1      -39.041  70.450  23.774  0.00  0.00    +0.014 A 
ATOM     16  C   LIG    1      -39.753  69.724  22.834  0.00  0.00    +0.029 A 
BRANCH  11  18
ATOM     17  C   LIG    1      -42.915  68.246  22.146  0.00  0.00    +0.200 C 
ATOM     18  S   LIG    1      -41.757  69.151  21.133  0.00  0.00    -0.004 S 
ATOM     19  O   LIG    1      -42.523  69.988  20.207  0.00  0.00    -0.170 OA
ATOM     20  O   LIG    1      -40.772  68.241  20.640  0.00  0.00    -0.170 OA
ENDBRANCH  11  18
BRANCH  14  21
ATOM     21  C   LIG    1      -38.721  72.515  25.184  0.00  0.00    +0.417 C 
ATOM     22  F   LIG    1      -39.497  73.453  25.788  0.00  0.00    -0.166 F 
ATOM     23  F   LIG    1      -37.653  73.179  24.663  0.00  0.00    -0.166 F 
ATOM     24  F   LIG    1      -38.224  71.740  26.190  0.00  0.00    -0.166 F 
ENDBRANCH  14  21
ENDBRANCH   9  12
ENDBRANCH   7   9
BRANCH   7  25
ATOM     25  O   LIG    1      -44.683  71.269  22.238  0.00  0.00    -0.481 OA
ATOM     26  H   LIG    1      -44.141  70.527  21.917  0.00  0.00    +0.295 HD
ENDBRANCH   7  25
ENDBRANCH   1   8
BRANCH   4  27
ATOM     27  O   LIG    1      -41.337  77.306  25.366  0.00  0.00    -0.424 OA
BRANCH  27  28
ATOM     28  C   LIG    1      -40.083  76.978  25.830  0.00  0.00    +0.132 A 
ATOM     29  C   LIG    1      -39.688  77.072  27.158  0.00  0.00    +0.047 A 
ATOM     30  C   LIG    1      -38.398  76.707  27.547  0.00  0.00    +0.012 A 
ATOM     31  C   LIG    1      -37.414  76.309  26.625  0.00  0.00    -0.014 A 
ATOM     32  C   LIG    1      -37.810  76.284  25.275  0.00  0.00    +0.012 A 
ATOM     33  C   LIG    1      -39.127  76.606  24.883  0.00  0.00    +0.047 A 
BRANCH  31  34
ATOM     34  C   LIG    1      -36.038  75.976  27.104  0.00  0.00    +0.022 A 
ATOM     35  C   LIG    1      -35.669  74.787  27.756  0.00  0.00    +0.124 A 
ATOM     36  N   LIG    1      -34.414  74.522  28.186  0.00  0.00    -0.240 NA
ATOM     37  C   LIG    1      -33.464  75.465  28.012  0.00  0.00    +0.125 A 
ATOM     38  C   LIG    1      -33.697  76.680  27.407  0.00  0.00    +0.074 A 
ATOM     39  C   LIG    1      -34.993  76.915  26.937  0.00  0.00    +0.025 A 
BRANCH  38  40
ATOM     40  C   LIG    1      -32.588  77.676  27.285  0.00  0.00    +0.419 C 
ATOM     41  F   LIG    1      -31.749  77.398  26.249  0.00  0.00    -0.166 F 
ATOM     42  F   LIG    1      -31.804  77.719  28.398  0.00  0.00    -0.166 F 
ATOM     43  F   LIG    1      -33.018  78.953  27.086  0.00  0.00    -0.166 F 
ENDBRANCH  38  40
BRANCH  35  44
ATOM     44  N   LIG    1      -36.565  73.767  28.067  0.00  0.00    -0.343 N 
ATOM     45  H   LIG    1      -36.343  72.933  27.533  0.00  0.00    +0.144 HD
ATOM     46  H   LIG    1      -37.486  74.124  27.816  0.00  0.00    +0.144 HD
ENDBRANCH  35  44
ENDBRANCH  31  34
ENDBRANCH  27  28
ENDBRANCH   4  27
TORSDOF 11
ENDMDL
