MODEL 1
REMARK VINA RESULT:      -7.2      0.000      0.000
REMARK  Name = pdb/CHEMBL3909331.pdb
REMARK                            x       y       z     vdW  Elec       q    Type
REMARK                         _______ _______ _______ _____ _____    ______ ____
ROOT
ATOM      1  C   LIG    1      -36.138  66.772  19.230  0.00  0.00    +0.323 A 
ATOM      2  N   LIG    1      -36.765  67.920  18.921  0.00  0.00    -0.201 NA
ATOM      3  C   LIG    1      -37.501  68.489  19.895  0.00  0.00    +0.145 A 
ATOM      4  C   LIG    1      -37.723  67.931  21.136  0.00  0.00    +0.105 A 
ATOM      5  C   LIG    1      -37.085  66.709  21.298  0.00  0.00    +0.145 A 
ATOM      6  N   LIG    1      -36.287  66.107  20.383  0.00  0.00    -0.201 NA
ENDROOT
BRANCH   4   7
ATOM      7  N   LIG    1      -38.494  68.448  22.191  0.00  0.00    -0.196 NA
ATOM      8  C   LIG    1      -38.061  69.324  23.024  0.00  0.00    +0.285 C 
BRANCH   8   9
ATOM      9  N   LIG    1      -38.862  69.878  23.979  0.00  0.00    -0.269 N 
ATOM     10  H   LIG    1      -39.551  69.201  24.298  0.00  0.00    +0.157 HD
BRANCH   9  11
ATOM     11  C   LIG    1      -39.431  71.174  23.903  0.00  0.00    +0.043 A 
ATOM     12  C   LIG    1      -40.687  71.499  23.319  0.00  0.00    +0.005 A 
ATOM     13  C   LIG    1      -41.078  72.859  23.413  0.00  0.00    +0.011 A 
ATOM     14  C   LIG    1      -40.293  73.838  24.036  0.00  0.00    +0.013 A 
ATOM     15  C   LIG    1      -39.077  73.501  24.624  0.00  0.00    +0.057 A 
ATOM     16  C   LIG    1      -38.671  72.167  24.565  0.00  0.00    +0.036 A 
BRANCH  12  17
ATOM     17  C   LIG    1      -41.612  70.545  22.627  0.00  0.00    +0.002 A 
ATOM     18  C   LIG    1      -41.493  70.258  21.257  0.00  0.00    +0.119 A 
ATOM     19  N   LIG    1      -42.296  69.430  20.537  0.00  0.00    -0.263 NA
ATOM     20  C   LIG    1      -43.278  68.806  21.209  0.00  0.00    +0.111 A 
ATOM     21  C   LIG    1      -43.503  68.997  22.557  0.00  0.00    +0.020 A 
ATOM     22  C   LIG    1      -42.683  69.893  23.252  0.00  0.00    +0.011 A 
ENDBRANCH  12  17
BRANCH  15  23
ATOM     23  C   LIG    1      -38.229  74.545  25.308  0.00  0.00    +0.417 C 
ATOM     24  F   LIG    1      -37.356  74.001  26.200  0.00  0.00    -0.166 F 
ATOM     25  F   LIG    1      -38.975  75.442  26.009  0.00  0.00    -0.166 F 
ATOM     26  F   LIG    1      -37.474  75.280  24.446  0.00  0.00    -0.166 F 
ENDBRANCH  15  23
ENDBRANCH   9  11
ENDBRANCH   8   9
BRANCH   8  27
ATOM     27  O   LIG    1      -36.793  69.768  23.066  0.00  0.00    -0.481 OA
ATOM     28  H   LIG    1      -36.191  69.118  22.675  0.00  0.00    +0.295 HD
ENDBRANCH   8  27
ENDBRANCH   4   7
BRANCH   1  29
ATOM     29  O   LIG    1      -35.186  66.269  18.348  0.00  0.00    -0.424 OA
BRANCH  29  33
ATOM     30  C   LIG    1      -31.433  68.217  18.329  0.00  0.00    -0.014 A 
ATOM     31  C   LIG    1      -31.816  67.394  19.404  0.00  0.00    +0.012 A 
ATOM     32  C   LIG    1      -33.016  66.686  19.398  0.00  0.00    +0.047 A 
ATOM     33  C   LIG    1      -33.939  66.858  18.367  0.00  0.00    +0.132 A 
ATOM     34  C   LIG    1      -33.579  67.636  17.273  0.00  0.00    +0.047 A 
ATOM     35  C   LIG    1      -32.334  68.288  17.248  0.00  0.00    +0.012 A 
BRANCH  30  37
ATOM     36  C   LIG    1      -29.970  70.338  18.394  0.00  0.00    +0.124 A 
ATOM     37  C   LIG    1      -30.126  68.934  18.359  0.00  0.00    +0.024 A 
ATOM     38  C   LIG    1      -28.925  68.192  18.376  0.00  0.00    +0.051 A 
ATOM     39  C   LIG    1      -27.694  68.826  18.431  0.00  0.00    +0.142 A 
ATOM     40  F   LIG    1      -26.566  68.107  18.474  0.00  0.00    -0.204 F 
ATOM     41  C   LIG    1      -27.661  70.200  18.444  0.00  0.00    +0.151 A 
ATOM     42  N   LIG    1      -28.770  70.968  18.420  0.00  0.00    -0.237 NA
BRANCH  36  43
ATOM     43  N   LIG    1      -31.044  71.225  18.409  0.00  0.00    -0.343 N 
ATOM     44  H   LIG    1      -31.744  70.958  17.723  0.00  0.00    +0.144 HD
ATOM     45  H   LIG    1      -31.418  71.211  19.355  0.00  0.00    +0.144 HD
ENDBRANCH  36  43
ENDBRANCH  30  37
ENDBRANCH  29  33
ENDBRANCH   1  29
TORSDOF 10
ENDMDL
MODEL 2
REMARK VINA RESULT:      -7.0     18.351     21.581
REMARK  Name = pdb/CHEMBL3909331.pdb
REMARK                            x       y       z     vdW  Elec       q    Type
REMARK                         _______ _______ _______ _____ _____    ______ ____
ROOT
ATOM      1  C   LIG    1      -26.303  82.129  37.282  0.00  0.00    +0.323 A 
ATOM      2  N   LIG    1      -27.586  81.821  37.534  0.00  0.00    -0.201 NA
ATOM      3  C   LIG    1      -28.514  82.701  37.109  0.00  0.00    +0.145 A 
ATOM      4  C   LIG    1      -28.229  83.917  36.526  0.00  0.00    +0.105 A 
ATOM      5  C   LIG    1      -26.867  84.147  36.397  0.00  0.00    +0.145 A 
ATOM      6  N   LIG    1      -25.883  83.285  36.751  0.00  0.00    -0.201 NA
ENDROOT
BRANCH   4   7
ATOM      7  N   LIG    1      -29.135  84.895  36.081  0.00  0.00    -0.196 NA
ATOM      8  C   LIG    1      -29.676  84.884  34.916  0.00  0.00    +0.285 C 
BRANCH   8   9
ATOM      9  N   LIG    1      -30.625  85.792  34.546  0.00  0.00    -0.269 N 
ATOM     10  H   LIG    1      -31.554  85.391  34.646  0.00  0.00    +0.157 HD
BRANCH   9  11
ATOM     11  C   LIG    1      -30.554  86.609  33.391  0.00  0.00    +0.043 A 
ATOM     12  C   LIG    1      -29.622  87.662  33.170  0.00  0.00    +0.005 A 
ATOM     13  C   LIG    1      -29.703  88.305  31.909  0.00  0.00    +0.011 A 
ATOM     14  C   LIG    1      -30.634  87.944  30.926  0.00  0.00    +0.013 A 
ATOM     15  C   LIG    1      -31.525  86.897  31.147  0.00  0.00    +0.057 A 
ATOM     16  C   LIG    1      -31.460  86.231  32.371  0.00  0.00    +0.036 A 
BRANCH  12  17
ATOM     17  C   LIG    1      -28.583  88.138  34.140  0.00  0.00    +0.002 A 
ATOM     18  C   LIG    1      -27.434  87.384  34.425  0.00  0.00    +0.119 A 
ATOM     19  N   LIG    1      -26.451  87.718  35.305  0.00  0.00    -0.263 NA
ATOM     20  C   LIG    1      -26.583  88.895  35.939  0.00  0.00    +0.111 A 
ATOM     21  C   LIG    1      -27.663  89.733  35.748  0.00  0.00    +0.020 A 
ATOM     22  C   LIG    1      -28.675  89.331  34.869  0.00  0.00    +0.011 A 
ENDBRANCH  12  17
BRANCH  15  23
ATOM     23  C   LIG    1      -32.524  86.492  30.091  0.00  0.00    +0.417 C 
ATOM     24  F   LIG    1      -32.098  85.429  29.354  0.00  0.00    -0.166 F 
ATOM     25  F   LIG    1      -32.776  87.491  29.203  0.00  0.00    -0.166 F 
ATOM     26  F   LIG    1      -33.735  86.132  30.601  0.00  0.00    -0.166 F 
ENDBRANCH  15  23
ENDBRANCH   9  11
ENDBRANCH   8   9
BRANCH   8  27
ATOM     27  O   LIG    1      -29.361  84.013  33.943  0.00  0.00    -0.481 OA
ATOM     28  H   LIG    1      -29.405  83.103  34.273  0.00  0.00    +0.295 HD
ENDBRANCH   8  27
ENDBRANCH   4   7
BRANCH   1  29
ATOM     29  O   LIG    1      -25.328  81.157  37.487  0.00  0.00    -0.424 OA
BRANCH  29  33
ATOM     30  C   LIG    1      -23.959  78.913  34.174  0.00  0.00    -0.014 A 
ATOM     31  C   LIG    1      -25.146  78.565  34.843  0.00  0.00    +0.012 A 
ATOM     32  C   LIG    1      -25.654  79.332  35.891  0.00  0.00    +0.047 A 
ATOM     33  C   LIG    1      -24.936  80.418  36.389  0.00  0.00    +0.132 A 
ATOM     34  C   LIG    1      -23.777  80.811  35.731  0.00  0.00    +0.047 A 
ATOM     35  C   LIG    1      -23.309  80.079  34.626  0.00  0.00    +0.012 A 
BRANCH  30  37
ATOM     36  C   LIG    1      -22.306  77.277  33.063  0.00  0.00    +0.124 A 
ATOM     37  C   LIG    1      -23.466  78.084  33.037  0.00  0.00    +0.024 A 
ATOM     38  C   LIG    1      -24.194  78.057  31.828  0.00  0.00    +0.051 A 
ATOM     39  C   LIG    1      -23.779  77.277  30.761  0.00  0.00    +0.142 A 
ATOM     40  F   LIG    1      -24.495  77.240  29.631  0.00  0.00    -0.204 F 
ATOM     41  C   LIG    1      -22.623  76.543  30.891  0.00  0.00    +0.151 A 
ATOM     42  N   LIG    1      -21.877  76.532  32.016  0.00  0.00    -0.237 NA
BRANCH  36  43
ATOM     43  N   LIG    1      -21.482  77.163  34.180  0.00  0.00    -0.343 N 
ATOM     44  H   LIG    1      -21.579  77.970  34.787  0.00  0.00    +0.144 HD
ATOM     45  H   LIG    1      -21.749  76.301  34.651  0.00  0.00    +0.144 HD
ENDBRANCH  36  43
ENDBRANCH  30  37
ENDBRANCH  29  33
ENDBRANCH   1  29
TORSDOF 10
ENDMDL
MODEL 3
REMARK VINA RESULT:      -6.9      1.884      2.214
REMARK  Name = pdb/CHEMBL3909331.pdb
REMARK                            x       y       z     vdW  Elec       q    Type
REMARK                         _______ _______ _______ _____ _____    ______ ____
ROOT
ATOM      1  C   LIG    1      -36.569  66.850  19.572  0.00  0.00    +0.323 A 
ATOM      2  N   LIG    1      -36.884  68.097  19.186  0.00  0.00    -0.201 NA
ATOM      3  C   LIG    1      -37.573  68.848  20.067  0.00  0.00    +0.145 A 
ATOM      4  C   LIG    1      -38.047  68.394  21.279  0.00  0.00    +0.105 A 
ATOM      5  C   LIG    1      -37.723  67.067  21.521  0.00  0.00    +0.145 A 
ATOM      6  N   LIG    1      -36.988  66.272  20.706  0.00  0.00    -0.201 NA
ENDROOT
BRANCH   4   7
ATOM      7  N   LIG    1      -38.791  69.105  22.237  0.00  0.00    -0.196 NA
ATOM      8  C   LIG    1      -39.977  69.549  22.029  0.00  0.00    +0.285 C 
BRANCH   8   9
ATOM      9  N   LIG    1      -40.711  70.151  23.009  0.00  0.00    -0.269 N 
ATOM     10  H   LIG    1      -41.648  69.755  23.042  0.00  0.00    +0.157 HD
BRANCH   9  11
ATOM     11  C   LIG    1      -40.750  71.547  23.248  0.00  0.00    +0.043 A 
ATOM     12  C   LIG    1      -41.790  72.432  22.850  0.00  0.00    +0.005 A 
ATOM     13  C   LIG    1      -41.639  73.783  23.252  0.00  0.00    +0.011 A 
ATOM     14  C   LIG    1      -40.543  74.241  23.996  0.00  0.00    +0.013 A 
ATOM     15  C   LIG    1      -39.544  73.359  24.398  0.00  0.00    +0.057 A 
ATOM     16  C   LIG    1      -39.671  72.018  24.034  0.00  0.00    +0.036 A 
BRANCH  12  17
ATOM     17  C   LIG    1      -43.006  72.063  22.056  0.00  0.00    +0.002 A 
ATOM     18  C   LIG    1      -44.197  71.649  22.674  0.00  0.00    +0.119 A 
ATOM     19  N   LIG    1      -45.341  71.271  22.042  0.00  0.00    -0.263 NA
ATOM     20  C   LIG    1      -45.336  71.328  20.699  0.00  0.00    +0.111 A 
ATOM     21  C   LIG    1      -44.232  71.720  19.969  0.00  0.00    +0.020 A 
ATOM     22  C   LIG    1      -43.061  72.057  20.656  0.00  0.00    +0.011 A 
ENDBRANCH  12  17
BRANCH  15  23
ATOM     23  C   LIG    1      -38.365  73.839  25.209  0.00  0.00    +0.417 C 
ATOM     24  F   LIG    1      -37.743  74.907  24.640  0.00  0.00    -0.166 F 
ATOM     25  F   LIG    1      -37.411  72.880  25.357  0.00  0.00    -0.166 F 
ATOM     26  F   LIG    1      -38.700  74.229  26.470  0.00  0.00    -0.166 F 
ENDBRANCH  15  23
ENDBRANCH   9  11
ENDBRANCH   8   9
BRANCH   8  27
ATOM     27  O   LIG    1      -40.609  69.496  20.844  0.00  0.00    -0.481 OA
ATOM     28  H   LIG    1      -41.535  69.233  20.964  0.00  0.00    +0.295 HD
ENDBRANCH   8  27
ENDBRANCH   4   7
BRANCH   1  29
ATOM     29  O   LIG    1      -35.666  66.118  18.807  0.00  0.00    -0.424 OA
BRANCH  29  33
ATOM     30  C   LIG    1      -31.772  67.734  18.480  0.00  0.00    -0.014 A 
ATOM     31  C   LIG    1      -32.166  67.022  19.627  0.00  0.00    +0.012 A 
ATOM     32  C   LIG    1      -33.419  66.419  19.726  0.00  0.00    +0.047 A 
ATOM     33  C   LIG    1      -34.375  66.599  18.727  0.00  0.00    +0.132 A 
ATOM     34  C   LIG    1      -34.009  67.267  17.565  0.00  0.00    +0.047 A 
ATOM     35  C   LIG    1      -32.718  67.808  17.439  0.00  0.00    +0.012 A 
BRANCH  30  37
ATOM     36  C   LIG    1      -29.232  67.641  18.054  0.00  0.00    +0.124 A 
ATOM     37  C   LIG    1      -30.411  68.338  18.401  0.00  0.00    +0.024 A 
ATOM     38  C   LIG    1      -30.243  69.715  18.665  0.00  0.00    +0.051 A 
ATOM     39  C   LIG    1      -28.997  70.313  18.575  0.00  0.00    +0.142 A 
ATOM     40  F   LIG    1      -28.860  71.625  18.802  0.00  0.00    -0.204 F 
ATOM     41  C   LIG    1      -27.914  69.533  18.245  0.00  0.00    +0.151 A 
ATOM     42  N   LIG    1      -28.005  68.211  17.990  0.00  0.00    -0.237 NA
BRANCH  36  43
ATOM     43  N   LIG    1      -29.213  66.285  17.737  0.00  0.00    -0.343 N 
ATOM     44  H   LIG    1      -28.553  66.096  16.990  0.00  0.00    +0.144 HD
ATOM     45  H   LIG    1      -28.968  65.790  18.593  0.00  0.00    +0.144 HD
ENDBRANCH  36  43
ENDBRANCH  30  37
ENDBRANCH  29  33
ENDBRANCH   1  29
TORSDOF 10
ENDMDL
MODEL 4
REMARK VINA RESULT:      -6.8      2.306      3.502
REMARK  Name = pdb/CHEMBL3909331.pdb
REMARK                            x       y       z     vdW  Elec       q    Type
REMARK                         _______ _______ _______ _____ _____    ______ ____
ROOT
ATOM      1  C   LIG    1      -36.062  66.758  19.133  0.00  0.00    +0.323 A 
ATOM      2  N   LIG    1      -36.674  67.884  18.731  0.00  0.00    -0.201 NA
ATOM      3  C   LIG    1      -37.456  68.504  19.636  0.00  0.00    +0.145 A 
ATOM      4  C   LIG    1      -37.736  68.015  20.894  0.00  0.00    +0.105 A 
ATOM      5  C   LIG    1      -37.105  66.807  21.154  0.00  0.00    +0.145 A 
ATOM      6  N   LIG    1      -36.264  66.157  20.313  0.00  0.00    -0.201 NA
ENDROOT
BRANCH   4   7
ATOM      7  N   LIG    1      -38.556  68.587  21.881  0.00  0.00    -0.196 NA
ATOM      8  C   LIG    1      -39.805  68.832  21.713  0.00  0.00    +0.285 C 
BRANCH   8   9
ATOM      9  N   LIG    1      -40.598  69.298  22.721  0.00  0.00    -0.269 N 
ATOM     10  H   LIG    1      -41.510  68.849  22.689  0.00  0.00    +0.157 HD
BRANCH   9  11
ATOM     11  C   LIG    1      -40.724  70.662  23.084  0.00  0.00    +0.043 A 
ATOM     12  C   LIG    1      -39.823  71.391  23.910  0.00  0.00    +0.005 A 
ATOM     13  C   LIG    1      -40.123  72.765  24.088  0.00  0.00    +0.011 A 
ATOM     14  C   LIG    1      -41.232  73.388  23.499  0.00  0.00    +0.013 A 
ATOM     15  C   LIG    1      -42.092  72.667  22.675  0.00  0.00    +0.057 A 
ATOM     16  C   LIG    1      -41.814  71.316  22.463  0.00  0.00    +0.036 A 
BRANCH  12  17
ATOM     17  C   LIG    1      -38.609  70.839  24.593  0.00  0.00    +0.002 A 
ATOM     18  C   LIG    1      -37.319  71.316  24.313  0.00  0.00    +0.119 A 
ATOM     19  N   LIG    1      -36.158  70.864  24.859  0.00  0.00    -0.263 NA
ATOM     20  C   LIG    1      -36.262  69.887  25.776  0.00  0.00    +0.111 A 
ATOM     21  C   LIG    1      -37.471  69.331  26.144  0.00  0.00    +0.020 A 
ATOM     22  C   LIG    1      -38.637  69.793  25.525  0.00  0.00    +0.011 A 
ENDBRANCH  12  17
BRANCH  15  23
ATOM     23  C   LIG    1      -43.281  73.330  22.025  0.00  0.00    +0.417 C 
ATOM     24  F   LIG    1      -44.454  73.003  22.633  0.00  0.00    -0.166 F 
ATOM     25  F   LIG    1      -43.422  72.980  20.718  0.00  0.00    -0.166 F 
ATOM     26  F   LIG    1      -43.218  74.690  22.041  0.00  0.00    -0.166 F 
ENDBRANCH  15  23
ENDBRANCH   9  11
ENDBRANCH   8   9
BRANCH   8  27
ATOM     27  O   LIG    1      -40.456  68.683  20.546  0.00  0.00    -0.481 OA
ATOM     28  H   LIG    1      -40.431  67.758  20.258  0.00  0.00    +0.295 HD
ENDBRANCH   8  27
ENDBRANCH   4   7
BRANCH   1  29
ATOM     29  O   LIG    1      -35.068  66.210  18.326  0.00  0.00    -0.424 OA
BRANCH  29  33
ATOM     30  C   LIG    1      -31.369  68.259  18.286  0.00  0.00    -0.014 A 
ATOM     31  C   LIG    1      -31.703  67.389  19.340  0.00  0.00    +0.012 A 
ATOM     32  C   LIG    1      -32.885  66.649  19.338  0.00  0.00    +0.047 A 
ATOM     33  C   LIG    1      -33.837  66.832  18.336  0.00  0.00    +0.132 A 
ATOM     34  C   LIG    1      -33.525  67.657  17.262  0.00  0.00    +0.047 A 
ATOM     35  C   LIG    1      -32.299  68.343  17.230  0.00  0.00    +0.012 A 
BRANCH  30  37
ATOM     36  C   LIG    1      -29.962  70.417  18.353  0.00  0.00    +0.124 A 
ATOM     37  C   LIG    1      -30.081  69.010  18.310  0.00  0.00    +0.024 A 
ATOM     38  C   LIG    1      -28.861  68.299  18.313  0.00  0.00    +0.051 A 
ATOM     39  C   LIG    1      -27.647  68.964  18.362  0.00  0.00    +0.142 A 
ATOM     40  F   LIG    1      -26.500  68.275  18.391  0.00  0.00    -0.204 F 
ATOM     41  C   LIG    1      -27.649  70.339  18.383  0.00  0.00    +0.151 A 
ATOM     42  N   LIG    1      -28.779  71.077  18.373  0.00  0.00    -0.237 NA
BRANCH  36  43
ATOM     43  N   LIG    1      -31.059  71.275  18.381  0.00  0.00    -0.343 N 
ATOM     44  H   LIG    1      -30.885  72.065  18.994  0.00  0.00    +0.144 HD
ATOM     45  H   LIG    1      -31.221  71.571  17.421  0.00  0.00    +0.144 HD
ENDBRANCH  36  43
ENDBRANCH  30  37
ENDBRANCH  29  33
ENDBRANCH   1  29
TORSDOF 10
ENDMDL
MODEL 5
REMARK VINA RESULT:      -6.6     15.312     19.744
REMARK  Name = pdb/CHEMBL3909331.pdb
REMARK                            x       y       z     vdW  Elec       q    Type
REMARK                         _______ _______ _______ _____ _____    ______ ____
ROOT
ATOM      1  C   LIG    1      -28.421  77.217  32.424  0.00  0.00    +0.323 A 
ATOM      2  N   LIG    1      -27.537  77.145  31.415  0.00  0.00    -0.201 NA
ATOM      3  C   LIG    1      -26.240  77.017  31.755  0.00  0.00    +0.145 A 
ATOM      4  C   LIG    1      -25.764  77.047  33.049  0.00  0.00    +0.105 A 
ATOM      5  C   LIG    1      -26.771  77.205  33.990  0.00  0.00    +0.145 A 
ATOM      6  N   LIG    1      -28.098  77.285  33.722  0.00  0.00    -0.201 NA
ENDROOT
BRANCH   4   7
ATOM      7  N   LIG    1      -24.431  76.943  33.482  0.00  0.00    -0.196 NA
ATOM      8  C   LIG    1      -23.677  77.958  33.708  0.00  0.00    +0.285 C 
BRANCH   8   9
ATOM      9  N   LIG    1      -22.418  77.830  34.220  0.00  0.00    -0.269 N 
ATOM     10  H   LIG    1      -22.376  78.228  35.155  0.00  0.00    +0.157 HD
BRANCH   9  11
ATOM     11  C   LIG    1      -21.225  78.100  33.506  0.00  0.00    +0.043 A 
ATOM     12  C   LIG    1      -20.194  78.993  33.913  0.00  0.00    +0.005 A 
ATOM     13  C   LIG    1      -19.061  79.056  33.063  0.00  0.00    +0.011 A 
ATOM     14  C   LIG    1      -18.942  78.298  31.891  0.00  0.00    +0.013 A 
ATOM     15  C   LIG    1      -19.948  77.411  31.517  0.00  0.00    +0.057 A 
ATOM     16  C   LIG    1      -21.070  77.311  32.342  0.00  0.00    +0.036 A 
BRANCH  12  17
ATOM     17  C   LIG    1      -20.206  79.854  35.139  0.00  0.00    +0.002 A 
ATOM     18  C   LIG    1      -21.042  80.977  35.248  0.00  0.00    +0.119 A 
ATOM     19  N   LIG    1      -21.106  81.832  36.305  0.00  0.00    -0.263 NA
ATOM     20  C   LIG    1      -20.314  81.554  37.355  0.00  0.00    +0.111 A 
ATOM     21  C   LIG    1      -19.447  80.480  37.377  0.00  0.00    +0.020 A 
ATOM     22  C   LIG    1      -19.378  79.652  36.251  0.00  0.00    +0.011 A 
ENDBRANCH  12  17
BRANCH  15  23
ATOM     23  C   LIG    1      -19.825  76.580  30.264  0.00  0.00    +0.417 C 
ATOM     24  F   LIG    1      -18.581  76.651  29.715  0.00  0.00    -0.166 F 
ATOM     25  F   LIG    1      -20.690  76.975  29.291  0.00  0.00    -0.166 F 
ATOM     26  F   LIG    1      -20.070  75.256  30.466  0.00  0.00    -0.166 F 
ENDBRANCH  15  23
ENDBRANCH   9  11
ENDBRANCH   8   9
BRANCH   8  27
ATOM     27  O   LIG    1      -24.023  79.231  33.452  0.00  0.00    -0.481 OA
ATOM     28  H   LIG    1      -23.424  79.622  32.798  0.00  0.00    +0.295 HD
ENDBRANCH   8  27
ENDBRANCH   4   7
BRANCH   1  29
ATOM     29  O   LIG    1      -29.779  77.115  32.134  0.00  0.00    -0.424 OA
BRANCH  29  33
ATOM     30  C   LIG    1      -31.156  73.485  30.456  0.00  0.00    -0.014 A 
ATOM     31  C   LIG    1      -31.237  74.692  29.737  0.00  0.00    +0.012 A 
ATOM     32  C   LIG    1      -30.724  75.886  30.241  0.00  0.00    +0.047 A 
ATOM     33  C   LIG    1      -30.208  75.948  31.535  0.00  0.00    +0.132 A 
ATOM     34  C   LIG    1      -30.080  74.769  32.260  0.00  0.00    +0.047 A 
ATOM     35  C   LIG    1      -30.530  73.553  31.716  0.00  0.00    +0.012 A 
BRANCH  30  37
ATOM     36  C   LIG    1      -30.926  71.060  29.615  0.00  0.00    +0.124 A 
ATOM     37  C   LIG    1      -31.688  72.223  29.868  0.00  0.00    +0.024 A 
ATOM     38  C   LIG    1      -33.059  72.130  29.543  0.00  0.00    +0.051 A 
ATOM     39  C   LIG    1      -33.592  70.963  29.021  0.00  0.00    +0.142 A 
ATOM     40  F   LIG    1      -34.899  70.883  28.744  0.00  0.00    -0.204 F 
ATOM     41  C   LIG    1      -32.754  69.897  28.798  0.00  0.00    +0.151 A 
ATOM     42  N   LIG    1      -31.433  69.923  29.078  0.00  0.00    -0.237 NA
BRANCH  36  43
ATOM     43  N   LIG    1      -29.566  70.963  29.896  0.00  0.00    -0.343 N 
ATOM     44  H   LIG    1      -29.103  71.856  29.760  0.00  0.00    +0.144 HD
ATOM     45  H   LIG    1      -29.491  70.643  30.859  0.00  0.00    +0.144 HD
ENDBRANCH  36  43
ENDBRANCH  30  37
ENDBRANCH  29  33
ENDBRANCH   1  29
TORSDOF 10
ENDMDL
MODEL 6
REMARK VINA RESULT:      -6.6     13.188     17.961
REMARK  Name = pdb/CHEMBL3909331.pdb
REMARK                            x       y       z     vdW  Elec       q    Type
REMARK                         _______ _______ _______ _____ _____    ______ ____
ROOT
ATOM      1  C   LIG    1      -29.891  74.813  31.812  0.00  0.00    +0.323 A 
ATOM      2  N   LIG    1      -28.751  74.226  32.212  0.00  0.00    -0.201 NA
ATOM      3  C   LIG    1      -27.686  75.030  32.393  0.00  0.00    +0.145 A 
ATOM      4  C   LIG    1      -27.668  76.380  32.109  0.00  0.00    +0.105 A 
ATOM      5  C   LIG    1      -28.884  76.845  31.628  0.00  0.00    +0.145 A 
ATOM      6  N   LIG    1      -30.009  76.104  31.474  0.00  0.00    -0.201 NA
ENDROOT
BRANCH   4   7
ATOM      7  N   LIG    1      -26.596  77.277  32.246  0.00  0.00    -0.196 NA
ATOM      8  C   LIG    1      -25.667  77.414  31.371  0.00  0.00    +0.285 C 
BRANCH   8   9
ATOM      9  N   LIG    1      -24.692  78.362  31.486  0.00  0.00    -0.269 N 
ATOM     10  H   LIG    1      -24.661  78.940  30.649  0.00  0.00    +0.157 HD
BRANCH   9  11
ATOM     11  C   LIG    1      -23.385  78.120  31.976  0.00  0.00    +0.043 A 
ATOM     12  C   LIG    1      -22.916  78.423  33.285  0.00  0.00    +0.005 A 
ATOM     13  C   LIG    1      -21.582  78.035  33.568  0.00  0.00    +0.011 A 
ATOM     14  C   LIG    1      -20.758  77.393  32.634  0.00  0.00    +0.013 A 
ATOM     15  C   LIG    1      -21.238  77.082  31.365  0.00  0.00    +0.057 A 
ATOM     16  C   LIG    1      -22.553  77.434  31.059  0.00  0.00    +0.036 A 
BRANCH  12  17
ATOM     17  C   LIG    1      -23.698  79.104  34.366  0.00  0.00    +0.002 A 
ATOM     18  C   LIG    1      -23.329  80.362  34.869  0.00  0.00    +0.119 A 
ATOM     19  N   LIG    1      -23.957  81.047  35.862  0.00  0.00    -0.263 NA
ATOM     20  C   LIG    1      -25.052  80.475  36.391  0.00  0.00    +0.111 A 
ATOM     21  C   LIG    1      -25.523  79.242  35.986  0.00  0.00    +0.020 A 
ATOM     22  C   LIG    1      -24.822  78.550  34.994  0.00  0.00    +0.011 A 
ENDBRANCH  12  17
BRANCH  15  23
ATOM     23  C   LIG    1      -20.363  76.380  30.355  0.00  0.00    +0.417 C 
ATOM     24  F   LIG    1      -20.119  75.084  30.693  0.00  0.00    -0.166 F 
ATOM     25  F   LIG    1      -19.146  76.972  30.220  0.00  0.00    -0.166 F 
ATOM     26  F   LIG    1      -20.902  76.346  29.104  0.00  0.00    -0.166 F 
ENDBRANCH  15  23
ENDBRANCH   9  11
ENDBRANCH   8   9
BRANCH   8  27
ATOM     27  O   LIG    1      -25.537  76.644  30.277  0.00  0.00    -0.481 OA
ATOM     28  H   LIG    1      -24.934  77.056  29.640  0.00  0.00    +0.295 HD
ENDBRANCH   8  27
ENDBRANCH   4   7
BRANCH   1  29
ATOM     29  O   LIG    1      -31.071  74.075  31.837  0.00  0.00    -0.424 OA
BRANCH  29  33
ATOM     30  C   LIG    1      -34.080  75.020  29.019  0.00  0.00    -0.014 A 
ATOM     31  C   LIG    1      -34.164  75.474  30.348  0.00  0.00    +0.012 A 
ATOM     32  C   LIG    1      -33.150  75.235  31.274  0.00  0.00    +0.047 A 
ATOM     33  C   LIG    1      -32.057  74.436  30.942  0.00  0.00    +0.132 A 
ATOM     34  C   LIG    1      -31.924  73.999  29.629  0.00  0.00    +0.047 A 
ATOM     35  C   LIG    1      -32.913  74.307  28.679  0.00  0.00    +0.012 A 
BRANCH  30  37
ATOM     36  C   LIG    1      -35.210  76.445  27.194  0.00  0.00    +0.124 A 
ATOM     37  C   LIG    1      -35.172  75.322  28.051  0.00  0.00    +0.024 A 
ATOM     38  C   LIG    1      -36.263  74.434  27.932  0.00  0.00    +0.051 A 
ATOM     39  C   LIG    1      -37.282  74.671  27.024  0.00  0.00    +0.142 A 
ATOM     40  F   LIG    1      -38.295  73.806  26.905  0.00  0.00    -0.204 F 
ATOM     41  C   LIG    1      -37.225  75.807  26.251  0.00  0.00    +0.151 A 
ATOM     42  N   LIG    1      -36.215  76.700  26.321  0.00  0.00    -0.237 NA
BRANCH  36  43
ATOM     43  N   LIG    1      -34.207  77.411  27.157  0.00  0.00    -0.343 N 
ATOM     44  H   LIG    1      -34.603  78.344  27.111  0.00  0.00    +0.144 HD
ATOM     45  H   LIG    1      -33.647  77.279  27.997  0.00  0.00    +0.144 HD
ENDBRANCH  36  43
ENDBRANCH  30  37
ENDBRANCH  29  33
ENDBRANCH   1  29
TORSDOF 10
ENDMDL
MODEL 7
REMARK VINA RESULT:      -6.5     14.787     19.695
REMARK  Name = pdb/CHEMBL3909331.pdb
REMARK                            x       y       z     vdW  Elec       q    Type
REMARK                         _______ _______ _______ _____ _____    ______ ____
ROOT
ATOM      1  C   LIG    1      -28.483  75.818  32.242  0.00  0.00    +0.323 A 
ATOM      2  N   LIG    1      -27.487  75.869  31.342  0.00  0.00    -0.201 NA
ATOM      3  C   LIG    1      -26.377  76.540  31.705  0.00  0.00    +0.145 A 
ATOM      4  C   LIG    1      -26.238  77.243  32.884  0.00  0.00    +0.105 A 
ATOM      5  C   LIG    1      -27.367  77.175  33.687  0.00  0.00    +0.145 A 
ATOM      6  N   LIG    1      -28.494  76.475  33.409  0.00  0.00    -0.201 NA
ENDROOT
BRANCH   4   7
ATOM      7  N   LIG    1      -25.128  77.984  33.322  0.00  0.00    -0.196 NA
ATOM      8  C   LIG    1      -24.137  77.470  33.957  0.00  0.00    +0.285 C 
BRANCH   8   9
ATOM      9  N   LIG    1      -23.028  78.195  34.285  0.00  0.00    -0.269 N 
ATOM     10  H   LIG    1      -23.298  79.089  34.690  0.00  0.00    +0.157 HD
BRANCH   9  11
ATOM     11  C   LIG    1      -21.887  78.344  33.459  0.00  0.00    +0.043 A 
ATOM     12  C   LIG    1      -20.711  79.076  33.787  0.00  0.00    +0.005 A 
ATOM     13  C   LIG    1      -19.670  79.035  32.825  0.00  0.00    +0.011 A 
ATOM     14  C   LIG    1      -19.770  78.326  31.620  0.00  0.00    +0.013 A 
ATOM     15  C   LIG    1      -20.918  77.596  31.323  0.00  0.00    +0.057 A 
ATOM     16  C   LIG    1      -21.955  77.600  32.258  0.00  0.00    +0.036 A 
BRANCH  12  17
ATOM     17  C   LIG    1      -20.486  79.870  35.037  0.00  0.00    +0.002 A 
ATOM     18  C   LIG    1      -21.161  81.077  35.281  0.00  0.00    +0.119 A 
ATOM     19  N   LIG    1      -21.007  81.879  36.369  0.00  0.00    -0.263 NA
ATOM     20  C   LIG    1      -20.146  81.458  37.312  0.00  0.00    +0.111 A 
ATOM     21  C   LIG    1      -19.420  80.290  37.197  0.00  0.00    +0.020 A 
ATOM     22  C   LIG    1      -19.574  79.517  36.041  0.00  0.00    +0.011 A 
ENDBRANCH  12  17
BRANCH  15  23
ATOM     23  C   LIG    1      -21.032  76.819  30.035  0.00  0.00    +0.417 C 
ATOM     24  F   LIG    1      -22.228  77.014  29.415  0.00  0.00    -0.166 F 
ATOM     25  F   LIG    1      -20.920  75.476  30.226  0.00  0.00    -0.166 F 
ATOM     26  F   LIG    1      -20.079  77.146  29.119  0.00  0.00    -0.166 F 
ENDBRANCH  15  23
ENDBRANCH   9  11
ENDBRANCH   8   9
BRANCH   8  27
ATOM     27  O   LIG    1      -24.087  76.196  34.381  0.00  0.00    -0.481 OA
ATOM     28  H   LIG    1      -24.202  76.151  35.342  0.00  0.00    +0.295 HD
ENDBRANCH   8  27
ENDBRANCH   4   7
BRANCH   1  29
ATOM     29  O   LIG    1      -29.548  74.950  32.015  0.00  0.00    -0.424 OA
BRANCH  29  33
ATOM     30  C   LIG    1      -32.844  76.433  29.820  0.00  0.00    -0.014 A 
ATOM     31  C   LIG    1      -32.996  75.999  31.149  0.00  0.00    +0.012 A 
ATOM     32  C   LIG    1      -31.911  75.574  31.915  0.00  0.00    +0.047 A 
ATOM     33  C   LIG    1      -30.643  75.459  31.347  0.00  0.00    +0.132 A 
ATOM     34  C   LIG    1      -30.449  75.911  30.048  0.00  0.00    +0.047 A 
ATOM     35  C   LIG    1      -31.533  76.410  29.304  0.00  0.00    +0.012 A 
BRANCH  30  37
ATOM     36  C   LIG    1      -34.678  76.177  28.028  0.00  0.00    +0.124 A 
ATOM     37  C   LIG    1      -34.025  76.909  29.044  0.00  0.00    +0.024 A 
ATOM     38  C   LIG    1      -34.580  78.176  29.329  0.00  0.00    +0.051 A 
ATOM     39  C   LIG    1      -35.693  78.638  28.646  0.00  0.00    +0.142 A 
ATOM     40  F   LIG    1      -36.224  79.829  28.947  0.00  0.00    -0.204 F 
ATOM     41  C   LIG    1      -36.238  77.847  27.662  0.00  0.00    +0.151 A 
ATOM     42  N   LIG    1      -35.750  76.631  27.335  0.00  0.00    -0.237 NA
BRANCH  36  43
ATOM     43  N   LIG    1      -34.283  74.901  27.633  0.00  0.00    -0.343 N 
ATOM     44  H   LIG    1      -34.260  74.267  28.426  0.00  0.00    +0.144 HD
ATOM     45  H   LIG    1      -34.950  74.597  26.926  0.00  0.00    +0.144 HD
ENDBRANCH  36  43
ENDBRANCH  30  37
ENDBRANCH  29  33
ENDBRANCH   1  29
TORSDOF 10
ENDMDL
MODEL 8
REMARK VINA RESULT:      -6.5     14.647     19.306
REMARK  Name = pdb/CHEMBL3909331.pdb
REMARK                            x       y       z     vdW  Elec       q    Type
REMARK                         _______ _______ _______ _____ _____    ______ ____
ROOT
ATOM      1  C   LIG    1      -28.746  75.123  33.380  0.00  0.00    +0.323 A 
ATOM      2  N   LIG    1      -28.707  75.904  34.472  0.00  0.00    -0.201 NA
ATOM      3  C   LIG    1      -27.740  76.841  34.513  0.00  0.00    +0.145 A 
ATOM      4  C   LIG    1      -26.750  76.984  33.564  0.00  0.00    +0.105 A 
ATOM      5  C   LIG    1      -26.858  76.065  32.530  0.00  0.00    +0.145 A 
ATOM      6  N   LIG    1      -27.834  75.134  32.399  0.00  0.00    -0.201 NA
ENDROOT
BRANCH   4   7
ATOM      7  N   LIG    1      -25.697  77.915  33.547  0.00  0.00    -0.196 NA
ATOM      8  C   LIG    1      -24.557  77.708  34.100  0.00  0.00    +0.285 C 
BRANCH   8   9
ATOM      9  N   LIG    1      -23.522  78.590  33.985  0.00  0.00    -0.269 N 
ATOM     10  H   LIG    1      -23.875  79.541  33.905  0.00  0.00    +0.157 HD
BRANCH   9  11
ATOM     11  C   LIG    1      -22.392  78.405  33.150  0.00  0.00    +0.043 A 
ATOM     12  C   LIG    1      -21.055  78.777  33.463  0.00  0.00    +0.005 A 
ATOM     13  C   LIG    1      -20.077  78.437  32.494  0.00  0.00    +0.011 A 
ATOM     14  C   LIG    1      -20.384  77.776  31.297  0.00  0.00    +0.013 A 
ATOM     15  C   LIG    1      -21.694  77.398  31.015  0.00  0.00    +0.057 A 
ATOM     16  C   LIG    1      -22.678  77.701  31.956  0.00  0.00    +0.036 A 
BRANCH  12  17
ATOM     17  C   LIG    1      -20.603  79.484  34.704  0.00  0.00    +0.002 A 
ATOM     18  C   LIG    1      -19.511  79.030  35.461  0.00  0.00    +0.119 A 
ATOM     19  N   LIG    1      -19.043  79.586  36.611  0.00  0.00    -0.263 NA
ATOM     20  C   LIG    1      -19.671  80.692  37.046  0.00  0.00    +0.111 A 
ATOM     21  C   LIG    1      -20.756  81.243  36.395  0.00  0.00    +0.020 A 
ATOM     22  C   LIG    1      -21.235  80.614  35.240  0.00  0.00    +0.011 A 
ENDBRANCH  12  17
BRANCH  15  23
ATOM     23  C   LIG    1      -22.034  76.675  29.735  0.00  0.00    +0.417 C 
ATOM     24  F   LIG    1      -20.981  76.618  28.875  0.00  0.00    -0.166 F 
ATOM     25  F   LIG    1      -23.047  77.275  29.053  0.00  0.00    -0.166 F 
ATOM     26  F   LIG    1      -22.428  75.386  29.930  0.00  0.00    -0.166 F 
ENDBRANCH  15  23
ENDBRANCH   9  11
ENDBRANCH   8   9
BRANCH   8  27
ATOM     27  O   LIG    1      -24.265  76.637  34.857  0.00  0.00    -0.481 OA
ATOM     28  H   LIG    1      -24.546  75.821  34.416  0.00  0.00    +0.295 HD
ENDBRANCH   8  27
ENDBRANCH   4   7
BRANCH   1  29
ATOM     29  O   LIG    1      -29.855  74.305  33.180  0.00  0.00    -0.424 OA
BRANCH  29  33
ATOM     30  C   LIG    1      -32.510  75.562  30.138  0.00  0.00    -0.014 A 
ATOM     31  C   LIG    1      -31.550  74.564  29.893  0.00  0.00    +0.012 A 
ATOM     32  C   LIG    1      -30.713  74.083  30.900  0.00  0.00    +0.047 A 
ATOM     33  C   LIG    1      -30.724  74.660  32.169  0.00  0.00    +0.132 A 
ATOM     34  C   LIG    1      -31.683  75.624  32.456  0.00  0.00    +0.047 A 
ATOM     35  C   LIG    1      -32.576  76.051  31.458  0.00  0.00    +0.012 A 
BRANCH  30  37
ATOM     36  C   LIG    1      -33.227  77.210  28.291  0.00  0.00    +0.124 A 
ATOM     37  C   LIG    1      -33.408  76.026  29.042  0.00  0.00    +0.024 A 
ATOM     38  C   LIG    1      -34.525  75.244  28.678  0.00  0.00    +0.051 A 
ATOM     39  C   LIG    1      -35.364  75.633  27.647  0.00  0.00    +0.142 A 
ATOM     40  F   LIG    1      -36.404  74.866  27.296  0.00  0.00    -0.204 F 
ATOM     41  C   LIG    1      -35.103  76.814  26.995  0.00  0.00    +0.151 A 
ATOM     42  N   LIG    1      -34.058  77.612  27.299  0.00  0.00    -0.237 NA
BRANCH  36  43
ATOM     43  N   LIG    1      -32.166  78.088  28.496  0.00  0.00    -0.343 N 
ATOM     44  H   LIG    1      -32.371  78.735  29.251  0.00  0.00    +0.144 HD
ATOM     45  H   LIG    1      -31.350  77.515  28.700  0.00  0.00    +0.144 HD
ENDBRANCH  36  43
ENDBRANCH  30  37
ENDBRANCH  29  33
ENDBRANCH   1  29
TORSDOF 10
ENDMDL
MODEL 9
REMARK VINA RESULT:      -6.5      5.109     10.091
REMARK  Name = pdb/CHEMBL3909331.pdb
REMARK                            x       y       z     vdW  Elec       q    Type
REMARK                         _______ _______ _______ _____ _____    ______ ____
ROOT
ATOM      1  C   LIG    1      -35.095  70.101  27.517  0.00  0.00    +0.323 A 
ATOM      2  N   LIG    1      -33.879  69.648  27.170  0.00  0.00    -0.201 NA
ATOM      3  C   LIG    1      -33.776  69.048  25.969  0.00  0.00    +0.145 A 
ATOM      4  C   LIG    1      -34.839  68.791  25.129  0.00  0.00    +0.105 A 
ATOM      5  C   LIG    1      -36.049  69.238  25.641  0.00  0.00    +0.145 A 
ATOM      6  N   LIG    1      -36.216  69.897  26.814  0.00  0.00    -0.201 NA
ENDROOT
BRANCH   4   7
ATOM      7  N   LIG    1      -34.818  68.152  23.878  0.00  0.00    -0.196 NA
ATOM      8  C   LIG    1      -34.922  66.881  23.728  0.00  0.00    +0.285 C 
BRANCH   8   9
ATOM      9  N   LIG    1      -34.995  66.297  22.497  0.00  0.00    -0.269 N 
ATOM     10  H   LIG    1      -34.073  65.986  22.199  0.00  0.00    +0.157 HD
BRANCH   9  11
ATOM     11  C   LIG    1      -35.727  66.814  21.400  0.00  0.00    +0.043 A 
ATOM     12  C   LIG    1      -35.298  66.828  20.043  0.00  0.00    +0.005 A 
ATOM     13  C   LIG    1      -36.229  67.344  19.106  0.00  0.00    +0.011 A 
ATOM     14  C   LIG    1      -37.496  67.819  19.470  0.00  0.00    +0.013 A 
ATOM     15  C   LIG    1      -37.911  67.779  20.799  0.00  0.00    +0.057 A 
ATOM     16  C   LIG    1      -37.026  67.258  21.744  0.00  0.00    +0.036 A 
BRANCH  12  17
ATOM     17  C   LIG    1      -33.973  66.351  19.533  0.00  0.00    +0.002 A 
ATOM     18  C   LIG    1      -33.870  65.483  18.434  0.00  0.00    +0.119 A 
ATOM     19  N   LIG    1      -32.719  64.977  17.914  0.00  0.00    -0.263 NA
ATOM     20  C   LIG    1      -31.571  65.370  18.493  0.00  0.00    +0.111 A 
ATOM     21  C   LIG    1      -31.532  66.221  19.578  0.00  0.00    +0.020 A 
ATOM     22  C   LIG    1      -32.740  66.683  20.111  0.00  0.00    +0.011 A 
ENDBRANCH  12  17
BRANCH  15  23
ATOM     23  C   LIG    1      -39.278  68.275  21.200  0.00  0.00    +0.417 C 
ATOM     24  F   LIG    1      -39.378  69.631  21.136  0.00  0.00    -0.166 F 
ATOM     25  F   LIG    1      -39.602  67.932  22.476  0.00  0.00    -0.166 F 
ATOM     26  F   LIG    1      -40.281  67.789  20.417  0.00  0.00    -0.166 F 
ENDBRANCH  15  23
ENDBRANCH   9  11
ENDBRANCH   8   9
BRANCH   8  27
ATOM     27  O   LIG    1      -34.948  65.998  24.741  0.00  0.00    -0.481 OA
ATOM     28  H   LIG    1      -35.029  66.456  25.591  0.00  0.00    +0.295 HD
ENDBRANCH   8  27
ENDBRANCH   4   7
BRANCH   1  29
ATOM     29  O   LIG    1      -35.210  70.929  28.631  0.00  0.00    -0.424 OA
BRANCH  29  33
ATOM     30  C   LIG    1      -34.245  75.024  28.206  0.00  0.00    -0.014 A 
ATOM     31  C   LIG    1      -33.285  74.097  28.649  0.00  0.00    +0.012 A 
ATOM     32  C   LIG    1      -33.559  72.732  28.728  0.00  0.00    +0.047 A 
ATOM     33  C   LIG    1      -34.843  72.249  28.473  0.00  0.00    +0.132 A 
ATOM     34  C   LIG    1      -35.807  73.132  28.001  0.00  0.00    +0.047 A 
ATOM     35  C   LIG    1      -35.502  74.496  27.850  0.00  0.00    +0.012 A 
BRANCH  30  37
ATOM     36  C   LIG    1      -34.229  77.452  29.072  0.00  0.00    +0.124 A 
ATOM     37  C   LIG    1      -33.903  76.472  28.107  0.00  0.00    +0.024 A 
ATOM     38  C   LIG    1      -33.179  76.941  26.989  0.00  0.00    +0.051 A 
ATOM     39  C   LIG    1      -32.821  78.274  26.878  0.00  0.00    +0.142 A 
ATOM     40  F   LIG    1      -32.112  78.698  25.825  0.00  0.00    -0.204 F 
ATOM     41  C   LIG    1      -33.207  79.145  27.870  0.00  0.00    +0.151 A 
ATOM     42  N   LIG    1      -33.907  78.763  28.959  0.00  0.00    -0.237 NA
BRANCH  36  43
ATOM     43  N   LIG    1      -34.917  77.165  30.248  0.00  0.00    -0.343 N 
ATOM     44  H   LIG    1      -34.491  77.634  31.041  0.00  0.00    +0.144 HD
ATOM     45  H   LIG    1      -35.878  77.467  30.102  0.00  0.00    +0.144 HD
ENDBRANCH  36  43
ENDBRANCH  30  37
ENDBRANCH  29  33
ENDBRANCH   1  29
TORSDOF 10
ENDMDL
