MODEL 1
REMARK VINA RESULT:      -5.9      0.000      0.000
REMARK  Name = pdb/CHEMBL3676098.pdb
REMARK                            x       y       z     vdW  Elec       q    Type
REMARK                         _______ _______ _______ _____ _____    ______ ____
ROOT
ATOM      1  C   LIG    1      -18.731  85.415  13.111  0.00  0.00    +0.100 A 
ATOM      2  C   LIG    1      -19.019  84.117  13.523  0.00  0.00    +0.170 A 
ATOM      3  N   LIG    1      -20.110  83.538  14.136  0.00  0.00    -0.212 NA
ATOM      4  C   LIG    1      -20.037  82.260  14.472  0.00  0.00    +0.126 A 
ATOM      5  C   LIG    1      -18.818  81.427  14.152  0.00  0.00    +0.063 A 
ATOM      6  C   LIG    1      -17.809  82.023  13.513  0.00  0.00    +0.118 A 
ATOM      7  N   LIG    1      -17.875  83.371  13.218  0.00  0.00    -0.221 N 
ATOM      8  N   LIG    1      -16.875  84.127  12.718  0.00  0.00    -0.173 NA
ATOM      9  C   LIG    1      -17.376  85.358  12.715  0.00  0.00    +0.150 A 
ENDROOT
BRANCH   4  10
ATOM     10  N   LIG    1      -21.090  81.665  15.162  0.00  0.00    -0.308 N 
ATOM     11  C   LIG    1      -22.388  82.326  15.452  0.00  0.00    +0.110 C 
ATOM     12  C   LIG    1      -22.833  81.697  16.782  0.00  0.00    +0.029 C 
ATOM     13  C   LIG    1      -22.221  80.308  16.724  0.00  0.00    +0.021 C 
ATOM     14  C   LIG    1      -20.849  80.588  16.126  0.00  0.00    +0.107 C 
BRANCH  11  15
ATOM     15  C   LIG    1      -23.425  82.090  14.376  0.00  0.00    +0.040 A 
ATOM     16  C   LIG    1      -23.487  83.170  13.322  0.00  0.00    +0.256 A 
ATOM     17  O   LIG    1      -22.899  84.234  13.498  0.00  0.00    -0.267 OA
ATOM     18  N   LIG    1      -24.221  82.872  12.171  0.00  0.00    -0.315 N 
ATOM     19  C   LIG    1      -24.205  83.819  11.069  0.00  0.00    +0.152 C 
ATOM     20  C   LIG    1      -25.092  81.796  12.127  0.00  0.00    +0.127 A 
ATOM     21  C   LIG    1      -25.165  80.936  13.146  0.00  0.00    +0.140 A 
ATOM     22  F   LIG    1      -26.053  79.925  13.132  0.00  0.00    -0.204 F 
ATOM     23  C   LIG    1      -24.269  81.048  14.264  0.00  0.00    +0.050 A 
ENDBRANCH  11  15
ENDBRANCH   4  10
BRANCH   1  26
ATOM     24  N   LIG    1      -20.876  86.449  12.828  0.00  0.00    -0.308 N 
ATOM     25  H   LIG    1      -21.201  85.495  12.676  0.00  0.00    +0.149 HD
ATOM     26  C   LIG    1      -19.543  86.612  13.098  0.00  0.00    +0.249 C 
ATOM     27  O   LIG    1      -19.030  87.719  13.320  0.00  0.00    -0.270 OA
BRANCH  24  29
ATOM     28  C   LIG    1      -22.649  87.491  11.471  0.00  0.00    +0.028 C 
ATOM     29  C   LIG    1      -21.813  87.565  12.753  0.00  0.00    +0.073 C 
BRANCH  29  30
ATOM     30  C   LIG    1      -22.654  87.589  14.017  0.00  0.00    +0.009 C 
ATOM     31  C   LIG    1      -22.460  88.621  15.109  0.00  0.00    +0.005 C 
ATOM     32  C   LIG    1      -22.083  87.188  15.360  0.00  0.00    +0.005 C 
ENDBRANCH  29  30
ENDBRANCH  24  29
ENDBRANCH   1  26
TORSDOF 5
ENDMDL
MODEL 2
REMARK VINA RESULT:      -5.8      3.169      4.925
REMARK  Name = pdb/CHEMBL3676098.pdb
REMARK                            x       y       z     vdW  Elec       q    Type
REMARK                         _______ _______ _______ _____ _____    ______ ____
ROOT
ATOM      1  C   LIG    1      -22.488  83.870  15.546  0.00  0.00    +0.100 A 
ATOM      2  C   LIG    1      -22.469  82.492  15.356  0.00  0.00    +0.170 A 
ATOM      3  N   LIG    1      -22.459  81.690  14.235  0.00  0.00    -0.212 NA
ATOM      4  C   LIG    1      -22.522  80.379  14.401  0.00  0.00    +0.126 A 
ATOM      5  C   LIG    1      -22.551  79.755  15.776  0.00  0.00    +0.063 A 
ATOM      6  C   LIG    1      -22.509  80.574  16.829  0.00  0.00    +0.118 A 
ATOM      7  N   LIG    1      -22.501  81.942  16.643  0.00  0.00    -0.221 N 
ATOM      8  N   LIG    1      -22.612  82.878  17.610  0.00  0.00    -0.173 NA
ATOM      9  C   LIG    1      -22.665  84.025  16.940  0.00  0.00    +0.150 A 
ENDROOT
BRANCH   4  10
ATOM     10  N   LIG    1      -22.591  79.543  13.287  0.00  0.00    -0.308 N 
ATOM     11  C   LIG    1      -23.229  78.203  13.279  0.00  0.00    +0.110 C 
ATOM     12  C   LIG    1      -22.419  77.416  12.237  0.00  0.00    +0.029 C 
ATOM     13  C   LIG    1      -21.966  78.495  11.270  0.00  0.00    +0.021 C 
ATOM     14  C   LIG    1      -21.600  79.634  12.212  0.00  0.00    +0.107 C 
BRANCH  11  15
ATOM     15  C   LIG    1      -24.692  78.246  12.896  0.00  0.00    +0.040 A 
ATOM     16  C   LIG    1      -25.538  77.173  13.540  0.00  0.00    +0.256 A 
ATOM     17  O   LIG    1      -25.000  76.233  14.119  0.00  0.00    -0.267 OA
ATOM     18  N   LIG    1      -26.923  77.334  13.444  0.00  0.00    -0.315 N 
ATOM     19  C   LIG    1      -27.784  76.404  14.156  0.00  0.00    +0.152 C 
ATOM     20  C   LIG    1      -27.487  78.234  12.556  0.00  0.00    +0.127 A 
ATOM     21  C   LIG    1      -26.718  79.067  11.849  0.00  0.00    +0.140 A 
ATOM     22  F   LIG    1      -27.258  79.901  10.941  0.00  0.00    -0.204 F 
ATOM     23  C   LIG    1      -25.299  79.119  12.070  0.00  0.00    +0.050 A 
ENDBRANCH  11  15
ENDBRANCH   4  10
BRANCH   1  26
ATOM     24  N   LIG    1      -21.808  86.115  15.046  0.00  0.00    -0.308 N 
ATOM     25  H   LIG    1      -21.458  86.112  16.003  0.00  0.00    +0.149 HD
ATOM     26  C   LIG    1      -22.399  84.963  14.601  0.00  0.00    +0.249 C 
ATOM     27  O   LIG    1      -22.848  84.834  13.452  0.00  0.00    -0.270 OA
BRANCH  24  29
ATOM     28  C   LIG    1      -22.512  88.461  14.779  0.00  0.00    +0.028 C 
ATOM     29  C   LIG    1      -21.672  87.309  14.217  0.00  0.00    +0.073 C 
BRANCH  29  30
ATOM     30  C   LIG    1      -20.199  87.650  14.081  0.00  0.00    +0.009 C 
ATOM     31  C   LIG    1      -19.518  87.811  12.738  0.00  0.00    +0.005 C 
ATOM     32  C   LIG    1      -19.187  86.630  13.605  0.00  0.00    +0.005 C 
ENDBRANCH  29  30
ENDBRANCH  24  29
ENDBRANCH   1  26
TORSDOF 5
ENDMDL
MODEL 3
REMARK VINA RESULT:      -5.5     20.128     22.977
REMARK  Name = pdb/CHEMBL3676098.pdb
REMARK                            x       y       z     vdW  Elec       q    Type
REMARK                         _______ _______ _______ _____ _____    ______ ____
ROOT
ATOM      1  C   LIG    1      -37.821  76.523  26.272  0.00  0.00    +0.100 A 
ATOM      2  C   LIG    1      -38.455  75.477  25.609  0.00  0.00    +0.170 A 
ATOM      3  N   LIG    1      -38.224  74.119  25.544  0.00  0.00    -0.212 NA
ATOM      4  C   LIG    1      -38.983  73.391  24.741  0.00  0.00    +0.126 A 
ATOM      5  C   LIG    1      -40.112  74.006  23.948  0.00  0.00    +0.063 A 
ATOM      6  C   LIG    1      -40.326  75.316  24.086  0.00  0.00    +0.118 A 
ATOM      7  N   LIG    1      -39.491  76.074  24.883  0.00  0.00    -0.221 N 
ATOM      8  N   LIG    1      -39.498  77.420  24.990  0.00  0.00    -0.173 NA
ATOM      9  C   LIG    1      -38.457  77.683  25.774  0.00  0.00    +0.150 A 
ENDROOT
BRANCH   4  10
ATOM     10  N   LIG    1      -38.727  72.030  24.592  0.00  0.00    -0.308 N 
ATOM     11  C   LIG    1      -37.385  71.407  24.721  0.00  0.00    +0.110 C 
ATOM     12  C   LIG    1      -37.444  70.206  23.762  0.00  0.00    +0.029 C 
ATOM     13  C   LIG    1      -38.912  69.822  23.785  0.00  0.00    +0.021 C 
ATOM     14  C   LIG    1      -39.598  71.181  23.775  0.00  0.00    +0.107 C 
BRANCH  11  15
ATOM     15  C   LIG    1      -37.077  70.950  26.130  0.00  0.00    +0.040 A 
ATOM     16  C   LIG    1      -35.607  70.746  26.412  0.00  0.00    +0.256 A 
ATOM     17  O   LIG    1      -34.801  70.731  25.486  0.00  0.00    -0.267 OA
ATOM     18  N   LIG    1      -35.248  70.598  27.754  0.00  0.00    -0.315 N 
ATOM     19  C   LIG    1      -33.836  70.530  28.095  0.00  0.00    +0.152 C 
ATOM     20  C   LIG    1      -36.193  70.339  28.732  0.00  0.00    +0.127 A 
ATOM     21  C   LIG    1      -37.496  70.344  28.438  0.00  0.00    +0.140 A 
ATOM     22  F   LIG    1      -38.415  70.033  29.372  0.00  0.00    -0.204 F 
ATOM     23  C   LIG    1      -37.950  70.720  27.127  0.00  0.00    +0.050 A 
ENDBRANCH  11  15
ENDBRANCH   4  10
BRANCH   1  26
ATOM     24  N   LIG    1      -35.608  75.825  26.879  0.00  0.00    -0.308 N 
ATOM     25  H   LIG    1      -35.615  75.367  25.969  0.00  0.00    +0.149 HD
ATOM     26  C   LIG    1      -36.732  76.527  27.225  0.00  0.00    +0.249 C 
ATOM     27  O   LIG    1      -36.840  77.142  28.297  0.00  0.00    -0.270 OA
BRANCH  24  29
ATOM     28  C   LIG    1      -34.035  74.248  27.933  0.00  0.00    +0.028 C 
ATOM     29  C   LIG    1      -34.442  75.714  27.750  0.00  0.00    +0.073 C 
BRANCH  29  30
ATOM     30  C   LIG    1      -33.327  76.581  27.192  0.00  0.00    +0.009 C 
ATOM     31  C   LIG    1      -32.262  77.207  28.069  0.00  0.00    +0.005 C 
ATOM     32  C   LIG    1      -33.297  78.078  27.414  0.00  0.00    +0.005 C 
ENDBRANCH  29  30
ENDBRANCH  24  29
ENDBRANCH   1  26
TORSDOF 5
ENDMDL
MODEL 4
REMARK VINA RESULT:      -5.5     17.973     20.689
REMARK  Name = pdb/CHEMBL3676098.pdb
REMARK                            x       y       z     vdW  Elec       q    Type
REMARK                         _______ _______ _______ _____ _____    ______ ____
ROOT
ATOM      1  C   LIG    1      -23.467  76.724  30.260  0.00  0.00    +0.100 A 
ATOM      2  C   LIG    1      -24.421  76.020  30.989  0.00  0.00    +0.170 A 
ATOM      3  N   LIG    1      -24.449  74.759  31.545  0.00  0.00    -0.212 NA
ATOM      4  C   LIG    1      -25.566  74.352  32.124  0.00  0.00    +0.126 A 
ATOM      5  C   LIG    1      -26.774  75.252  32.231  0.00  0.00    +0.063 A 
ATOM      6  C   LIG    1      -26.679  76.482  31.721  0.00  0.00    +0.118 A 
ATOM      7  N   LIG    1      -25.527  76.875  31.069  0.00  0.00    -0.221 N 
ATOM      8  N   LIG    1      -25.353  78.023  30.381  0.00  0.00    -0.173 NA
ATOM      9  C   LIG    1      -24.141  77.896  29.850  0.00  0.00    +0.150 A 
ENDROOT
BRANCH   4  10
ATOM     10  N   LIG    1      -25.653  73.056  32.626  0.00  0.00    -0.308 N 
ATOM     11  C   LIG    1      -26.170  71.891  31.865  0.00  0.00    +0.110 C 
ATOM     12  C   LIG    1      -26.794  70.992  32.945  0.00  0.00    +0.029 C 
ATOM     13  C   LIG    1      -25.955  71.301  34.173  0.00  0.00    +0.021 C 
ATOM     14  C   LIG    1      -25.777  72.809  34.065  0.00  0.00    +0.107 C 
BRANCH  11  15
ATOM     15  C   LIG    1      -25.088  71.148  31.113  0.00  0.00    +0.040 A 
ATOM     16  C   LIG    1      -25.559  70.474  29.846  0.00  0.00    +0.256 A 
ATOM     17  O   LIG    1      -26.761  70.365  29.619  0.00  0.00    -0.267 OA
ATOM     18  N   LIG    1      -24.563  70.017  28.979  0.00  0.00    -0.315 N 
ATOM     19  C   LIG    1      -24.955  69.480  27.686  0.00  0.00    +0.152 C 
ATOM     20  C   LIG    1      -23.245  69.900  29.389  0.00  0.00    +0.127 A 
ATOM     21  C   LIG    1      -22.864  70.339  30.591  0.00  0.00    +0.140 A 
ATOM     22  F   LIG    1      -21.598  70.172  31.016  0.00  0.00    -0.204 F 
ATOM     23  C   LIG    1      -23.789  71.034  31.444  0.00  0.00    +0.050 A 
ENDBRANCH  11  15
ENDBRANCH   4  10
BRANCH   1  26
ATOM     24  N   LIG    1      -21.272  76.042  30.944  0.00  0.00    -0.308 N 
ATOM     25  H   LIG    1      -21.682  76.018  31.876  0.00  0.00    +0.149 HD
ATOM     26  C   LIG    1      -22.101  76.395  29.913  0.00  0.00    +0.249 C 
ATOM     27  O   LIG    1      -21.727  76.442  28.731  0.00  0.00    -0.270 OA
BRANCH  24  29
ATOM     28  C   LIG    1      -19.001  76.978  30.750  0.00  0.00    +0.028 C 
ATOM     29  C   LIG    1      -19.863  75.712  30.752  0.00  0.00    +0.073 C 
BRANCH  29  30
ATOM     30  C   LIG    1      -19.445  74.703  31.807  0.00  0.00    +0.009 C 
ATOM     31  C   LIG    1      -18.917  73.327  31.459  0.00  0.00    +0.005 C 
ATOM     32  C   LIG    1      -20.270  73.467  32.097  0.00  0.00    +0.005 C 
ENDBRANCH  29  30
ENDBRANCH  24  29
ENDBRANCH   1  26
TORSDOF 5
ENDMDL
MODEL 5
REMARK VINA RESULT:      -5.4     19.804     22.891
REMARK  Name = pdb/CHEMBL3676098.pdb
REMARK                            x       y       z     vdW  Elec       q    Type
REMARK                         _______ _______ _______ _____ _____    ______ ____
ROOT
ATOM      1  C   LIG    1      -37.484  76.112  26.102  0.00  0.00    +0.100 A 
ATOM      2  C   LIG    1      -37.998  74.893  25.669  0.00  0.00    +0.170 A 
ATOM      3  N   LIG    1      -37.649  73.580  25.904  0.00  0.00    -0.212 NA
ATOM      4  C   LIG    1      -38.311  72.631  25.263  0.00  0.00    +0.126 A 
ATOM      5  C   LIG    1      -39.458  72.954  24.336  0.00  0.00    +0.063 A 
ATOM      6  C   LIG    1      -39.789  74.238  24.183  0.00  0.00    +0.118 A 
ATOM      7  N   LIG    1      -39.055  75.223  24.812  0.00  0.00    -0.221 N 
ATOM      8  N   LIG    1      -39.182  76.553  24.625  0.00  0.00    -0.173 NA
ATOM      9  C   LIG    1      -38.199  77.074  25.353  0.00  0.00    +0.150 A 
ENDROOT
BRANCH   4  10
ATOM     10  N   LIG    1      -37.932  71.298  25.418  0.00  0.00    -0.308 N 
ATOM     11  C   LIG    1      -38.830  70.137  25.198  0.00  0.00    +0.110 C 
ATOM     12  C   LIG    1      -38.308  69.077  26.181  0.00  0.00    +0.029 C 
ATOM     13  C   LIG    1      -36.828  69.401  26.280  0.00  0.00    +0.021 C 
ATOM     14  C   LIG    1      -36.838  70.923  26.317  0.00  0.00    +0.107 C 
BRANCH  11  15
ATOM     15  C   LIG    1      -38.786  69.616  23.778  0.00  0.00    +0.040 A 
ATOM     16  C   LIG    1      -40.137  69.500  23.113  0.00  0.00    +0.256 A 
ATOM     17  O   LIG    1      -41.162  69.602  23.784  0.00  0.00    -0.267 OA
ATOM     18  N   LIG    1      -40.134  69.294  21.731  0.00  0.00    -0.315 N 
ATOM     19  C   LIG    1      -41.402  69.307  21.021  0.00  0.00    +0.152 C 
ATOM     20  C   LIG    1      -38.986  68.906  21.061  0.00  0.00    +0.127 A 
ATOM     21  C   LIG    1      -37.815  68.836  21.699  0.00  0.00    +0.140 A 
ATOM     22  F   LIG    1      -36.710  68.400  21.066  0.00  0.00    -0.204 F 
ATOM     23  C   LIG    1      -37.700  69.260  23.067  0.00  0.00    +0.050 A 
ENDBRANCH  11  15
ENDBRANCH   4  10
BRANCH   1  26
ATOM     24  N   LIG    1      -35.301  75.656  26.986  0.00  0.00    -0.308 N 
ATOM     25  H   LIG    1      -35.271  74.940  26.262  0.00  0.00    +0.149 HD
ATOM     26  C   LIG    1      -36.436  76.420  27.051  0.00  0.00    +0.249 C 
ATOM     27  O   LIG    1      -36.587  77.335  27.875  0.00  0.00    -0.270 OA
BRANCH  24  29
ATOM     28  C   LIG    1      -33.605  74.475  28.327  0.00  0.00    +0.028 C 
ATOM     29  C   LIG    1      -34.173  75.831  27.896  0.00  0.00    +0.073 C 
BRANCH  29  30
ATOM     30  C   LIG    1      -33.144  76.731  27.236  0.00  0.00    +0.009 C 
ATOM     31  C   LIG    1      -32.164  77.570  28.030  0.00  0.00    +0.005 C 
ATOM     32  C   LIG    1      -33.271  78.239  27.264  0.00  0.00    +0.005 C 
ENDBRANCH  29  30
ENDBRANCH  24  29
ENDBRANCH   1  26
TORSDOF 5
ENDMDL
MODEL 6
REMARK VINA RESULT:      -5.3      2.063      5.499
REMARK  Name = pdb/CHEMBL3676098.pdb
REMARK                            x       y       z     vdW  Elec       q    Type
REMARK                         _______ _______ _______ _____ _____    ______ ____
ROOT
ATOM      1  C   LIG    1      -19.299  82.144  13.794  0.00  0.00    +0.100 A 
ATOM      2  C   LIG    1      -19.354  83.532  13.721  0.00  0.00    +0.170 A 
ATOM      3  N   LIG    1      -20.357  84.453  13.940  0.00  0.00    -0.212 NA
ATOM      4  C   LIG    1      -20.099  85.729  13.705  0.00  0.00    +0.126 A 
ATOM      5  C   LIG    1      -18.733  86.191  13.258  0.00  0.00    +0.063 A 
ATOM      6  C   LIG    1      -17.783  85.265  13.110  0.00  0.00    +0.118 A 
ATOM      7  N   LIG    1      -18.079  83.931  13.303  0.00  0.00    -0.221 N 
ATOM      8  N   LIG    1      -17.264  82.887  13.041  0.00  0.00    -0.173 NA
ATOM      9  C   LIG    1      -18.023  81.822  13.279  0.00  0.00    +0.150 A 
ENDROOT
BRANCH   4  10
ATOM     10  N   LIG    1      -21.112  86.676  13.841  0.00  0.00    -0.308 N 
ATOM     11  C   LIG    1      -21.562  87.590  12.761  0.00  0.00    +0.110 C 
ATOM     12  C   LIG    1      -22.022  88.850  13.511  0.00  0.00    +0.029 C 
ATOM     13  C   LIG    1      -22.500  88.298  14.843  0.00  0.00    +0.021 C 
ATOM     14  C   LIG    1      -21.443  87.246  15.150  0.00  0.00    +0.107 C 
BRANCH  11  15
ATOM     15  C   LIG    1      -22.693  87.018  11.934  0.00  0.00    +0.040 A 
ATOM     16  C   LIG    1      -22.751  87.534  10.516  0.00  0.00    +0.256 A 
ATOM     17  O   LIG    1      -22.072  88.503  10.186  0.00  0.00    -0.267 OA
ATOM     18  N   LIG    1      -23.590  86.842   9.638  0.00  0.00    -0.315 N 
ATOM     19  C   LIG    1      -23.586  87.211   8.232  0.00  0.00    +0.152 C 
ATOM     20  C   LIG    1      -24.541  85.947  10.100  0.00  0.00    +0.127 A 
ATOM     21  C   LIG    1      -24.602  85.627  11.396  0.00  0.00    +0.140 A 
ATOM     22  F   LIG    1      -25.564  84.806  11.857  0.00  0.00    -0.204 F 
ATOM     23  C   LIG    1      -23.619  86.122  12.320  0.00  0.00    +0.050 A 
ENDBRANCH  11  15
ENDBRANCH   4  10
BRANCH   1  26
ATOM     24  N   LIG    1      -21.462  81.667  14.713  0.00  0.00    -0.308 N 
ATOM     25  H   LIG    1      -21.573  82.679  14.709  0.00  0.00    +0.149 HD
ATOM     26  C   LIG    1      -20.278  81.173  14.233  0.00  0.00    +0.249 C 
ATOM     27  O   LIG    1      -20.030  79.959  14.169  0.00  0.00    -0.270 OA
BRANCH  24  29
ATOM     28  C   LIG    1      -22.378  80.575  16.723  0.00  0.00    +0.028 C 
ATOM     29  C   LIG    1      -22.532  80.812  15.217  0.00  0.00    +0.073 C 
BRANCH  29  30
ATOM     30  C   LIG    1      -23.870  81.423  14.840  0.00  0.00    +0.009 C 
ATOM     31  C   LIG    1      -24.818  80.772  13.855  0.00  0.00    +0.005 C 
ATOM     32  C   LIG    1      -24.107  82.042  13.479  0.00  0.00    +0.005 C 
ENDBRANCH  29  30
ENDBRANCH  24  29
ENDBRANCH   1  26
TORSDOF 5
ENDMDL
MODEL 7
REMARK VINA RESULT:      -5.2      2.606      5.514
REMARK  Name = pdb/CHEMBL3676098.pdb
REMARK                            x       y       z     vdW  Elec       q    Type
REMARK                         _______ _______ _______ _____ _____    ______ ____
ROOT
ATOM      1  C   LIG    1      -24.600  84.460  11.328  0.00  0.00    +0.100 A 
ATOM      2  C   LIG    1      -25.010  83.158  11.598  0.00  0.00    +0.170 A 
ATOM      3  N   LIG    1      -24.809  82.303  12.661  0.00  0.00    -0.212 NA
ATOM      4  C   LIG    1      -25.283  81.071  12.573  0.00  0.00    +0.126 A 
ATOM      5  C   LIG    1      -26.072  80.611  11.371  0.00  0.00    +0.063 A 
ATOM      6  C   LIG    1      -26.282  81.493  10.392  0.00  0.00    +0.118 A 
ATOM      7  N   LIG    1      -25.734  82.758  10.469  0.00  0.00    -0.221 N 
ATOM      8  N   LIG    1      -25.738  83.689   9.492  0.00  0.00    -0.173 NA
ATOM      9  C   LIG    1      -25.006  84.679   9.992  0.00  0.00    +0.150 A 
ENDROOT
BRANCH   4  10
ATOM     10  N   LIG    1      -25.030  80.159  13.596  0.00  0.00    -0.308 N 
ATOM     11  C   LIG    1      -23.723  79.492  13.826  0.00  0.00    +0.110 C 
ATOM     12  C   LIG    1      -24.105  78.131  14.427  0.00  0.00    +0.029 C 
ATOM     13  C   LIG    1      -25.402  78.431  15.157  0.00  0.00    +0.021 C 
ATOM     14  C   LIG    1      -26.110  79.359  14.179  0.00  0.00    +0.107 C 
BRANCH  11  15
ATOM     15  C   LIG    1      -22.825  80.261  14.770  0.00  0.00    +0.040 A 
ATOM     16  C   LIG    1      -21.348  80.086  14.507  0.00  0.00    +0.256 A 
ATOM     17  O   LIG    1      -20.960  79.205  13.744  0.00  0.00    -0.267 OA
ATOM     18  N   LIG    1      -20.492  80.977  15.159  0.00  0.00    -0.315 N 
ATOM     19  C   LIG    1      -19.074  80.941  14.843  0.00  0.00    +0.152 C 
ATOM     20  C   LIG    1      -20.930  81.760  16.215  0.00  0.00    +0.127 A 
ATOM     21  C   LIG    1      -22.220  81.775  16.562  0.00  0.00    +0.140 A 
ATOM     22  F   LIG    1      -22.638  82.487  17.625  0.00  0.00    -0.204 F 
ATOM     23  C   LIG    1      -23.196  81.062  15.785  0.00  0.00    +0.050 A 
ENDBRANCH  11  15
ENDBRANCH   4  10
BRANCH   1  26
ATOM     24  N   LIG    1      -23.050  84.916  13.100  0.00  0.00    -0.308 N 
ATOM     25  H   LIG    1      -22.981  83.901  13.161  0.00  0.00    +0.149 HD
ATOM     26  C   LIG    1      -23.884  85.421  12.139  0.00  0.00    +0.249 C 
ATOM     27  O   LIG    1      -24.040  86.638  11.952  0.00  0.00    -0.270 OA
BRANCH  24  29
ATOM     28  C   LIG    1      -22.583  85.400  15.471  0.00  0.00    +0.028 C 
ATOM     29  C   LIG    1      -22.285  85.761  14.012  0.00  0.00    +0.073 C 
BRANCH  29  30
ATOM     30  C   LIG    1      -20.812  85.661  13.657  0.00  0.00    +0.009 C 
ATOM     31  C   LIG    1      -19.924  86.878  13.500  0.00  0.00    +0.005 C 
ATOM     32  C   LIG    1      -20.292  86.062  12.293  0.00  0.00    +0.005 C 
ENDBRANCH  29  30
ENDBRANCH  24  29
ENDBRANCH   1  26
TORSDOF 5
ENDMDL
MODEL 8
REMARK VINA RESULT:      -5.1      3.515      5.786
REMARK  Name = pdb/CHEMBL3676098.pdb
REMARK                            x       y       z     vdW  Elec       q    Type
REMARK                         _______ _______ _______ _____ _____    ______ ____
ROOT
ATOM      1  C   LIG    1      -22.634  83.273  15.139  0.00  0.00    +0.100 A 
ATOM      2  C   LIG    1      -23.230  82.061  14.804  0.00  0.00    +0.170 A 
ATOM      3  N   LIG    1      -23.864  81.598  13.671  0.00  0.00    -0.212 NA
ATOM      4  C   LIG    1      -24.401  80.389  13.703  0.00  0.00    +0.126 A 
ATOM      5  C   LIG    1      -24.287  79.504  14.921  0.00  0.00    +0.063 A 
ATOM      6  C   LIG    1      -23.619  79.980  15.973  0.00  0.00    +0.118 A 
ATOM      7  N   LIG    1      -23.112  81.264  15.949  0.00  0.00    -0.221 N 
ATOM      8  N   LIG    1      -22.555  81.921  16.989  0.00  0.00    -0.173 NA
ATOM      9  C   LIG    1      -22.329  83.141  16.512  0.00  0.00    +0.150 A 
ENDROOT
BRANCH   4  10
ATOM     10  N   LIG    1      -25.117  79.921  12.602  0.00  0.00    -0.308 N 
ATOM     11  C   LIG    1      -24.820  78.659  11.880  0.00  0.00    +0.110 C 
ATOM     12  C   LIG    1      -25.249  78.952  10.433  0.00  0.00    +0.029 C 
ATOM     13  C   LIG    1      -26.375  79.956  10.608  0.00  0.00    +0.021 C 
ATOM     14  C   LIG    1      -25.840  80.844  11.723  0.00  0.00    +0.107 C 
BRANCH  11  15
ATOM     15  C   LIG    1      -25.577  77.470  12.430  0.00  0.00    +0.040 A 
ATOM     16  C   LIG    1      -24.699  76.329  12.888  0.00  0.00    +0.256 A 
ATOM     17  O   LIG    1      -23.506  76.317  12.596  0.00  0.00    -0.267 OA
ATOM     18  N   LIG    1      -25.320  75.336  13.651  0.00  0.00    -0.315 N 
ATOM     19  C   LIG    1      -24.499  74.285  14.228  0.00  0.00    +0.152 C 
ATOM     20  C   LIG    1      -26.699  75.233  13.720  0.00  0.00    +0.127 A 
ATOM     21  C   LIG    1      -27.480  76.157  13.155  0.00  0.00    +0.140 A 
ATOM     22  F   LIG    1      -28.820  76.028  13.168  0.00  0.00    -0.204 F 
ATOM     23  C   LIG    1      -26.910  77.332  12.555  0.00  0.00    +0.050 A 
ENDBRANCH  11  15
ENDBRANCH   4  10
BRANCH   1  26
ATOM     24  N   LIG    1      -21.880  85.547  15.016  0.00  0.00    -0.308 N 
ATOM     25  H   LIG    1      -21.700  85.432  16.012  0.00  0.00    +0.149 HD
ATOM     26  C   LIG    1      -22.385  84.461  14.351  0.00  0.00    +0.249 C 
ATOM     27  O   LIG    1      -22.629  84.469  13.135  0.00  0.00    -0.270 OA
BRANCH  24  29
ATOM     28  C   LIG    1      -22.370  87.961  15.041  0.00  0.00    +0.028 C 
ATOM     29  C   LIG    1      -21.604  86.822  14.361  0.00  0.00    +0.073 C 
BRANCH  29  30
ATOM     30  C   LIG    1      -20.103  87.044  14.327  0.00  0.00    +0.009 C 
ATOM     31  C   LIG    1      -19.368  87.471  13.073  0.00  0.00    +0.005 C 
ATOM     32  C   LIG    1      -19.172  86.084  13.617  0.00  0.00    +0.005 C 
ENDBRANCH  29  30
ENDBRANCH  24  29
ENDBRANCH   1  26
TORSDOF 5
ENDMDL
MODEL 9
REMARK VINA RESULT:      -5.1     14.503     17.088
REMARK  Name = pdb/CHEMBL3676098.pdb
REMARK                            x       y       z     vdW  Elec       q    Type
REMARK                         _______ _______ _______ _____ _____    ______ ____
ROOT
ATOM      1  C   LIG    1      -31.868  93.657  22.989  0.00  0.00    +0.100 A 
ATOM      2  C   LIG    1      -32.564  93.467  21.799  0.00  0.00    +0.170 A 
ATOM      3  N   LIG    1      -33.611  92.647  21.434  0.00  0.00    -0.212 NA
ATOM      4  C   LIG    1      -34.001  92.652  20.170  0.00  0.00    +0.126 A 
ATOM      5  C   LIG    1      -33.363  93.564  19.149  0.00  0.00    +0.063 A 
ATOM      6  C   LIG    1      -32.387  94.374  19.564  0.00  0.00    +0.118 A 
ATOM      7  N   LIG    1      -31.951  94.319  20.873  0.00  0.00    -0.221 N 
ATOM      8  N   LIG    1      -30.882  94.965  21.385  0.00  0.00    -0.173 NA
ATOM      9  C   LIG    1      -30.804  94.516  22.633  0.00  0.00    +0.150 A 
ENDROOT
BRANCH   4  10
ATOM     10  N   LIG    1      -35.004  91.780  19.752  0.00  0.00    -0.308 N 
ATOM     11  C   LIG    1      -35.534  91.708  18.367  0.00  0.00    +0.110 C 
ATOM     12  C   LIG    1      -36.999  91.283  18.555  0.00  0.00    +0.029 C 
ATOM     13  C   LIG    1      -36.955  90.457  19.828  0.00  0.00    +0.021 C 
ATOM     14  C   LIG    1      -35.997  91.262  20.696  0.00  0.00    +0.107 C 
BRANCH  11  15
ATOM     15  C   LIG    1      -34.795  90.710  17.502  0.00  0.00    +0.040 A 
ATOM     16  C   LIG    1      -34.855  91.003  16.022  0.00  0.00    +0.256 A 
ATOM     17  O   LIG    1      -35.641  91.844  15.593  0.00  0.00    -0.267 OA
ATOM     18  N   LIG    1      -33.971  90.285  15.211  0.00  0.00    -0.315 N 
ATOM     19  C   LIG    1      -33.892  90.619  13.798  0.00  0.00    +0.152 C 
ATOM     20  C   LIG    1      -33.311  89.161  15.679  0.00  0.00    +0.127 A 
ATOM     21  C   LIG    1      -33.406  88.799  16.961  0.00  0.00    +0.140 A 
ATOM     22  F   LIG    1      -32.816  87.674  17.405  0.00  0.00    -0.204 F 
ATOM     23  C   LIG    1      -34.108  89.625  17.905  0.00  0.00    +0.050 A 
ENDBRANCH  11  15
ENDBRANCH   4  10
BRANCH   1  26
ATOM     24  N   LIG    1      -32.744  93.909  25.208  0.00  0.00    -0.308 N 
ATOM     25  H   LIG    1      -33.056  94.818  24.869  0.00  0.00    +0.149 HD
ATOM     26  C   LIG    1      -32.079  93.113  24.313  0.00  0.00    +0.249 C 
ATOM     27  O   LIG    1      -31.667  91.978  24.597  0.00  0.00    -0.270 OA
BRANCH  24  29
ATOM     28  C   LIG    1      -32.368  94.493  27.572  0.00  0.00    +0.028 C 
ATOM     29  C   LIG    1      -33.006  93.508  26.586  0.00  0.00    +0.073 C 
BRANCH  29  30
ATOM     30  C   LIG    1      -34.504  93.351  26.778  0.00  0.00    +0.009 C 
ATOM     31  C   LIG    1      -35.149  92.026  27.125  0.00  0.00    +0.005 C 
ATOM     32  C   LIG    1      -35.364  92.628  25.764  0.00  0.00    +0.005 C 
ENDBRANCH  29  30
ENDBRANCH  24  29
ENDBRANCH   1  26
TORSDOF 5
ENDMDL
