MODEL 1
REMARK VINA RESULT:      -6.0      0.000      0.000
REMARK  Name = pdb/CHEMBL3676035.pdb
REMARK                            x       y       z     vdW  Elec       q    Type
REMARK                         _______ _______ _______ _____ _____    ______ ____
ROOT
ATOM      1  C   LIG    1      -19.483  77.672  31.328  0.00  0.00    +0.100 A 
ATOM      2  C   LIG    1      -19.643  78.237  32.578  0.00  0.00    +0.170 A 
ATOM      3  N   LIG    1      -20.743  78.747  33.222  0.00  0.00    -0.212 NA
ATOM      4  C   LIG    1      -20.593  79.169  34.459  0.00  0.00    +0.126 A 
ATOM      5  C   LIG    1      -19.290  78.992  35.206  0.00  0.00    +0.063 A 
ATOM      6  C   LIG    1      -18.235  78.562  34.508  0.00  0.00    +0.118 A 
ATOM      7  N   LIG    1      -18.383  78.211  33.178  0.00  0.00    -0.221 N 
ATOM      8  N   LIG    1      -17.421  77.789  32.327  0.00  0.00    -0.173 NA
ATOM      9  C   LIG    1      -18.091  77.458  31.222  0.00  0.00    +0.150 A 
ENDROOT
BRANCH   4  10
ATOM     10  N   LIG    1      -21.645  79.815  35.097  0.00  0.00    -0.308 N 
ATOM     11  C   LIG    1      -21.898  79.643  36.545  0.00  0.00    +0.108 C 
ATOM     12  C   LIG    1      -23.391  79.283  36.577  0.00  0.00    +0.029 C 
ATOM     13  C   LIG    1      -23.982  80.144  35.473  0.00  0.00    +0.021 C 
ATOM     14  C   LIG    1      -22.910  80.085  34.392  0.00  0.00    +0.107 C 
BRANCH  11  15
ATOM     15  C   LIG    1      -21.556  80.912  37.313  0.00  0.00    +0.011 A 
ATOM     16  C   LIG    1      -21.804  81.001  38.690  0.00  0.00    +0.129 A 
ATOM     17  F   LIG    1      -22.333  79.957  39.346  0.00  0.00    -0.205 F 
ATOM     18  C   LIG    1      -21.506  82.158  39.419  0.00  0.00    +0.041 A 
ATOM     19  C   LIG    1      -20.953  83.262  38.772  0.00  0.00    +0.041 A 
ATOM     20  C   LIG    1      -20.703  83.191  37.410  0.00  0.00    +0.124 A 
ATOM     21  F   LIG    1      -20.174  84.244  36.774  0.00  0.00    -0.205 F 
ATOM     22  C   LIG    1      -20.995  82.039  36.687  0.00  0.00    +0.046 A 
ENDBRANCH  11  15
ENDBRANCH   4  10
BRANCH   1  25
ATOM     23  N   LIG    1      -21.790  77.596  30.694  0.00  0.00    -0.309 N 
ATOM     24  H   LIG    1      -21.952  77.944  31.637  0.00  0.00    +0.149 HD
ATOM     25  C   LIG    1      -20.481  77.375  30.318  0.00  0.00    +0.249 C 
ATOM     26  O   LIG    1      -20.173  76.995  29.202  0.00  0.00    -0.270 OA
BRANCH  23  27
ATOM     27  C   LIG    1      -22.925  77.394  29.798  0.00  0.00    +0.135 C 
BRANCH  27  29
ATOM     28  C   LIG    1      -24.355  77.784  31.870  0.00  0.00    +0.039 C 
ATOM     29  C   LIG    1      -24.233  77.983  30.364  0.00  0.00    +0.128 C 
BRANCH  29  30
ATOM     30  O   LIG    1      -25.386  77.379  29.779  0.00  0.00    -0.391 OA
ATOM     31  H   LIG    1      -25.857  76.900  30.485  0.00  0.00    +0.210 HD
ENDBRANCH  29  30
ENDBRANCH  27  29
ENDBRANCH  23  27
ENDBRANCH   1  25
TORSDOF 6
ENDMDL
MODEL 2
REMARK VINA RESULT:      -6.0      2.588      5.207
REMARK  Name = pdb/CHEMBL3676035.pdb
REMARK                            x       y       z     vdW  Elec       q    Type
REMARK                         _______ _______ _______ _____ _____    ______ ____
ROOT
ATOM      1  C   LIG    1      -25.578  77.421  32.873  0.00  0.00    +0.100 A 
ATOM      2  C   LIG    1      -25.068  78.212  33.884  0.00  0.00    +0.170 A 
ATOM      3  N   LIG    1      -23.894  78.913  33.999  0.00  0.00    -0.212 NA
ATOM      4  C   LIG    1      -23.713  79.640  35.081  0.00  0.00    +0.126 A 
ATOM      5  C   LIG    1      -24.803  79.809  36.116  0.00  0.00    +0.063 A 
ATOM      6  C   LIG    1      -25.892  79.044  35.991  0.00  0.00    +0.118 A 
ATOM      7  N   LIG    1      -26.029  78.210  34.897  0.00  0.00    -0.221 N 
ATOM      8  N   LIG    1      -27.045  77.357  34.635  0.00  0.00    -0.173 NA
ATOM      9  C   LIG    1      -26.771  76.895  33.415  0.00  0.00    +0.150 A 
ENDROOT
BRANCH   4  10
ATOM     10  N   LIG    1      -22.486  80.254  35.298  0.00  0.00    -0.308 N 
ATOM     11  C   LIG    1      -21.474  79.668  36.206  0.00  0.00    +0.108 C 
ATOM     12  C   LIG    1      -21.121  80.856  37.114  0.00  0.00    +0.029 C 
ATOM     13  C   LIG    1      -21.163  82.044  36.168  0.00  0.00    +0.021 C 
ATOM     14  C   LIG    1      -22.355  81.721  35.277  0.00  0.00    +0.107 C 
BRANCH  11  15
ATOM     15  C   LIG    1      -20.289  79.121  35.422  0.00  0.00    +0.011 A 
ATOM     16  C   LIG    1      -19.261  78.427  36.077  0.00  0.00    +0.129 A 
ATOM     17  F   LIG    1      -19.324  78.225  37.401  0.00  0.00    -0.205 F 
ATOM     18  C   LIG    1      -18.157  77.921  35.382  0.00  0.00    +0.041 A 
ATOM     19  C   LIG    1      -18.059  78.108  34.004  0.00  0.00    +0.041 A 
ATOM     20  C   LIG    1      -19.066  78.794  33.343  0.00  0.00    +0.124 A 
ATOM     21  F   LIG    1      -18.984  78.985  32.020  0.00  0.00    -0.205 F 
ATOM     22  C   LIG    1      -20.165  79.293  34.033  0.00  0.00    +0.046 A 
ENDBRANCH  11  15
ENDBRANCH   4  10
BRANCH   1  25
ATOM     23  N   LIG    1      -24.001  76.231  31.521  0.00  0.00    -0.309 N 
ATOM     24  H   LIG    1      -23.707  75.826  32.408  0.00  0.00    +0.149 HD
ATOM     25  C   LIG    1      -25.033  77.146  31.557  0.00  0.00    +0.249 C 
ATOM     26  O   LIG    1      -25.488  77.663  30.552  0.00  0.00    -0.270 OA
BRANCH  23  27
ATOM     27  C   LIG    1      -23.357  75.798  30.285  0.00  0.00    +0.135 C 
BRANCH  27  29
ATOM     28  C   LIG    1      -21.568  77.518  30.863  0.00  0.00    +0.039 C 
ATOM     29  C   LIG    1      -22.355  76.842  29.748  0.00  0.00    +0.128 C 
BRANCH  29  30
ATOM     30  O   LIG    1      -23.009  77.883  29.022  0.00  0.00    -0.391 OA
ATOM     31  H   LIG    1      -22.336  78.324  28.473  0.00  0.00    +0.210 HD
ENDBRANCH  29  30
ENDBRANCH  27  29
ENDBRANCH  23  27
ENDBRANCH   1  25
TORSDOF 6
ENDMDL
MODEL 3
REMARK VINA RESULT:      -5.7     18.991     22.378
REMARK  Name = pdb/CHEMBL3676035.pdb
REMARK                            x       y       z     vdW  Elec       q    Type
REMARK                         _______ _______ _______ _____ _____    ______ ____
ROOT
ATOM      1  C   LIG    1      -35.210  67.566  23.233  0.00  0.00    +0.100 A 
ATOM      2  C   LIG    1      -36.315  67.967  22.508  0.00  0.00    +0.170 A 
ATOM      3  N   LIG    1      -37.399  68.741  22.837  0.00  0.00    -0.212 NA
ATOM      4  C   LIG    1      -38.279  69.005  21.894  0.00  0.00    +0.126 A 
ATOM      5  C   LIG    1      -38.055  68.583  20.459  0.00  0.00    +0.063 A 
ATOM      6  C   LIG    1      -37.025  67.769  20.212  0.00  0.00    +0.118 A 
ATOM      7  N   LIG    1      -36.160  67.419  21.233  0.00  0.00    -0.221 N 
ATOM      8  N   LIG    1      -35.095  66.590  21.161  0.00  0.00    -0.173 NA
ATOM      9  C   LIG    1      -34.525  66.690  22.362  0.00  0.00    +0.150 A 
ENDROOT
BRANCH   4  10
ATOM     10  N   LIG    1      -39.455  69.668  22.219  0.00  0.00    -0.308 N 
ATOM     11  C   LIG    1      -39.809  69.978  23.623  0.00  0.00    +0.108 C 
ATOM     12  C   LIG    1      -41.243  69.434  23.727  0.00  0.00    +0.029 C 
ATOM     13  C   LIG    1      -41.839  69.757  22.368  0.00  0.00    +0.021 C 
ATOM     14  C   LIG    1      -40.678  69.484  21.419  0.00  0.00    +0.107 C 
BRANCH  11  15
ATOM     15  C   LIG    1      -39.699  71.472  23.897  0.00  0.00    +0.011 A 
ATOM     16  C   LIG    1      -38.566  71.997  24.536  0.00  0.00    +0.129 A 
ATOM     17  F   LIG    1      -37.562  71.185  24.899  0.00  0.00    -0.205 F 
ATOM     18  C   LIG    1      -38.443  73.364  24.807  0.00  0.00    +0.041 A 
ATOM     19  C   LIG    1      -39.464  74.240  24.442  0.00  0.00    +0.041 A 
ATOM     20  C   LIG    1      -40.591  73.735  23.810  0.00  0.00    +0.124 A 
ATOM     21  F   LIG    1      -41.582  74.563  23.456  0.00  0.00    -0.205 F 
ATOM     22  C   LIG    1      -40.712  72.377  23.538  0.00  0.00    +0.046 A 
ENDBRANCH  11  15
ENDBRANCH   4  10
BRANCH   1  25
ATOM     23  N   LIG    1      -34.928  69.254  24.907  0.00  0.00    -0.309 N 
ATOM     24  H   LIG    1      -35.265  69.882  24.180  0.00  0.00    +0.149 HD
ATOM     25  C   LIG    1      -34.822  67.916  24.586  0.00  0.00    +0.249 C 
ATOM     26  O   LIG    1      -34.464  67.074  25.391  0.00  0.00    -0.270 OA
BRANCH  23  27
ATOM     27  C   LIG    1      -34.621  69.786  26.231  0.00  0.00    +0.135 C 
BRANCH  27  29
ATOM     28  C   LIG    1      -35.973  70.702  28.187  0.00  0.00    +0.039 C 
ATOM     29  C   LIG    1      -35.753  69.524  27.246  0.00  0.00    +0.128 C 
BRANCH  29  30
ATOM     30  O   LIG    1      -35.479  68.392  28.070  0.00  0.00    -0.391 OA
ATOM     31  H   LIG    1      -35.846  67.608  27.623  0.00  0.00    +0.210 HD
ENDBRANCH  29  30
ENDBRANCH  27  29
ENDBRANCH  23  27
ENDBRANCH   1  25
TORSDOF 6
ENDMDL
MODEL 4
REMARK VINA RESULT:      -5.6     14.998     18.171
REMARK  Name = pdb/CHEMBL3676035.pdb
REMARK                            x       y       z     vdW  Elec       q    Type
REMARK                         _______ _______ _______ _____ _____    ______ ____
ROOT
ATOM      1  C   LIG    1      -38.894  72.975  24.609  0.00  0.00    +0.100 A 
ATOM      2  C   LIG    1      -38.504  74.126  25.263  0.00  0.00    +0.170 A 
ATOM      3  N   LIG    1      -37.517  74.370  26.185  0.00  0.00    -0.212 NA
ATOM      4  C   LIG    1      -37.342  75.611  26.589  0.00  0.00    +0.126 A 
ATOM      5  C   LIG    1      -38.110  76.760  25.976  0.00  0.00    +0.063 A 
ATOM      6  C   LIG    1      -39.109  76.457  25.142  0.00  0.00    +0.118 A 
ATOM      7  N   LIG    1      -39.346  75.138  24.798  0.00  0.00    -0.221 N 
ATOM      8  N   LIG    1      -40.324  74.660  23.997  0.00  0.00    -0.173 NA
ATOM      9  C   LIG    1      -40.041  73.362  23.881  0.00  0.00    +0.150 A 
ENDROOT
BRANCH   4  10
ATOM     10  N   LIG    1      -36.449  75.878  27.618  0.00  0.00    -0.308 N 
ATOM     11  C   LIG    1      -34.998  76.030  27.366  0.00  0.00    +0.108 C 
ATOM     12  C   LIG    1      -34.383  75.075  28.401  0.00  0.00    +0.029 C 
ATOM     13  C   LIG    1      -35.291  75.237  29.608  0.00  0.00    +0.021 C 
ATOM     14  C   LIG    1      -36.672  75.353  28.976  0.00  0.00    +0.107 C 
BRANCH  11  15
ATOM     15  C   LIG    1      -34.563  77.480  27.534  0.00  0.00    +0.011 A 
ATOM     16  C   LIG    1      -33.261  77.877  27.199  0.00  0.00    +0.129 A 
ATOM     17  F   LIG    1      -32.390  76.982  26.712  0.00  0.00    -0.205 F 
ATOM     18  C   LIG    1      -32.834  79.201  27.352  0.00  0.00    +0.041 A 
ATOM     19  C   LIG    1      -33.713  80.161  27.852  0.00  0.00    +0.041 A 
ATOM     20  C   LIG    1      -35.004  79.783  28.190  0.00  0.00    +0.124 A 
ATOM     21  F   LIG    1      -35.858  80.693  28.675  0.00  0.00    -0.205 F 
ATOM     22  C   LIG    1      -35.429  78.468  28.035  0.00  0.00    +0.046 A 
ENDBRANCH  11  15
ENDBRANCH   4  10
BRANCH   1  25
ATOM     23  N   LIG    1      -36.989  71.595  25.053  0.00  0.00    -0.309 N 
ATOM     24  H   LIG    1      -36.536  72.477  25.283  0.00  0.00    +0.149 HD
ATOM     25  C   LIG    1      -38.308  71.648  24.653  0.00  0.00    +0.249 C 
ATOM     26  O   LIG    1      -38.956  70.650  24.391  0.00  0.00    -0.270 OA
BRANCH  23  27
ATOM     27  C   LIG    1      -36.246  70.346  25.198  0.00  0.00    +0.135 C 
BRANCH  27  29
ATOM     28  C   LIG    1      -35.056  71.524  27.118  0.00  0.00    +0.039 C 
ATOM     29  C   LIG    1      -34.922  70.536  25.967  0.00  0.00    +0.128 C 
BRANCH  29  30
ATOM     30  O   LIG    1      -33.883  71.031  25.124  0.00  0.00    -0.391 OA
ATOM     31  H   LIG    1      -33.226  71.471  25.694  0.00  0.00    +0.210 HD
ENDBRANCH  29  30
ENDBRANCH  27  29
ENDBRANCH  23  27
ENDBRANCH   1  25
TORSDOF 6
ENDMDL
MODEL 5
REMARK VINA RESULT:      -5.6     20.521     23.308
REMARK  Name = pdb/CHEMBL3676035.pdb
REMARK                            x       y       z     vdW  Elec       q    Type
REMARK                         _______ _______ _______ _____ _____    ______ ____
ROOT
ATOM      1  C   LIG    1      -40.162  69.190  21.547  0.00  0.00    +0.100 A 
ATOM      2  C   LIG    1      -39.450  69.813  22.552  0.00  0.00    +0.170 A 
ATOM      3  N   LIG    1      -39.795  70.785  23.458  0.00  0.00    -0.212 NA
ATOM      4  C   LIG    1      -38.898  71.141  24.354  0.00  0.00    +0.126 A 
ATOM      5  C   LIG    1      -37.572  70.425  24.477  0.00  0.00    +0.063 A 
ATOM      6  C   LIG    1      -37.259  69.542  23.524  0.00  0.00    +0.118 A 
ATOM      7  N   LIG    1      -38.174  69.246  22.529  0.00  0.00    -0.221 N 
ATOM      8  N   LIG    1      -38.008  68.407  21.483  0.00  0.00    -0.173 NA
ATOM      9  C   LIG    1      -39.208  68.371  20.904  0.00  0.00    +0.150 A 
ENDROOT
BRANCH   4  10
ATOM     10  N   LIG    1      -39.160  72.212  25.198  0.00  0.00    -0.308 N 
ATOM     11  C   LIG    1      -38.324  73.434  25.182  0.00  0.00    +0.108 C 
ATOM     12  C   LIG    1      -37.980  73.616  26.669  0.00  0.00    +0.029 C 
ATOM     13  C   LIG    1      -39.254  73.189  27.377  0.00  0.00    +0.021 C 
ATOM     14  C   LIG    1      -39.720  72.002  26.544  0.00  0.00    +0.107 C 
BRANCH  11  15
ATOM     15  C   LIG    1      -39.085  74.608  24.581  0.00  0.00    +0.011 A 
ATOM     16  C   LIG    1      -38.508  75.886  24.541  0.00  0.00    +0.129 A 
ATOM     17  F   LIG    1      -37.271  76.080  25.020  0.00  0.00    -0.205 F 
ATOM     18  C   LIG    1      -39.189  76.983  24.001  0.00  0.00    +0.041 A 
ATOM     19  C   LIG    1      -40.476  76.819  23.490  0.00  0.00    +0.041 A 
ATOM     20  C   LIG    1      -41.060  75.562  23.525  0.00  0.00    +0.124 A 
ATOM     21  F   LIG    1      -42.297  75.390  23.041  0.00  0.00    -0.205 F 
ATOM     22  C   LIG    1      -40.382  74.471  24.057  0.00  0.00    +0.046 A 
ENDBRANCH  11  15
ENDBRANCH   4  10
BRANCH   1  25
ATOM     23  N   LIG    1      -42.145  70.532  21.546  0.00  0.00    -0.309 N 
ATOM     24  H   LIG    1      -41.560  71.209  22.032  0.00  0.00    +0.149 HD
ATOM     25  C   LIG    1      -41.559  69.336  21.184  0.00  0.00    +0.249 C 
ATOM     26  O   LIG    1      -42.157  68.473  20.567  0.00  0.00    -0.270 OA
BRANCH  23  27
ATOM     27  C   LIG    1      -43.528  70.874  21.229  0.00  0.00    +0.135 C 
BRANCH  27  29
ATOM     28  C   LIG    1      -45.083  72.099  19.624  0.00  0.00    +0.039 C 
ATOM     29  C   LIG    1      -43.651  71.666  19.910  0.00  0.00    +0.128 C 
BRANCH  29  30
ATOM     30  O   LIG    1      -43.226  70.896  18.786  0.00  0.00    -0.391 OA
ATOM     31  H   LIG    1      -44.013  70.456  18.417  0.00  0.00    +0.210 HD
ENDBRANCH  29  30
ENDBRANCH  27  29
ENDBRANCH  23  27
ENDBRANCH   1  25
TORSDOF 6
ENDMDL
MODEL 6
REMARK VINA RESULT:      -5.6     17.032     21.587
REMARK  Name = pdb/CHEMBL3676035.pdb
REMARK                            x       y       z     vdW  Elec       q    Type
REMARK                         _______ _______ _______ _____ _____    ______ ____
ROOT
ATOM      1  C   LIG    1      -37.715  76.284  25.717  0.00  0.00    +0.100 A 
ATOM      2  C   LIG    1      -38.179  75.084  25.217  0.00  0.00    +0.170 A 
ATOM      3  N   LIG    1      -37.712  73.798  25.329  0.00  0.00    -0.212 NA
ATOM      4  C   LIG    1      -38.420  72.834  24.780  0.00  0.00    +0.126 A 
ATOM      5  C   LIG    1      -39.770  73.099  24.152  0.00  0.00    +0.063 A 
ATOM      6  C   LIG    1      -40.138  74.374  24.003  0.00  0.00    +0.118 A 
ATOM      7  N   LIG    1      -39.338  75.387  24.499  0.00  0.00    -0.221 N 
ATOM      8  N   LIG    1      -39.547  76.720  24.408  0.00  0.00    -0.173 NA
ATOM      9  C   LIG    1      -38.574  77.251  25.149  0.00  0.00    +0.150 A 
ENDROOT
BRANCH   4  10
ATOM     10  N   LIG    1      -37.914  71.541  24.754  0.00  0.00    -0.308 N 
ATOM     11  C   LIG    1      -38.803  70.361  24.660  0.00  0.00    +0.108 C 
ATOM     12  C   LIG    1      -38.304  69.481  25.817  0.00  0.00    +0.029 C 
ATOM     13  C   LIG    1      -36.801  69.703  25.802  0.00  0.00    +0.021 C 
ATOM     14  C   LIG    1      -36.685  71.189  25.487  0.00  0.00    +0.107 C 
BRANCH  11  15
ATOM     15  C   LIG    1      -38.689  69.699  23.293  0.00  0.00    +0.011 A 
ATOM     16  C   LIG    1      -39.796  69.644  22.434  0.00  0.00    +0.129 A 
ATOM     17  F   LIG    1      -40.963  70.190  22.806  0.00  0.00    -0.205 F 
ATOM     18  C   LIG    1      -39.721  69.035  21.176  0.00  0.00    +0.041 A 
ATOM     19  C   LIG    1      -38.523  68.460  20.753  0.00  0.00    +0.041 A 
ATOM     20  C   LIG    1      -37.420  68.505  21.593  0.00  0.00    +0.124 A 
ATOM     21  F   LIG    1      -36.264  67.954  21.202  0.00  0.00    -0.205 F 
ATOM     22  C   LIG    1      -37.494  69.113  22.841  0.00  0.00    +0.046 A 
ENDBRANCH  11  15
ENDBRANCH   4  10
BRANCH   1  25
ATOM     23  N   LIG    1      -35.808  75.443  26.895  0.00  0.00    -0.309 N 
ATOM     24  H   LIG    1      -36.074  74.554  26.478  0.00  0.00    +0.149 HD
ATOM     25  C   LIG    1      -36.592  76.539  26.600  0.00  0.00    +0.249 C 
ATOM     26  O   LIG    1      -36.343  77.657  27.016  0.00  0.00    -0.270 OA
BRANCH  23  27
ATOM     27  C   LIG    1      -34.614  75.516  27.732  0.00  0.00    +0.135 C 
BRANCH  27  29
ATOM     28  C   LIG    1      -32.888  74.182  29.049  0.00  0.00    +0.039 C 
ATOM     29  C   LIG    1      -34.230  74.146  28.328  0.00  0.00    +0.128 C 
BRANCH  29  30
ATOM     30  O   LIG    1      -34.124  73.138  27.323  0.00  0.00    -0.391 OA
ATOM     31  H   LIG    1      -34.246  72.275  27.758  0.00  0.00    +0.210 HD
ENDBRANCH  29  30
ENDBRANCH  27  29
ENDBRANCH  23  27
ENDBRANCH   1  25
TORSDOF 6
ENDMDL
MODEL 7
REMARK VINA RESULT:      -5.6     20.671     24.034
REMARK  Name = pdb/CHEMBL3676035.pdb
REMARK                            x       y       z     vdW  Elec       q    Type
REMARK                         _______ _______ _______ _____ _____    ______ ____
ROOT
ATOM      1  C   LIG    1      -42.552  70.391  20.687  0.00  0.00    +0.100 A 
ATOM      2  C   LIG    1      -42.720  71.559  21.404  0.00  0.00    +0.170 A 
ATOM      3  N   LIG    1      -42.080  72.058  22.511  0.00  0.00    -0.212 NA
ATOM      4  C   LIG    1      -42.427  73.253  22.939  0.00  0.00    +0.126 A 
ATOM      5  C   LIG    1      -43.408  74.115  22.176  0.00  0.00    +0.063 A 
ATOM      6  C   LIG    1      -44.055  73.551  21.152  0.00  0.00    +0.118 A 
ATOM      7  N   LIG    1      -43.750  72.257  20.770  0.00  0.00    -0.221 N 
ATOM      8  N   LIG    1      -44.325  71.533  19.784  0.00  0.00    -0.173 NA
ATOM      9  C   LIG    1      -43.595  70.418  19.734  0.00  0.00    +0.150 A 
ENDROOT
BRANCH   4  10
ATOM     10  N   LIG    1      -41.902  73.735  24.131  0.00  0.00    -0.308 N 
ATOM     11  C   LIG    1      -40.485  73.515  24.500  0.00  0.00    +0.108 C 
ATOM     12  C   LIG    1      -40.602  72.944  25.922  0.00  0.00    +0.029 C 
ATOM     13  C   LIG    1      -41.763  73.721  26.517  0.00  0.00    +0.021 C 
ATOM     14  C   LIG    1      -42.731  73.827  25.346  0.00  0.00    +0.107 C 
BRANCH  11  15
ATOM     15  C   LIG    1      -39.693  74.813  24.423  0.00  0.00    +0.011 A 
ATOM     16  C   LIG    1      -38.349  74.853  24.822  0.00  0.00    +0.129 A 
ATOM     17  F   LIG    1      -37.746  73.739  25.261  0.00  0.00    -0.205 F 
ATOM     18  C   LIG    1      -37.601  76.034  24.768  0.00  0.00    +0.041 A 
ATOM     19  C   LIG    1      -38.194  77.211  24.314  0.00  0.00    +0.041 A 
ATOM     20  C   LIG    1      -39.522  77.188  23.918  0.00  0.00    +0.124 A 
ATOM     21  F   LIG    1      -40.106  78.312  23.482  0.00  0.00    -0.205 F 
ATOM     22  C   LIG    1      -40.265  76.014  23.967  0.00  0.00    +0.046 A 
ENDBRANCH  11  15
ENDBRANCH   4  10
BRANCH   1  25
ATOM     23  N   LIG    1      -40.303  69.765  21.213  0.00  0.00    -0.309 N 
ATOM     24  H   LIG    1      -40.162  70.767  21.327  0.00  0.00    +0.149 HD
ATOM     25  C   LIG    1      -41.566  69.341  20.857  0.00  0.00    +0.249 C 
ATOM     26  O   LIG    1      -41.853  68.163  20.730  0.00  0.00    -0.270 OA
BRANCH  23  27
ATOM     27  C   LIG    1      -39.194  68.850  21.468  0.00  0.00    +0.135 C 
BRANCH  27  29
ATOM     28  C   LIG    1      -39.122  70.287  23.570  0.00  0.00    +0.039 C 
ATOM     29  C   LIG    1      -38.425  69.203  22.758  0.00  0.00    +0.128 C 
BRANCH  29  30
ATOM     30  O   LIG    1      -37.111  69.683  22.481  0.00  0.00    -0.391 OA
ATOM     31  H   LIG    1      -36.941  70.436  23.076  0.00  0.00    +0.210 HD
ENDBRANCH  29  30
ENDBRANCH  27  29
ENDBRANCH  23  27
ENDBRANCH   1  25
TORSDOF 6
ENDMDL
MODEL 8
REMARK VINA RESULT:      -5.5      2.482      4.297
REMARK  Name = pdb/CHEMBL3676035.pdb
REMARK                            x       y       z     vdW  Elec       q    Type
REMARK                         _______ _______ _______ _____ _____    ______ ____
ROOT
ATOM      1  C   LIG    1      -23.690  77.256  30.815  0.00  0.00    +0.100 A 
ATOM      2  C   LIG    1      -22.706  77.689  31.682  0.00  0.00    +0.170 A 
ATOM      3  N   LIG    1      -22.758  78.160  32.970  0.00  0.00    -0.212 NA
ATOM      4  C   LIG    1      -21.621  78.442  33.571  0.00  0.00    +0.126 A 
ATOM      5  C   LIG    1      -20.287  78.145  32.924  0.00  0.00    +0.063 A 
ATOM      6  C   LIG    1      -20.296  77.760  31.645  0.00  0.00    +0.118 A 
ATOM      7  N   LIG    1      -21.499  77.559  30.992  0.00  0.00    -0.221 N 
ATOM      8  N   LIG    1      -21.685  77.201  29.702  0.00  0.00    -0.173 NA
ATOM      9  C   LIG    1      -23.002  77.012  29.606  0.00  0.00    +0.150 A 
ENDROOT
BRANCH   4  10
ATOM     10  N   LIG    1      -21.637  79.048  34.821  0.00  0.00    -0.308 N 
ATOM     11  C   LIG    1      -22.020  80.468  34.991  0.00  0.00    +0.108 C 
ATOM     12  C   LIG    1      -20.854  81.024  35.823  0.00  0.00    +0.029 C 
ATOM     13  C   LIG    1      -20.516  79.878  36.762  0.00  0.00    +0.021 C 
ATOM     14  C   LIG    1      -20.679  78.655  35.869  0.00  0.00    +0.107 C 
BRANCH  11  15
ATOM     15  C   LIG    1      -23.375  80.590  35.674  0.00  0.00    +0.011 A 
ATOM     16  C   LIG    1      -23.812  81.825  36.175  0.00  0.00    +0.129 A 
ATOM     17  F   LIG    1      -23.042  82.915  36.041  0.00  0.00    -0.205 F 
ATOM     18  C   LIG    1      -25.049  81.963  36.813  0.00  0.00    +0.041 A 
ATOM     19  C   LIG    1      -25.879  80.853  36.967  0.00  0.00    +0.041 A 
ATOM     20  C   LIG    1      -25.460  79.625  36.479  0.00  0.00    +0.124 A 
ATOM     21  F   LIG    1      -26.244  78.549  36.622  0.00  0.00    -0.205 F 
ATOM     22  C   LIG    1      -24.232  79.488  35.841  0.00  0.00    +0.046 A 
ENDBRANCH  11  15
ENDBRANCH   4  10
BRANCH   1  25
ATOM     23  N   LIG    1      -25.496  75.907  31.619  0.00  0.00    -0.309 N 
ATOM     24  H   LIG    1      -24.761  75.237  31.835  0.00  0.00    +0.149 HD
ATOM     25  C   LIG    1      -25.114  77.101  31.044  0.00  0.00    +0.249 C 
ATOM     26  O   LIG    1      -25.908  77.987  30.780  0.00  0.00    -0.270 OA
BRANCH  23  27
ATOM     27  C   LIG    1      -26.880  75.589  31.961  0.00  0.00    +0.135 C 
BRANCH  27  29
ATOM     28  C   LIG    1      -28.205  75.473  34.134  0.00  0.00    +0.039 C 
ATOM     29  C   LIG    1      -27.365  76.349  33.213  0.00  0.00    +0.128 C 
BRANCH  29  30
ATOM     30  O   LIG    1      -28.173  77.475  32.874  0.00  0.00    -0.391 OA
ATOM     31  H   LIG    1      -27.579  78.177  32.551  0.00  0.00    +0.210 HD
ENDBRANCH  29  30
ENDBRANCH  27  29
ENDBRANCH  23  27
ENDBRANCH   1  25
TORSDOF 6
ENDMDL
MODEL 9
REMARK VINA RESULT:      -5.5      4.052      7.898
REMARK  Name = pdb/CHEMBL3676035.pdb
REMARK                            x       y       z     vdW  Elec       q    Type
REMARK                         _______ _______ _______ _____ _____    ______ ____
ROOT
ATOM      1  C   LIG    1      -24.131  80.584  35.876  0.00  0.00    +0.100 A 
ATOM      2  C   LIG    1      -24.994  79.562  35.534  0.00  0.00    +0.170 A 
ATOM      3  N   LIG    1      -24.883  78.523  34.644  0.00  0.00    -0.212 NA
ATOM      4  C   LIG    1      -25.870  77.654  34.582  0.00  0.00    +0.126 A 
ATOM      5  C   LIG    1      -27.039  77.711  35.539  0.00  0.00    +0.063 A 
ATOM      6  C   LIG    1      -27.133  78.784  36.330  0.00  0.00    +0.118 A 
ATOM      7  N   LIG    1      -26.136  79.742  36.318  0.00  0.00    -0.221 N 
ATOM      8  N   LIG    1      -26.090  80.891  37.028  0.00  0.00    -0.173 NA
ATOM      9  C   LIG    1      -24.880  81.386  36.764  0.00  0.00    +0.150 A 
ENDROOT
BRANCH   4  10
ATOM     10  N   LIG    1      -25.857  76.670  33.602  0.00  0.00    -0.308 N 
ATOM     11  C   LIG    1      -26.043  76.998  32.170  0.00  0.00    +0.108 C 
ATOM     12  C   LIG    1      -27.152  76.019  31.751  0.00  0.00    +0.029 C 
ATOM     13  C   LIG    1      -26.822  74.761  32.536  0.00  0.00    +0.021 C 
ATOM     14  C   LIG    1      -26.361  75.314  33.879  0.00  0.00    +0.107 C 
BRANCH  11  15
ATOM     15  C   LIG    1      -24.744  76.820  31.396  0.00  0.00    +0.011 A 
ATOM     16  C   LIG    1      -24.377  77.737  30.400  0.00  0.00    +0.129 A 
ATOM     17  F   LIG    1      -25.165  78.789  30.132  0.00  0.00    -0.205 F 
ATOM     18  C   LIG    1      -23.193  77.593  29.669  0.00  0.00    +0.041 A 
ATOM     19  C   LIG    1      -22.347  76.514  29.922  0.00  0.00    +0.041 A 
ATOM     20  C   LIG    1      -22.697  75.599  30.903  0.00  0.00    +0.124 A 
ATOM     21  F   LIG    1      -21.896  74.556  31.155  0.00  0.00    -0.205 F 
ATOM     22  C   LIG    1      -23.872  75.744  31.632  0.00  0.00    +0.046 A 
ENDBRANCH  11  15
ENDBRANCH   4  10
BRANCH   1  25
ATOM     23  N   LIG    1      -21.961  79.715  35.358  0.00  0.00    -0.309 N 
ATOM     24  H   LIG    1      -22.372  78.822  35.621  0.00  0.00    +0.149 HD
ATOM     25  C   LIG    1      -22.773  80.829  35.428  0.00  0.00    +0.249 C 
ATOM     26  O   LIG    1      -22.394  81.940  35.101  0.00  0.00    -0.270 OA
BRANCH  23  27
ATOM     27  C   LIG    1      -20.579  79.761  34.890  0.00  0.00    +0.135 C 
BRANCH  27  29
ATOM     28  C   LIG    1      -21.635  78.221  33.157  0.00  0.00    +0.039 C 
ATOM     29  C   LIG    1      -20.354  78.896  33.633  0.00  0.00    +0.128 C 
BRANCH  29  30
ATOM     30  O   LIG    1      -19.408  77.854  33.866  0.00  0.00    -0.391 OA
ATOM     31  H   LIG    1      -19.105  77.932  34.788  0.00  0.00    +0.210 HD
ENDBRANCH  29  30
ENDBRANCH  27  29
ENDBRANCH  23  27
ENDBRANCH   1  25
TORSDOF 6
ENDMDL
