MODEL 1
REMARK VINA RESULT:      -6.1      0.000      0.000
REMARK  Name = pdb/CHEMBL3675950.pdb
REMARK                            x       y       z     vdW  Elec       q    Type
REMARK                         _______ _______ _______ _____ _____    ______ ____
ROOT
ATOM      1  C   LIG    1      -24.220  77.472  31.073  0.00  0.00    +0.102 A 
ATOM      2  C   LIG    1      -22.927  77.581  31.560  0.00  0.00    +0.170 A 
ATOM      3  N   LIG    1      -22.440  77.802  32.824  0.00  0.00    -0.212 NA
ATOM      4  C   LIG    1      -21.136  77.913  32.971  0.00  0.00    +0.126 A 
ATOM      5  C   LIG    1      -20.183  77.741  31.808  0.00  0.00    +0.063 A 
ATOM      6  C   LIG    1      -20.714  77.522  30.602  0.00  0.00    +0.118 A 
ATOM      7  N   LIG    1      -22.086  77.447  30.453  0.00  0.00    -0.221 N 
ATOM      8  N   LIG    1      -22.775  77.259  29.306  0.00  0.00    -0.173 NA
ATOM      9  C   LIG    1      -24.051  77.281  29.685  0.00  0.00    +0.150 A 
ENDROOT
BRANCH   4  10
ATOM     10  N   LIG    1      -20.610  78.198  34.220  0.00  0.00    -0.308 N 
ATOM     11  C   LIG    1      -20.172  79.545  34.621  0.00  0.00    +0.105 C 
ATOM     12  C   LIG    1      -19.078  79.280  35.672  0.00  0.00    +0.029 C 
ATOM     13  C   LIG    1      -19.467  77.942  36.275  0.00  0.00    +0.021 C 
ATOM     14  C   LIG    1      -20.002  77.179  35.076  0.00  0.00    +0.107 C 
BRANCH  11  15
ATOM     15  C   LIG    1      -21.326  80.368  35.177  0.00  0.00    -0.024 A 
ATOM     16  C   LIG    1      -22.653  79.915  35.116  0.00  0.00    +0.043 A 
ATOM     17  C   LIG    1      -23.690  80.685  35.631  0.00  0.00    +0.124 A 
ATOM     18  F   LIG    1      -24.946  80.226  35.556  0.00  0.00    -0.205 F 
ATOM     19  C   LIG    1      -23.443  81.918  36.218  0.00  0.00    +0.038 A 
ATOM     20  C   LIG    1      -22.134  82.385  36.296  0.00  0.00    +0.003 A 
ATOM     21  C   LIG    1      -21.081  81.614  35.784  0.00  0.00    +0.005 A 
ENDBRANCH  11  15
ENDBRANCH   4  10
BRANCH   1  24
ATOM     22  N   LIG    1      -25.337  77.674  33.154  0.00  0.00    -0.191 N 
ATOM     23  H   LIG    1      -24.422  77.724  33.598  0.00  0.00    +0.183 HD
ATOM     24  C   LIG    1      -25.473  77.548  31.796  0.00  0.00    +0.272 C 
ATOM     25  O   LIG    1      -26.553  77.503  31.202  0.00  0.00    -0.268 OA
BRANCH  22  27
ATOM     26  C   LIG    1      -26.677  76.512  34.649  0.00  0.00    +0.226 C 
ATOM     27  O   LIG    1      -26.521  77.724  33.925  0.00  0.00    -0.283 OA
ENDBRANCH  22  27
ENDBRANCH   1  24
TORSDOF 4
ENDMDL
MODEL 2
REMARK VINA RESULT:      -5.9      1.966      3.044
REMARK  Name = pdb/CHEMBL3675950.pdb
REMARK                            x       y       z     vdW  Elec       q    Type
REMARK                         _______ _______ _______ _____ _____    ______ ____
ROOT
ATOM      1  C   LIG    1      -24.470  77.692  32.172  0.00  0.00    +0.102 A 
ATOM      2  C   LIG    1      -23.238  77.372  31.626  0.00  0.00    +0.170 A 
ATOM      3  N   LIG    1      -21.979  77.326  32.170  0.00  0.00    -0.212 NA
ATOM      4  C   LIG    1      -20.972  77.035  31.371  0.00  0.00    +0.126 A 
ATOM      5  C   LIG    1      -21.183  76.697  29.911  0.00  0.00    +0.063 A 
ATOM      6  C   LIG    1      -22.431  76.753  29.439  0.00  0.00    +0.118 A 
ATOM      7  N   LIG    1      -23.474  77.097  30.277  0.00  0.00    -0.221 N 
ATOM      8  N   LIG    1      -24.779  77.224  29.949  0.00  0.00    -0.173 NA
ATOM      9  C   LIG    1      -25.367  77.585  31.087  0.00  0.00    +0.150 A 
ENDROOT
BRANCH   4  10
ATOM     10  N   LIG    1      -19.680  77.040  31.869  0.00  0.00    -0.308 N 
ATOM     11  C   LIG    1      -18.919  78.274  32.122  0.00  0.00    +0.105 C 
ATOM     12  C   LIG    1      -17.451  77.844  31.955  0.00  0.00    +0.029 C 
ATOM     13  C   LIG    1      -17.457  76.370  32.322  0.00  0.00    +0.021 C 
ATOM     14  C   LIG    1      -18.781  75.892  31.752  0.00  0.00    +0.107 C 
BRANCH  11  15
ATOM     15  C   LIG    1      -19.206  78.837  33.508  0.00  0.00    -0.024 A 
ATOM     16  C   LIG    1      -20.332  79.635  33.762  0.00  0.00    +0.043 A 
ATOM     17  C   LIG    1      -20.572  80.137  35.036  0.00  0.00    +0.124 A 
ATOM     18  F   LIG    1      -21.655  80.898  35.246  0.00  0.00    -0.205 F 
ATOM     19  C   LIG    1      -19.712  79.862  36.089  0.00  0.00    +0.038 A 
ATOM     20  C   LIG    1      -18.592  79.067  35.862  0.00  0.00    +0.003 A 
ATOM     21  C   LIG    1      -18.343  78.552  34.583  0.00  0.00    +0.005 A 
ENDBRANCH  11  15
ENDBRANCH   4  10
BRANCH   1  24
ATOM     22  N   LIG    1      -23.710  78.433  34.291  0.00  0.00    -0.191 N 
ATOM     23  H   LIG    1      -22.767  78.450  33.905  0.00  0.00    +0.183 HD
ATOM     24  C   LIG    1      -24.791  78.066  33.535  0.00  0.00    +0.272 C 
ATOM     25  O   LIG    1      -25.955  78.047  33.940  0.00  0.00    -0.268 OA
BRANCH  22  27
ATOM     26  C   LIG    1      -23.346  77.825  36.500  0.00  0.00    +0.226 C 
ATOM     27  O   LIG    1      -23.946  78.783  35.640  0.00  0.00    -0.283 OA
ENDBRANCH  22  27
ENDBRANCH   1  24
TORSDOF 4
ENDMDL
MODEL 3
REMARK VINA RESULT:      -5.8      2.311      4.688
REMARK  Name = pdb/CHEMBL3675950.pdb
REMARK                            x       y       z     vdW  Elec       q    Type
REMARK                         _______ _______ _______ _____ _____    ______ ____
ROOT
ATOM      1  C   LIG    1      -25.200  77.511  32.122  0.00  0.00    +0.102 A 
ATOM      2  C   LIG    1      -24.808  78.193  33.263  0.00  0.00    +0.170 A 
ATOM      3  N   LIG    1      -23.668  78.896  33.563  0.00  0.00    -0.212 NA
ATOM      4  C   LIG    1      -23.556  79.396  34.777  0.00  0.00    +0.126 A 
ATOM      5  C   LIG    1      -24.663  79.267  35.801  0.00  0.00    +0.063 A 
ATOM      6  C   LIG    1      -25.751  78.576  35.449  0.00  0.00    +0.118 A 
ATOM      7  N   LIG    1      -25.841  78.022  34.187  0.00  0.00    -0.221 N 
ATOM      8  N   LIG    1      -26.855  77.278  33.691  0.00  0.00    -0.173 NA
ATOM      9  C   LIG    1      -26.461  76.973  32.457  0.00  0.00    +0.150 A 
ENDROOT
BRANCH   4  10
ATOM     10  N   LIG    1      -22.394  80.059  35.139  0.00  0.00    -0.308 N 
ATOM     11  C   LIG    1      -21.270  79.398  35.820  0.00  0.00    +0.105 C 
ATOM     12  C   LIG    1      -20.606  80.532  36.622  0.00  0.00    +0.029 C 
ATOM     13  C   LIG    1      -20.924  81.782  35.820  0.00  0.00    +0.021 C 
ATOM     14  C   LIG    1      -22.334  81.508  35.324  0.00  0.00    +0.107 C 
BRANCH  11  15
ATOM     15  C   LIG    1      -20.314  78.750  34.828  0.00  0.00    -0.024 A 
ATOM     16  C   LIG    1      -19.670  77.534  35.108  0.00  0.00    +0.043 A 
ATOM     17  C   LIG    1      -18.802  76.962  34.185  0.00  0.00    +0.124 A 
ATOM     18  F   LIG    1      -18.202  75.802  34.483  0.00  0.00    -0.205 F 
ATOM     19  C   LIG    1      -18.549  77.573  32.966  0.00  0.00    +0.038 A 
ATOM     20  C   LIG    1      -19.181  78.776  32.663  0.00  0.00    +0.003 A 
ATOM     21  C   LIG    1      -20.061  79.358  33.584  0.00  0.00    +0.005 A 
ENDBRANCH  11  15
ENDBRANCH   4  10
BRANCH   1  24
ATOM     22  N   LIG    1      -23.133  77.479  30.963  0.00  0.00    -0.191 N 
ATOM     23  H   LIG    1      -22.672  77.645  31.856  0.00  0.00    +0.183 HD
ATOM     24  C   LIG    1      -24.494  77.360  30.865  0.00  0.00    +0.272 C 
ATOM     25  O   LIG    1      -25.104  77.137  29.817  0.00  0.00    -0.268 OA
BRANCH  22  27
ATOM     26  C   LIG    1      -21.188  76.640  30.016  0.00  0.00    +0.226 C 
ATOM     27  O   LIG    1      -22.382  77.371  29.770  0.00  0.00    -0.283 OA
ENDBRANCH  22  27
ENDBRANCH   1  24
TORSDOF 4
ENDMDL
MODEL 4
REMARK VINA RESULT:      -5.8      2.897      4.547
REMARK  Name = pdb/CHEMBL3675950.pdb
REMARK                            x       y       z     vdW  Elec       q    Type
REMARK                         _______ _______ _______ _____ _____    ______ ____
ROOT
ATOM      1  C   LIG    1      -20.810  77.225  30.669  0.00  0.00    +0.102 A 
ATOM      2  C   LIG    1      -22.068  77.389  31.227  0.00  0.00    +0.170 A 
ATOM      3  N   LIG    1      -22.471  77.761  32.485  0.00  0.00    -0.212 NA
ATOM      4  C   LIG    1      -23.764  77.774  32.739  0.00  0.00    +0.126 A 
ATOM      5  C   LIG    1      -24.791  77.457  31.674  0.00  0.00    +0.063 A 
ATOM      6  C   LIG    1      -24.339  77.107  30.466  0.00  0.00    +0.118 A 
ATOM      7  N   LIG    1      -22.980  77.058  30.222  0.00  0.00    -0.221 N 
ATOM      8  N   LIG    1      -22.368  76.700  29.072  0.00  0.00    -0.173 NA
ATOM      9  C   LIG    1      -21.070  76.797  29.350  0.00  0.00    +0.150 A 
ENDROOT
BRANCH   4  10
ATOM     10  N   LIG    1      -24.207  78.083  34.014  0.00  0.00    -0.308 N 
ATOM     11  C   LIG    1      -23.346  78.013  35.205  0.00  0.00    +0.105 C 
ATOM     12  C   LIG    1      -24.328  77.724  36.355  0.00  0.00    +0.029 C 
ATOM     13  C   LIG    1      -25.634  78.338  35.883  0.00  0.00    +0.021 C 
ATOM     14  C   LIG    1      -25.619  78.046  34.393  0.00  0.00    +0.107 C 
BRANCH  11  15
ATOM     15  C   LIG    1      -22.570  79.306  35.414  0.00  0.00    -0.024 A 
ATOM     16  C   LIG    1      -21.249  79.307  35.891  0.00  0.00    +0.043 A 
ATOM     17  C   LIG    1      -20.561  80.501  36.074  0.00  0.00    +0.124 A 
ATOM     18  F   LIG    1      -19.303  80.468  36.532  0.00  0.00    -0.205 F 
ATOM     19  C   LIG    1      -21.156  81.721  35.789  0.00  0.00    +0.038 A 
ATOM     20  C   LIG    1      -22.463  81.745  35.308  0.00  0.00    +0.003 A 
ATOM     21  C   LIG    1      -23.164  80.547  35.116  0.00  0.00    +0.005 A 
ENDBRANCH  11  15
ENDBRANCH   4  10
BRANCH   1  24
ATOM     22  N   LIG    1      -19.445  78.497  32.131  0.00  0.00    -0.191 N 
ATOM     23  H   LIG    1      -20.257  79.084  32.318  0.00  0.00    +0.183 HD
ATOM     24  C   LIG    1      -19.511  77.425  31.281  0.00  0.00    +0.272 C 
ATOM     25  O   LIG    1      -18.570  76.668  31.034  0.00  0.00    -0.268 OA
BRANCH  22  27
ATOM     26  C   LIG    1      -18.224  78.346  34.098  0.00  0.00    +0.226 C 
ATOM     27  O   LIG    1      -18.200  78.769  32.741  0.00  0.00    -0.283 OA
ENDBRANCH  22  27
ENDBRANCH   1  24
TORSDOF 4
ENDMDL
MODEL 5
REMARK VINA RESULT:      -5.7     20.461     22.762
REMARK  Name = pdb/CHEMBL3675950.pdb
REMARK                            x       y       z     vdW  Elec       q    Type
REMARK                         _______ _______ _______ _____ _____    ______ ____
ROOT
ATOM      1  C   LIG    1      -31.326  94.063  22.328  0.00  0.00    +0.102 A 
ATOM      2  C   LIG    1      -32.075  93.721  21.214  0.00  0.00    +0.170 A 
ATOM      3  N   LIG    1      -33.172  92.910  21.061  0.00  0.00    -0.212 NA
ATOM      4  C   LIG    1      -33.640  92.730  19.843  0.00  0.00    +0.126 A 
ATOM      5  C   LIG    1      -33.042  93.435  18.645  0.00  0.00    +0.063 A 
ATOM      6  C   LIG    1      -31.979  94.216  18.856  0.00  0.00    +0.118 A 
ATOM      7  N   LIG    1      -31.472  94.367  20.132  0.00  0.00    -0.221 N 
ATOM      8  N   LIG    1      -30.396  95.093  20.504  0.00  0.00    -0.173 NA
ATOM      9  C   LIG    1      -30.312  94.902  21.819  0.00  0.00    +0.150 A 
ENDROOT
BRANCH   4  10
ATOM     10  N   LIG    1      -34.707  91.870  19.640  0.00  0.00    -0.308 N 
ATOM     11  C   LIG    1      -35.289  91.608  18.314  0.00  0.00    +0.105 C 
ATOM     12  C   LIG    1      -36.753  91.245  18.618  0.00  0.00    +0.029 C 
ATOM     13  C   LIG    1      -36.701  90.656  20.017  0.00  0.00    +0.021 C 
ATOM     14  C   LIG    1      -35.649  91.513  20.700  0.00  0.00    +0.107 C 
BRANCH  11  15
ATOM     15  C   LIG    1      -34.552  90.491  17.588  0.00  0.00    -0.024 A 
ATOM     16  C   LIG    1      -34.372  90.507  16.196  0.00  0.00    +0.043 A 
ATOM     17  C   LIG    1      -33.695  89.475  15.555  0.00  0.00    +0.124 A 
ATOM     18  F   LIG    1      -33.543  89.519  14.225  0.00  0.00    -0.205 F 
ATOM     19  C   LIG    1      -33.178  88.405  16.271  0.00  0.00    +0.038 A 
ATOM     20  C   LIG    1      -33.338  88.371  17.654  0.00  0.00    +0.003 A 
ATOM     21  C   LIG    1      -34.014  89.408  18.309  0.00  0.00    +0.005 A 
ENDBRANCH  11  15
ENDBRANCH   4  10
BRANCH   1  24
ATOM     22  N   LIG    1      -32.398  92.629  23.882  0.00  0.00    -0.191 N 
ATOM     23  H   LIG    1      -32.867  92.187  23.093  0.00  0.00    +0.183 HD
ATOM     24  C   LIG    1      -31.512  93.659  23.708  0.00  0.00    +0.272 C 
ATOM     25  O   LIG    1      -30.899  94.217  24.621  0.00  0.00    -0.268 OA
BRANCH  22  27
ATOM     26  C   LIG    1      -33.894  92.720  25.653  0.00  0.00    +0.226 C 
ATOM     27  O   LIG    1      -32.649  92.202  25.206  0.00  0.00    -0.283 OA
ENDBRANCH  22  27
ENDBRANCH   1  24
TORSDOF 4
ENDMDL
MODEL 6
REMARK VINA RESULT:      -5.7     16.893     18.487
REMARK  Name = pdb/CHEMBL3675950.pdb
REMARK                            x       y       z     vdW  Elec       q    Type
REMARK                         _______ _______ _______ _____ _____    ______ ____
ROOT
ATOM      1  C   LIG    1      -23.100  80.200  15.804  0.00  0.00    +0.102 A 
ATOM      2  C   LIG    1      -21.965  79.423  15.634  0.00  0.00    +0.170 A 
ATOM      3  N   LIG    1      -21.776  78.190  15.063  0.00  0.00    -0.212 NA
ATOM      4  C   LIG    1      -20.565  77.672  15.101  0.00  0.00    +0.126 A 
ATOM      5  C   LIG    1      -19.392  78.425  15.694  0.00  0.00    +0.063 A 
ATOM      6  C   LIG    1      -19.636  79.623  16.230  0.00  0.00    +0.118 A 
ATOM      7  N   LIG    1      -20.918  80.139  16.220  0.00  0.00    -0.221 N 
ATOM      8  N   LIG    1      -21.331  81.315  16.742  0.00  0.00    -0.173 NA
ATOM      9  C   LIG    1      -22.638  81.341  16.493  0.00  0.00    +0.150 A 
ENDROOT
BRANCH   4  10
ATOM     10  N   LIG    1      -20.346  76.403  14.590  0.00  0.00    -0.308 N 
ATOM     11  C   LIG    1      -19.474  75.413  15.242  0.00  0.00    +0.105 C 
ATOM     12  C   LIG    1      -18.974  74.539  14.077  0.00  0.00    +0.029 C 
ATOM     13  C   LIG    1      -20.086  74.630  13.048  0.00  0.00    +0.021 C 
ATOM     14  C   LIG    1      -20.545  76.072  13.180  0.00  0.00    +0.107 C 
BRANCH  11  15
ATOM     15  C   LIG    1      -20.226  74.607  16.293  0.00  0.00    -0.024 A 
ATOM     16  C   LIG    1      -21.627  74.527  16.299  0.00  0.00    +0.043 A 
ATOM     17  C   LIG    1      -22.291  73.785  17.269  0.00  0.00    +0.124 A 
ATOM     18  F   LIG    1      -23.629  73.730  17.250  0.00  0.00    -0.205 F 
ATOM     19  C   LIG    1      -21.590  73.103  18.253  0.00  0.00    +0.038 A 
ATOM     20  C   LIG    1      -20.199  73.161  18.263  0.00  0.00    +0.003 A 
ATOM     21  C   LIG    1      -19.520  73.903  17.287  0.00  0.00    +0.005 A 
ENDBRANCH  11  15
ENDBRANCH   4  10
BRANCH   1  24
ATOM     22  N   LIG    1      -24.906  78.667  15.712  0.00  0.00    -0.191 N 
ATOM     23  H   LIG    1      -24.319  78.003  16.214  0.00  0.00    +0.183 HD
ATOM     24  C   LIG    1      -24.461  79.922  15.390  0.00  0.00    +0.272 C 
ATOM     25  O   LIG    1      -25.132  80.774  14.804  0.00  0.00    -0.268 OA
BRANCH  22  27
ATOM     26  C   LIG    1      -26.169  77.541  14.125  0.00  0.00    +0.226 C 
ATOM     27  O   LIG    1      -26.217  78.319  15.313  0.00  0.00    -0.283 OA
ENDBRANCH  22  27
ENDBRANCH   1  24
TORSDOF 4
ENDMDL
MODEL 7
REMARK VINA RESULT:      -5.4     18.228     20.970
REMARK  Name = pdb/CHEMBL3675950.pdb
REMARK                            x       y       z     vdW  Elec       q    Type
REMARK                         _______ _______ _______ _____ _____    ______ ____
ROOT
ATOM      1  C   LIG    1      -18.423  85.395  13.119  0.00  0.00    +0.102 A 
ATOM      2  C   LIG    1      -18.787  84.087  13.399  0.00  0.00    +0.170 A 
ATOM      3  N   LIG    1      -19.825  83.561  14.127  0.00  0.00    -0.212 NA
ATOM      4  C   LIG    1      -19.879  82.252  14.265  0.00  0.00    +0.126 A 
ATOM      5  C   LIG    1      -18.876  81.336  13.597  0.00  0.00    +0.063 A 
ATOM      6  C   LIG    1      -17.891  81.905  12.897  0.00  0.00    +0.118 A 
ATOM      7  N   LIG    1      -17.821  83.281  12.792  0.00  0.00    -0.221 N 
ATOM      8  N   LIG    1      -16.880  84.005  12.148  0.00  0.00    -0.173 NA
ATOM      9  C   LIG    1      -17.244  85.269  12.353  0.00  0.00    +0.150 A 
ENDROOT
BRANCH   4  10
ATOM     10  N   LIG    1      -20.875  81.687  15.044  0.00  0.00    -0.308 N 
ATOM     11  C   LIG    1      -22.108  82.400  15.416  0.00  0.00    +0.105 C 
ATOM     12  C   LIG    1      -22.517  81.756  16.753  0.00  0.00    +0.029 C 
ATOM     13  C   LIG    1      -21.951  80.350  16.670  0.00  0.00    +0.021 C 
ATOM     14  C   LIG    1      -20.632  80.563  15.948  0.00  0.00    +0.107 C 
BRANCH  11  15
ATOM     15  C   LIG    1      -23.184  82.256  14.348  0.00  0.00    -0.024 A 
ATOM     16  C   LIG    1      -23.240  83.110  13.236  0.00  0.00    +0.043 A 
ATOM     17  C   LIG    1      -24.232  82.959  12.273  0.00  0.00    +0.124 A 
ATOM     18  F   LIG    1      -24.259  83.792  11.225  0.00  0.00    -0.205 F 
ATOM     19  C   LIG    1      -25.190  81.962  12.383  0.00  0.00    +0.038 A 
ATOM     20  C   LIG    1      -25.151  81.098  13.475  0.00  0.00    +0.003 A 
ATOM     21  C   LIG    1      -24.152  81.239  14.447  0.00  0.00    +0.005 A 
ENDBRANCH  11  15
ENDBRANCH   4  10
BRANCH   1  24
ATOM     22  N   LIG    1      -20.110  86.458  14.401  0.00  0.00    -0.191 N 
ATOM     23  H   LIG    1      -20.372  85.538  14.750  0.00  0.00    +0.183 HD
ATOM     24  C   LIG    1      -19.076  86.626  13.518  0.00  0.00    +0.272 C 
ATOM     25  O   LIG    1      -18.699  87.715  13.079  0.00  0.00    -0.268 OA
BRANCH  22  27
ATOM     26  C   LIG    1      -22.111  87.618  14.240  0.00  0.00    +0.226 C 
ATOM     27  O   LIG    1      -20.810  87.615  14.811  0.00  0.00    -0.283 OA
ENDBRANCH  22  27
ENDBRANCH   1  24
TORSDOF 4
ENDMDL
MODEL 8
REMARK VINA RESULT:      -5.4      2.395      5.547
REMARK  Name = pdb/CHEMBL3675950.pdb
REMARK                            x       y       z     vdW  Elec       q    Type
REMARK                         _______ _______ _______ _____ _____    ______ ____
ROOT
ATOM      1  C   LIG    1      -21.317  80.447  35.758  0.00  0.00    +0.102 A 
ATOM      2  C   LIG    1      -20.662  79.640  34.842  0.00  0.00    +0.170 A 
ATOM      3  N   LIG    1      -21.076  79.063  33.668  0.00  0.00    -0.212 NA
ATOM      4  C   LIG    1      -20.225  78.285  33.030  0.00  0.00    +0.126 A 
ATOM      5  C   LIG    1      -18.811  78.072  33.525  0.00  0.00    +0.063 A 
ATOM      6  C   LIG    1      -18.463  78.664  34.671  0.00  0.00    +0.118 A 
ATOM      7  N   LIG    1      -19.376  79.446  35.352  0.00  0.00    -0.221 N 
ATOM      8  N   LIG    1      -19.189  80.085  36.528  0.00  0.00    -0.173 NA
ATOM      9  C   LIG    1      -20.357  80.677  36.766  0.00  0.00    +0.150 A 
ENDROOT
BRANCH   4  10
ATOM     10  N   LIG    1      -20.626  77.635  31.874  0.00  0.00    -0.308 N 
ATOM     11  C   LIG    1      -21.433  76.404  31.882  0.00  0.00    +0.105 C 
ATOM     12  C   LIG    1      -21.036  75.695  30.574  0.00  0.00    +0.029 C 
ATOM     13  C   LIG    1      -20.632  76.831  29.651  0.00  0.00    +0.021 C 
ATOM     14  C   LIG    1      -19.936  77.796  30.595  0.00  0.00    +0.107 C 
BRANCH  11  15
ATOM     15  C   LIG    1      -22.923  76.709  31.949  0.00  0.00    -0.024 A 
ATOM     16  C   LIG    1      -23.543  77.569  31.030  0.00  0.00    +0.043 A 
ATOM     17  C   LIG    1      -24.906  77.832  31.111  0.00  0.00    +0.124 A 
ATOM     18  F   LIG    1      -25.468  78.659  30.220  0.00  0.00    -0.205 F 
ATOM     19  C   LIG    1      -25.689  77.252  32.099  0.00  0.00    +0.038 A 
ATOM     20  C   LIG    1      -25.097  76.390  33.018  0.00  0.00    +0.003 A 
ATOM     21  C   LIG    1      -23.726  76.115  32.941  0.00  0.00    +0.005 A 
ENDBRANCH  11  15
ENDBRANCH   4  10
BRANCH   1  24
ATOM     22  N   LIG    1      -23.631  79.976  35.545  0.00  0.00    -0.191 N 
ATOM     23  H   LIG    1      -23.385  78.991  35.465  0.00  0.00    +0.183 HD
ATOM     24  C   LIG    1      -22.678  80.945  35.721  0.00  0.00    +0.272 C 
ATOM     25  O   LIG    1      -22.917  82.148  35.845  0.00  0.00    -0.268 OA
BRANCH  22  27
ATOM     26  C   LIG    1      -25.660  80.042  36.666  0.00  0.00    +0.226 C 
ATOM     27  O   LIG    1      -24.979  80.395  35.470  0.00  0.00    -0.283 OA
ENDBRANCH  22  27
ENDBRANCH   1  24
TORSDOF 4
ENDMDL
MODEL 9
REMARK VINA RESULT:      -5.4      5.830      8.770
REMARK  Name = pdb/CHEMBL3675950.pdb
REMARK                            x       y       z     vdW  Elec       q    Type
REMARK                         _______ _______ _______ _____ _____    ______ ____
ROOT
ATOM      1  C   LIG    1      -23.579  76.666  30.375  0.00  0.00    +0.102 A 
ATOM      2  C   LIG    1      -24.101  75.530  30.973  0.00  0.00    +0.170 A 
ATOM      3  N   LIG    1      -23.541  74.314  31.274  0.00  0.00    -0.212 NA
ATOM      4  C   LIG    1      -24.320  73.391  31.802  0.00  0.00    +0.126 A 
ATOM      5  C   LIG    1      -25.772  73.664  32.133  0.00  0.00    +0.063 A 
ATOM      6  C   LIG    1      -26.259  74.868  31.821  0.00  0.00    +0.118 A 
ATOM      7  N   LIG    1      -25.444  75.815  31.232  0.00  0.00    -0.221 N 
ATOM      8  N   LIG    1      -25.790  77.059  30.835  0.00  0.00    -0.173 NA
ATOM      9  C   LIG    1      -24.670  77.560  30.319  0.00  0.00    +0.150 A 
ENDROOT
BRANCH   4  10
ATOM     10  N   LIG    1      -23.808  72.131  32.062  0.00  0.00    -0.308 N 
ATOM     11  C   LIG    1      -24.633  70.912  32.070  0.00  0.00    +0.105 C 
ATOM     12  C   LIG    1      -23.897  69.975  33.044  0.00  0.00    +0.029 C 
ATOM     13  C   LIG    1      -22.446  70.411  32.947  0.00  0.00    +0.021 C 
ATOM     14  C   LIG    1      -22.562  71.918  32.799  0.00  0.00    +0.107 C 
BRANCH  11  15
ATOM     15  C   LIG    1      -24.766  70.315  30.676  0.00  0.00    -0.024 A 
ATOM     16  C   LIG    1      -23.989  70.771  29.599  0.00  0.00    +0.043 A 
ATOM     17  C   LIG    1      -24.129  70.209  28.336  0.00  0.00    +0.124 A 
ATOM     18  F   LIG    1      -23.374  70.668  27.328  0.00  0.00    -0.205 F 
ATOM     19  C   LIG    1      -25.034  69.184  28.103  0.00  0.00    +0.038 A 
ATOM     20  C   LIG    1      -25.810  68.710  29.157  0.00  0.00    +0.003 A 
ATOM     21  C   LIG    1      -25.674  69.266  30.436  0.00  0.00    +0.005 A 
ENDBRANCH  11  15
ENDBRANCH   4  10
BRANCH   1  24
ATOM     22  N   LIG    1      -21.441  77.615  30.760  0.00  0.00    -0.191 N 
ATOM     23  H   LIG    1      -21.785  77.929  31.666  0.00  0.00    +0.183 HD
ATOM     24  C   LIG    1      -22.231  76.904  29.897  0.00  0.00    +0.272 C 
ATOM     25  O   LIG    1      -21.864  76.480  28.799  0.00  0.00    -0.268 OA
BRANCH  22  27
ATOM     26  C   LIG    1      -19.196  77.149  31.110  0.00  0.00    +0.226 C 
ATOM     27  O   LIG    1      -20.122  77.908  30.345  0.00  0.00    -0.283 OA
ENDBRANCH  22  27
ENDBRANCH   1  24
TORSDOF 4
ENDMDL
