MODEL 1
REMARK VINA RESULT:      -7.2      0.000      0.000
REMARK  Name = pdb/CHEMBL3889897.pdb
REMARK                            x       y       z     vdW  Elec       q    Type
REMARK                         _______ _______ _______ _____ _____    ______ ____
ROOT
ATOM      1  C   LIG    1      -36.885  76.233  26.303  0.00  0.00    +0.149 A 
ATOM      2  N   LIG    1      -37.487  75.166  25.759  0.00  0.00    -0.160 NA
ATOM      3  N   LIG    1      -38.635  75.651  25.191  0.00  0.00    -0.218 N 
ATOM      4  C   LIG    1      -38.667  77.057  25.252  0.00  0.00    +0.129 A 
ATOM      5  C   LIG    1      -37.593  77.414  26.033  0.00  0.00    +0.078 A 
ENDROOT
BRANCH   3   6
ATOM      6  C   LIG    1      -39.528  74.729  24.558  0.00  0.00    +0.067 A 
ATOM      7  C   LIG    1      -39.182  73.364  24.530  0.00  0.00    +0.028 A 
ATOM      8  C   LIG    1      -40.020  72.419  23.930  0.00  0.00    +0.002 A 
ATOM      9  C   LIG    1      -41.227  72.819  23.369  0.00  0.00    +0.000 A 
ATOM     10  C   LIG    1      -41.591  74.164  23.402  0.00  0.00    +0.002 A 
ATOM     11  C   LIG    1      -40.748  75.118  23.994  0.00  0.00    +0.028 A 
ENDBRANCH   3   6
BRANCH   4  12
ATOM     12  N   LIG    1      -39.510  77.951  24.590  0.00  0.00    -0.266 N 
ATOM     13  H   LIG    1      -39.264  78.235  23.648  0.00  0.00    +0.157 HD
ATOM     14  C   LIG    1      -40.642  78.608  25.237  0.00  0.00    +0.251 C 
ATOM     15  O   LIG    1      -40.951  78.371  26.395  0.00  0.00    -0.270 OA
BRANCH  14  16
ATOM     16  C   LIG    1      -41.376  79.622  24.439  0.00  0.00    +0.056 A 
ATOM     17  C   LIG    1      -42.684  79.516  24.014  0.00  0.00    +0.054 A 
ATOM     18 CL   LIG    1      -43.705  78.195  24.436  0.00  0.00    -0.083 Cl
ATOM     19  C   LIG    1      -43.251  80.520  23.233  0.00  0.00    +0.041 A 
ATOM     20  C   LIG    1      -42.524  81.673  22.899  0.00  0.00    +0.052 A 
ATOM     21 CL   LIG    1      -43.348  82.750  21.819  0.00  0.00    -0.083 Cl
ATOM     22  C   LIG    1      -41.215  81.886  23.386  0.00  0.00    +0.022 A 
ATOM     23  C   LIG    1      -40.657  80.824  24.142  0.00  0.00    +0.026 A 
BRANCH  22  24
ATOM     24  C   LIG    1      -40.458  83.156  23.203  0.00  0.00    +0.107 A 
ATOM     25  C   LIG    1      -39.832  83.548  22.015  0.00  0.00    +0.149 A 
ATOM     26  F   LIG    1      -39.922  82.815  20.894  0.00  0.00    -0.203 F 
ATOM     27  C   LIG    1      -39.085  84.723  21.972  0.00  0.00    +0.042 A 
ATOM     28  C   LIG    1      -38.992  85.511  23.110  0.00  0.00    +0.023 A 
ATOM     29  C   LIG    1      -39.635  85.074  24.251  0.00  0.00    +0.111 A 
ATOM     30  N   LIG    1      -40.331  83.916  24.321  0.00  0.00    -0.252 NA
ENDBRANCH  22  24
ENDBRANCH  14  16
ENDBRANCH   4  12
BRANCH   1  32
ATOM     31  N   LIG    1      -34.735  77.122  26.840  0.00  0.00    -0.246 NA
ATOM     32  C   LIG    1      -35.572  76.143  26.928  0.00  0.00    +0.236 C 
BRANCH  31  35
ATOM     33  C   LIG    1      -32.599  78.895  27.339  0.00  0.00    +0.119 C 
ATOM     34  C   LIG    1      -33.124  77.998  28.488  0.00  0.00    +0.058 C 
ATOM     35  C   LIG    1      -33.405  76.905  27.419  0.00  0.00    +0.114 C 
ATOM     36  C   LIG    1      -32.299  77.584  26.572  0.00  0.00    +0.058 C 
BRANCH  33  37
ATOM     37  O   LIG    1      -33.567  79.783  26.740  0.00  0.00    -0.392 OA
ATOM     38  H   LIG    1      -33.906  80.302  27.497  0.00  0.00    +0.210 HD
ENDBRANCH  33  37
ENDBRANCH  31  35
BRANCH  32  39
ATOM     39  O   LIG    1      -35.301  74.949  27.500  0.00  0.00    -0.491 OA
ATOM     40  H   LIG    1      -35.282  74.268  26.800  0.00  0.00    +0.294 HD
ENDBRANCH  32  39
ENDBRANCH   1  32
TORSDOF 8
ENDMDL
MODEL 2
REMARK VINA RESULT:      -7.1      4.670      8.855
REMARK  Name = pdb/CHEMBL3889897.pdb
REMARK                            x       y       z     vdW  Elec       q    Type
REMARK                         _______ _______ _______ _____ _____    ______ ____
ROOT
ATOM      1  C   LIG    1      -36.999  77.001  26.615  0.00  0.00    +0.149 A 
ATOM      2  N   LIG    1      -38.247  77.477  26.506  0.00  0.00    -0.160 NA
ATOM      3  N   LIG    1      -38.873  76.646  25.614  0.00  0.00    -0.218 N 
ATOM      4  C   LIG    1      -38.046  75.554  25.285  0.00  0.00    +0.129 A 
ATOM      5  C   LIG    1      -36.828  75.831  25.859  0.00  0.00    +0.078 A 
ENDROOT
BRANCH   3   6
ATOM      6  C   LIG    1      -40.229  76.925  25.253  0.00  0.00    +0.067 A 
ATOM      7  C   LIG    1      -40.574  76.945  23.887  0.00  0.00    +0.028 A 
ATOM      8  C   LIG    1      -41.886  77.206  23.478  0.00  0.00    +0.002 A 
ATOM      9  C   LIG    1      -42.877  77.429  24.427  0.00  0.00    +0.000 A 
ATOM     10  C   LIG    1      -42.554  77.397  25.782  0.00  0.00    +0.002 A 
ATOM     11  C   LIG    1      -41.237  77.146  26.198  0.00  0.00    +0.028 A 
ENDBRANCH   3   6
BRANCH   4  12
ATOM     12  N   LIG    1      -38.371  74.369  24.624  0.00  0.00    -0.266 N 
ATOM     13  H   LIG    1      -38.043  74.245  23.672  0.00  0.00    +0.157 HD
ATOM     14  C   LIG    1      -39.281  73.370  25.178  0.00  0.00    +0.251 C 
ATOM     15  O   LIG    1      -39.775  73.492  26.289  0.00  0.00    -0.270 OA
BRANCH  14  16
ATOM     16  C   LIG    1      -39.624  72.217  24.308  0.00  0.00    +0.056 A 
ATOM     17  C   LIG    1      -40.761  72.103  23.537  0.00  0.00    +0.054 A 
ATOM     18 CL   LIG    1      -41.934  73.357  23.402  0.00  0.00    -0.083 Cl
ATOM     19  C   LIG    1      -40.991  70.949  22.792  0.00  0.00    +0.041 A 
ATOM     20  C   LIG    1      -40.058  69.901  22.777  0.00  0.00    +0.052 A 
ATOM     21 CL   LIG    1      -40.572  68.498  21.898  0.00  0.00    -0.083 Cl
ATOM     22  C   LIG    1      -38.829  69.999  23.466  0.00  0.00    +0.022 A 
ATOM     23  C   LIG    1      -38.649  71.170  24.247  0.00  0.00    +0.026 A 
BRANCH  22  24
ATOM     24  C   LIG    1      -37.733  68.996  23.356  0.00  0.00    +0.107 A 
ATOM     25  C   LIG    1      -37.023  68.714  22.183  0.00  0.00    +0.149 A 
ATOM     26  F   LIG    1      -37.242  69.391  21.046  0.00  0.00    -0.203 F 
ATOM     27  C   LIG    1      -36.065  67.702  22.172  0.00  0.00    +0.042 A 
ATOM     28  C   LIG    1      -35.804  67.000  23.339  0.00  0.00    +0.023 A 
ATOM     29  C   LIG    1      -36.533  67.327  24.465  0.00  0.00    +0.111 A 
ATOM     30  N   LIG    1      -37.494  68.278  24.484  0.00  0.00    -0.252 NA
ENDBRANCH  22  24
ENDBRANCH  14  16
ENDBRANCH   4  12
BRANCH   1  32
ATOM     31  N   LIG    1      -34.781  77.602  27.261  0.00  0.00    -0.246 NA
ATOM     32  C   LIG    1      -36.037  77.566  27.553  0.00  0.00    +0.236 C 
BRANCH  31  35
ATOM     33  C   LIG    1      -32.276  78.892  27.107  0.00  0.00    +0.119 C 
ATOM     34  C   LIG    1      -33.413  79.539  27.938  0.00  0.00    +0.058 C 
ATOM     35  C   LIG    1      -33.877  78.101  28.303  0.00  0.00    +0.114 C 
ATOM     36  C   LIG    1      -32.413  77.665  28.042  0.00  0.00    +0.058 C 
BRANCH  33  37
ATOM     37  O   LIG    1      -32.565  78.670  25.710  0.00  0.00    -0.392 OA
ATOM     38  H   LIG    1      -32.736  79.569  25.363  0.00  0.00    +0.210 HD
ENDBRANCH  33  37
ENDBRANCH  31  35
BRANCH  32  39
ATOM     39  O   LIG    1      -36.562  77.941  28.740  0.00  0.00    -0.491 OA
ATOM     40  H   LIG    1      -36.724  78.904  28.717  0.00  0.00    +0.294 HD
ENDBRANCH  32  39
ENDBRANCH   1  32
TORSDOF 8
ENDMDL
MODEL 3
REMARK VINA RESULT:      -7.0      6.447      9.840
REMARK  Name = pdb/CHEMBL3889897.pdb
REMARK                            x       y       z     vdW  Elec       q    Type
REMARK                         _______ _______ _______ _____ _____    ______ ____
ROOT
ATOM      1  C   LIG    1      -37.224  69.356  24.855  0.00  0.00    +0.149 A 
ATOM      2  N   LIG    1      -37.990  70.375  24.441  0.00  0.00    -0.160 NA
ATOM      3  N   LIG    1      -37.500  71.479  25.087  0.00  0.00    -0.218 N 
ATOM      4  C   LIG    1      -36.321  71.164  25.790  0.00  0.00    +0.129 A 
ATOM      5  C   LIG    1      -36.199  69.797  25.706  0.00  0.00    +0.078 A 
ENDROOT
BRANCH   3   6
ATOM      6  C   LIG    1      -38.148  72.739  24.879  0.00  0.00    +0.067 A 
ATOM      7  C   LIG    1      -39.441  72.749  24.321  0.00  0.00    +0.028 A 
ATOM      8  C   LIG    1      -40.123  73.950  24.102  0.00  0.00    +0.002 A 
ATOM      9  C   LIG    1      -39.533  75.157  24.457  0.00  0.00    +0.000 A 
ATOM     10  C   LIG    1      -38.260  75.162  25.024  0.00  0.00    +0.002 A 
ATOM     11  C   LIG    1      -37.567  73.960  25.237  0.00  0.00    +0.028 A 
ENDBRANCH   3   6
BRANCH   4  12
ATOM     12  N   LIG    1      -35.381  72.020  26.365  0.00  0.00    -0.266 N 
ATOM     13  H   LIG    1      -34.508  72.174  25.873  0.00  0.00    +0.157 HD
ATOM     14  C   LIG    1      -35.529  72.582  27.704  0.00  0.00    +0.251 C 
ATOM     15  O   LIG    1      -36.522  72.375  28.386  0.00  0.00    -0.270 OA
BRANCH  14  16
ATOM     16  C   LIG    1      -34.392  73.381  28.228  0.00  0.00    +0.056 A 
ATOM     17  C   LIG    1      -33.282  72.873  28.869  0.00  0.00    +0.054 A 
ATOM     18 CL   LIG    1      -33.009  71.185  29.080  0.00  0.00    -0.083 Cl
ATOM     19  C   LIG    1      -32.298  73.730  29.354  0.00  0.00    +0.041 A 
ATOM     20  C   LIG    1      -32.391  75.117  29.164  0.00  0.00    +0.052 A 
ATOM     21 CL   LIG    1      -31.142  76.032  29.944  0.00  0.00    -0.083 Cl
ATOM     22  C   LIG    1      -33.452  75.691  28.429  0.00  0.00    +0.022 A 
ATOM     23  C   LIG    1      -34.457  74.791  27.989  0.00  0.00    +0.026 A 
BRANCH  22  24
ATOM     24  C   LIG    1      -33.521  77.132  28.056  0.00  0.00    +0.107 A 
ATOM     25  C   LIG    1      -32.696  77.752  27.110  0.00  0.00    +0.149 A 
ATOM     26  F   LIG    1      -31.792  77.060  26.400  0.00  0.00    -0.203 F 
ATOM     27  C   LIG    1      -32.794  79.124  26.889  0.00  0.00    +0.042 A 
ATOM     28  C   LIG    1      -33.734  79.861  27.594  0.00  0.00    +0.023 A 
ATOM     29  C   LIG    1      -34.522  79.192  28.510  0.00  0.00    +0.111 A 
ATOM     30  N   LIG    1      -34.413  77.869  28.766  0.00  0.00    -0.252 NA
ENDBRANCH  22  24
ENDBRANCH  14  16
ENDBRANCH   4  12
BRANCH   1  32
ATOM     31  N   LIG    1      -36.357  67.384  23.826  0.00  0.00    -0.246 NA
ATOM     32  C   LIG    1      -37.374  68.010  24.316  0.00  0.00    +0.236 C 
BRANCH  31  35
ATOM     33  C   LIG    1      -34.942  65.899  21.888  0.00  0.00    +0.119 C 
ATOM     34  C   LIG    1      -35.315  65.229  23.235  0.00  0.00    +0.058 C 
ATOM     35  C   LIG    1      -36.619  66.074  23.221  0.00  0.00    +0.114 C 
ATOM     36  C   LIG    1      -36.461  66.118  21.679  0.00  0.00    +0.058 C 
BRANCH  33  37
ATOM     37  O   LIG    1      -34.129  67.088  21.981  0.00  0.00    -0.392 OA
ATOM     38  H   LIG    1      -33.528  67.019  21.212  0.00  0.00    +0.210 HD
ENDBRANCH  33  37
ENDBRANCH  31  35
BRANCH  32  39
ATOM     39  O   LIG    1      -38.643  67.549  24.296  0.00  0.00    -0.491 OA
ATOM     40  H   LIG    1      -39.193  68.130  24.858  0.00  0.00    +0.294 HD
ENDBRANCH  32  39
ENDBRANCH   1  32
TORSDOF 8
ENDMDL
MODEL 4
REMARK VINA RESULT:      -6.7      4.557      8.051
REMARK  Name = pdb/CHEMBL3889897.pdb
REMARK                            x       y       z     vdW  Elec       q    Type
REMARK                         _______ _______ _______ _____ _____    ______ ____
ROOT
ATOM      1  C   LIG    1      -31.725  74.340  29.915  0.00  0.00    +0.149 A 
ATOM      2  N   LIG    1      -31.830  75.661  29.717  0.00  0.00    -0.160 NA
ATOM      3  N   LIG    1      -32.741  75.802  28.703  0.00  0.00    -0.218 N 
ATOM      4  C   LIG    1      -33.318  74.560  28.375  0.00  0.00    +0.129 A 
ATOM      5  C   LIG    1      -32.608  73.626  29.091  0.00  0.00    +0.078 A 
ENDROOT
BRANCH   3   6
ATOM      6  C   LIG    1      -33.039  77.119  28.229  0.00  0.00    +0.067 A 
ATOM      7  C   LIG    1      -34.138  77.804  28.783  0.00  0.00    +0.028 A 
ATOM      8  C   LIG    1      -34.471  79.095  28.362  0.00  0.00    +0.002 A 
ATOM      9  C   LIG    1      -33.698  79.731  27.396  0.00  0.00    +0.000 A 
ATOM     10  C   LIG    1      -32.599  79.072  26.850  0.00  0.00    +0.002 A 
ATOM     11  C   LIG    1      -32.266  77.772  27.262  0.00  0.00    +0.028 A 
ENDBRANCH   3   6
BRANCH   4  12
ATOM     12  N   LIG    1      -34.441  74.289  27.592  0.00  0.00    -0.266 N 
ATOM     13  H   LIG    1      -34.301  74.058  26.615  0.00  0.00    +0.157 HD
ATOM     14  C   LIG    1      -35.809  74.467  28.071  0.00  0.00    +0.251 C 
ATOM     15  O   LIG    1      -36.052  74.818  29.216  0.00  0.00    -0.270 OA
BRANCH  14  16
ATOM     16  C   LIG    1      -36.900  74.251  27.087  0.00  0.00    +0.056 A 
ATOM     17  C   LIG    1      -37.401  73.027  26.699  0.00  0.00    +0.054 A 
ATOM     18 CL   LIG    1      -36.877  71.537  27.388  0.00  0.00    -0.083 Cl
ATOM     19  C   LIG    1      -38.400  72.952  25.733  0.00  0.00    +0.041 A 
ATOM     20  C   LIG    1      -38.946  74.113  25.166  0.00  0.00    +0.052 A 
ATOM     21 CL   LIG    1      -40.086  73.822  23.894  0.00  0.00    -0.083 Cl
ATOM     22  C   LIG    1      -38.546  75.400  25.593  0.00  0.00    +0.022 A 
ATOM     23  C   LIG    1      -37.496  75.435  26.547  0.00  0.00    +0.026 A 
BRANCH  22  24
ATOM     24  C   LIG    1      -39.200  76.663  25.150  0.00  0.00    +0.107 A 
ATOM     25  C   LIG    1      -38.705  77.512  24.155  0.00  0.00    +0.149 A 
ATOM     26  F   LIG    1      -37.598  77.213  23.457  0.00  0.00    -0.203 F 
ATOM     27  C   LIG    1      -39.357  78.709  23.869  0.00  0.00    +0.042 A 
ATOM     28  C   LIG    1      -40.516  79.035  24.560  0.00  0.00    +0.023 A 
ATOM     29  C   LIG    1      -40.958  78.154  25.527  0.00  0.00    +0.111 A 
ATOM     30  N   LIG    1      -40.314  77.007  25.846  0.00  0.00    -0.252 NA
ENDBRANCH  22  24
ENDBRANCH  14  16
ENDBRANCH   4  12
BRANCH   1  32
ATOM     31  N   LIG    1      -30.304  72.655  30.832  0.00  0.00    -0.246 NA
ATOM     32  C   LIG    1      -30.912  73.783  30.988  0.00  0.00    +0.236 C 
BRANCH  31  35
ATOM     33  C   LIG    1      -28.236  70.748  31.051  0.00  0.00    +0.119 C 
ATOM     34  C   LIG    1      -28.058  72.140  31.710  0.00  0.00    +0.058 C 
ATOM     35  C   LIG    1      -29.586  72.127  31.997  0.00  0.00    +0.114 C 
ATOM     36  C   LIG    1      -29.486  70.581  31.950  0.00  0.00    +0.058 C 
BRANCH  33  37
ATOM     37  O   LIG    1      -28.466  70.752  29.626  0.00  0.00    -0.392 OA
ATOM     38  H   LIG    1      -27.854  71.440  29.294  0.00  0.00    +0.210 HD
ENDBRANCH  33  37
ENDBRANCH  31  35
BRANCH  32  39
ATOM     39  O   LIG    1      -30.937  74.489  32.140  0.00  0.00    -0.491 OA
ATOM     40  H   LIG    1      -30.914  73.862  32.888  0.00  0.00    +0.294 HD
ENDBRANCH  32  39
ENDBRANCH   1  32
TORSDOF 8
ENDMDL
MODEL 5
REMARK VINA RESULT:      -6.6     16.275     18.717
REMARK  Name = pdb/CHEMBL3889897.pdb
REMARK                            x       y       z     vdW  Elec       q    Type
REMARK                         _______ _______ _______ _____ _____    ______ ____
ROOT
ATOM      1  C   LIG    1      -28.959  77.795  11.839  0.00  0.00    +0.149 A 
ATOM      2  N   LIG    1      -28.627  76.581  12.299  0.00  0.00    -0.160 NA
ATOM      3  N   LIG    1      -27.314  76.683  12.674  0.00  0.00    -0.218 N 
ATOM      4  C   LIG    1      -26.873  78.018  12.587  0.00  0.00    +0.129 A 
ATOM      5  C   LIG    1      -27.897  78.703  11.977  0.00  0.00    +0.078 A 
ENDROOT
BRANCH   3   6
ATOM      6  C   LIG    1      -26.651  75.518  13.175  0.00  0.00    +0.067 A 
ATOM      7  C   LIG    1      -27.334  74.694  14.091  0.00  0.00    +0.028 A 
ATOM      8  C   LIG    1      -26.737  73.540  14.608  0.00  0.00    +0.002 A 
ATOM      9  C   LIG    1      -25.458  73.179  14.201  0.00  0.00    +0.000 A 
ATOM     10  C   LIG    1      -24.775  73.976  13.284  0.00  0.00    +0.002 A 
ATOM     11  C   LIG    1      -25.366  75.141  12.770  0.00  0.00    +0.028 A 
ENDBRANCH   3   6
BRANCH   4  12
ATOM     12  N   LIG    1      -25.710  78.599  13.096  0.00  0.00    -0.266 N 
ATOM     13  H   LIG    1      -24.973  78.848  12.445  0.00  0.00    +0.157 HD
ATOM     14  C   LIG    1      -25.443  78.727  14.525  0.00  0.00    +0.251 C 
ATOM     15  O   LIG    1      -26.255  78.376  15.369  0.00  0.00    -0.270 OA
BRANCH  14  16
ATOM     16  C   LIG    1      -24.112  79.258  14.916  0.00  0.00    +0.056 A 
ATOM     17  C   LIG    1      -23.011  78.498  15.248  0.00  0.00    +0.054 A 
ATOM     18 CL   LIG    1      -22.998  76.777  15.168  0.00  0.00    -0.083 Cl
ATOM     19  C   LIG    1      -21.825  79.114  15.639  0.00  0.00    +0.041 A 
ATOM     20  C   LIG    1      -21.712  80.513  15.663  0.00  0.00    +0.052 A 
ATOM     21 CL   LIG    1      -20.208  81.098  16.296  0.00  0.00    -0.083 Cl
ATOM     22  C   LIG    1      -22.772  81.346  15.240  0.00  0.00    +0.022 A 
ATOM     23  C   LIG    1      -23.976  80.683  14.889  0.00  0.00    +0.026 A 
BRANCH  22  24
ATOM     24  C   LIG    1      -22.657  82.823  15.087  0.00  0.00    +0.107 A 
ATOM     25  C   LIG    1      -22.649  83.737  16.147  0.00  0.00    +0.149 A 
ATOM     26  F   LIG    1      -22.683  83.334  17.426  0.00  0.00    -0.203 F 
ATOM     27  C   LIG    1      -22.612  85.105  15.890  0.00  0.00    +0.042 A 
ATOM     28  C   LIG    1      -22.556  85.550  14.577  0.00  0.00    +0.023 A 
ATOM     29  C   LIG    1      -22.562  84.600  13.575  0.00  0.00    +0.111 A 
ATOM     30  N   LIG    1      -22.638  83.269  13.805  0.00  0.00    -0.252 NA
ENDBRANCH  22  24
ENDBRANCH  14  16
ENDBRANCH   4  12
BRANCH   1  32
ATOM     31  N   LIG    1      -30.822  77.596  10.360  0.00  0.00    -0.246 NA
ATOM     32  C   LIG    1      -30.318  78.120  11.427  0.00  0.00    +0.236 C 
BRANCH  31  35
ATOM     33  C   LIG    1      -33.070  76.193   9.393  0.00  0.00    +0.119 C 
ATOM     34  C   LIG    1      -33.229  77.127  10.620  0.00  0.00    +0.058 C 
ATOM     35  C   LIG    1      -32.161  78.052   9.972  0.00  0.00    +0.114 C 
ATOM     36  C   LIG    1      -32.596  77.445   8.614  0.00  0.00    +0.058 C 
BRANCH  33  37
ATOM     37  O   LIG    1      -32.112  75.124   9.535  0.00  0.00    -0.392 OA
ATOM     38  H   LIG    1      -31.759  75.246  10.439  0.00  0.00    +0.210 HD
ENDBRANCH  33  37
ENDBRANCH  31  35
BRANCH  32  39
ATOM     39  O   LIG    1      -30.930  79.053  12.188  0.00  0.00    -0.491 OA
ATOM     40  H   LIG    1      -31.795  79.263  11.784  0.00  0.00    +0.294 HD
ENDBRANCH  32  39
ENDBRANCH   1  32
TORSDOF 8
ENDMDL
MODEL 6
REMARK VINA RESULT:      -6.6     18.732     21.431
REMARK  Name = pdb/CHEMBL3889897.pdb
REMARK                            x       y       z     vdW  Elec       q    Type
REMARK                         _______ _______ _______ _____ _____    ______ ____
ROOT
ATOM      1  C   LIG    1      -22.143  82.648  15.748  0.00  0.00    +0.149 A 
ATOM      2  N   LIG    1      -20.876  82.248  15.573  0.00  0.00    -0.160 NA
ATOM      3  N   LIG    1      -20.910  80.883  15.682  0.00  0.00    -0.218 N 
ATOM      4  C   LIG    1      -22.239  80.423  15.774  0.00  0.00    +0.129 A 
ATOM      5  C   LIG    1      -23.010  81.555  15.899  0.00  0.00    +0.078 A 
ENDROOT
BRANCH   3   6
ATOM      6  C   LIG    1      -19.681  80.156  15.581  0.00  0.00    +0.067 A 
ATOM      7  C   LIG    1      -19.447  79.098  16.481  0.00  0.00    +0.028 A 
ATOM      8  C   LIG    1      -18.266  78.350  16.423  0.00  0.00    +0.002 A 
ATOM      9  C   LIG    1      -17.313  78.634  15.452  0.00  0.00    +0.000 A 
ATOM     10  C   LIG    1      -17.537  79.668  14.546  0.00  0.00    +0.002 A 
ATOM     11  C   LIG    1      -18.716  80.428  14.606  0.00  0.00    +0.028 A 
ENDBRANCH   3   6
BRANCH   4  12
ATOM     12  N   LIG    1      -22.733  79.124  15.653  0.00  0.00    -0.266 N 
ATOM     13  H   LIG    1      -23.088  78.666  16.485  0.00  0.00    +0.157 HD
ATOM     14  C   LIG    1      -22.627  78.342  14.425  0.00  0.00    +0.251 C 
ATOM     15  O   LIG    1      -22.140  78.805  13.404  0.00  0.00    -0.270 OA
BRANCH  14  16
ATOM     16  C   LIG    1      -23.093  76.933  14.482  0.00  0.00    +0.056 A 
ATOM     17  C   LIG    1      -24.124  76.397  13.740  0.00  0.00    +0.054 A 
ATOM     18 CL   LIG    1      -24.983  77.290  12.544  0.00  0.00    -0.083 Cl
ATOM     19  C   LIG    1      -24.496  75.067  13.914  0.00  0.00    +0.041 A 
ATOM     20  C   LIG    1      -23.807  74.235  14.810  0.00  0.00    +0.052 A 
ATOM     21 CL   LIG    1      -24.489  72.652  14.986  0.00  0.00    -0.083 Cl
ATOM     22  C   LIG    1      -22.680  74.697  15.526  0.00  0.00    +0.022 A 
ATOM     23  C   LIG    1      -22.358  76.068  15.355  0.00  0.00    +0.026 A 
BRANCH  22  24
ATOM     24  C   LIG    1      -21.813  73.822  16.364  0.00  0.00    +0.107 A 
ATOM     25  C   LIG    1      -22.035  73.535  17.715  0.00  0.00    +0.149 A 
ATOM     26  F   LIG    1      -23.117  73.991  18.365  0.00  0.00    -0.203 F 
ATOM     27  C   LIG    1      -21.120  72.762  18.426  0.00  0.00    +0.042 A 
ATOM     28  C   LIG    1      -20.003  72.260  17.775  0.00  0.00    +0.023 A 
ATOM     29  C   LIG    1      -19.840  72.574  16.440  0.00  0.00    +0.111 A 
ATOM     30  N   LIG    1      -20.698  73.355  15.745  0.00  0.00    -0.252 NA
ENDBRANCH  22  24
ENDBRANCH  14  16
ENDBRANCH   4  12
BRANCH   1  32
ATOM     31  N   LIG    1      -22.203  84.719  14.562  0.00  0.00    -0.246 NA
ATOM     32  C   LIG    1      -22.538  84.044  15.611  0.00  0.00    +0.236 C 
BRANCH  31  35
ATOM     33  C   LIG    1      -20.638  87.043  14.231  0.00  0.00    +0.119 C 
ATOM     34  C   LIG    1      -21.887  86.835  13.337  0.00  0.00    +0.058 C 
ATOM     35  C   LIG    1      -22.562  86.141  14.553  0.00  0.00    +0.114 C 
ATOM     36  C   LIG    1      -21.603  86.975  15.440  0.00  0.00    +0.058 C 
BRANCH  33  37
ATOM     37  O   LIG    1      -19.631  86.012  14.154  0.00  0.00    -0.392 OA
ATOM     38  H   LIG    1      -19.586  85.662  15.066  0.00  0.00    +0.210 HD
ENDBRANCH  33  37
ENDBRANCH  31  35
BRANCH  32  39
ATOM     39  O   LIG    1      -23.176  84.558  16.685  0.00  0.00    -0.491 OA
ATOM     40  H   LIG    1      -23.641  83.832  17.145  0.00  0.00    +0.294 HD
ENDBRANCH  32  39
ENDBRANCH   1  32
TORSDOF 8
ENDMDL
MODEL 7
REMARK VINA RESULT:      -6.5      4.305      8.819
REMARK  Name = pdb/CHEMBL3889897.pdb
REMARK                            x       y       z     vdW  Elec       q    Type
REMARK                         _______ _______ _______ _____ _____    ______ ____
ROOT
ATOM      1  C   LIG    1      -37.611  79.965  27.323  0.00  0.00    +0.149 A 
ATOM      2  N   LIG    1      -36.500  79.317  27.701  0.00  0.00    -0.160 NA
ATOM      3  N   LIG    1      -36.795  77.986  27.566  0.00  0.00    -0.218 N 
ATOM      4  C   LIG    1      -38.051  77.814  26.952  0.00  0.00    +0.129 A 
ATOM      5  C   LIG    1      -38.598  79.073  26.878  0.00  0.00    +0.078 A 
ENDROOT
BRANCH   3   6
ATOM      6  C   LIG    1      -35.804  77.023  27.939  0.00  0.00    +0.067 A 
ATOM      7  C   LIG    1      -35.948  76.348  29.167  0.00  0.00    +0.028 A 
ATOM      8  C   LIG    1      -35.013  75.393  29.579  0.00  0.00    +0.002 A 
ATOM      9  C   LIG    1      -33.934  75.081  28.760  0.00  0.00    +0.000 A 
ATOM     10  C   LIG    1      -33.787  75.729  27.536  0.00  0.00    +0.002 A 
ATOM     11  C   LIG    1      -34.717  76.696  27.122  0.00  0.00    +0.028 A 
ENDBRANCH   3   6
BRANCH   4  12
ATOM     12  N   LIG    1      -38.618  76.659  26.412  0.00  0.00    -0.266 N 
ATOM     13  H   LIG    1      -39.342  76.186  26.942  0.00  0.00    +0.157 HD
ATOM     14  C   LIG    1      -38.119  76.018  25.199  0.00  0.00    +0.251 C 
ATOM     15  O   LIG    1      -37.197  76.492  24.550  0.00  0.00    -0.270 OA
BRANCH  14  16
ATOM     16  C   LIG    1      -38.748  74.731  24.810  0.00  0.00    +0.056 A 
ATOM     17  C   LIG    1      -39.932  74.592  24.118  0.00  0.00    +0.054 A 
ATOM     18 CL   LIG    1      -40.828  75.932  23.512  0.00  0.00    -0.083 Cl
ATOM     19  C   LIG    1      -40.443  73.325  23.848  0.00  0.00    +0.041 A 
ATOM     20  C   LIG    1      -39.748  72.169  24.235  0.00  0.00    +0.052 A 
ATOM     21 CL   LIG    1      -40.596  70.688  23.927  0.00  0.00    -0.083 Cl
ATOM     22  C   LIG    1      -38.483  72.243  24.859  0.00  0.00    +0.022 A 
ATOM     23  C   LIG    1      -38.016  73.549  25.155  0.00  0.00    +0.026 A 
BRANCH  22  24
ATOM     24  C   LIG    1      -37.626  71.058  25.144  0.00  0.00    +0.107 A 
ATOM     25  C   LIG    1      -37.221  70.117  24.190  0.00  0.00    +0.149 A 
ATOM     26  F   LIG    1      -37.533  70.249  22.892  0.00  0.00    -0.203 F 
ATOM     27  C   LIG    1      -36.480  69.003  24.577  0.00  0.00    +0.042 A 
ATOM     28  C   LIG    1      -36.125  68.852  25.910  0.00  0.00    +0.023 A 
ATOM     29  C   LIG    1      -36.550  69.816  26.803  0.00  0.00    +0.111 A 
ATOM     30  N   LIG    1      -37.304  70.882  26.451  0.00  0.00    -0.252 NA
ENDBRANCH  22  24
ENDBRANCH  14  16
ENDBRANCH   4  12
BRANCH   1  32
ATOM     31  N   LIG    1      -37.042  82.150  28.101  0.00  0.00    -0.246 NA
ATOM     32  C   LIG    1      -37.665  81.419  27.238  0.00  0.00    +0.236 C 
BRANCH  31  35
ATOM     33  C   LIG    1      -35.320  84.308  28.677  0.00  0.00    +0.119 C 
ATOM     34  C   LIG    1      -35.997  84.228  27.285  0.00  0.00    +0.058 C 
ATOM     35  C   LIG    1      -37.230  83.600  27.993  0.00  0.00    +0.114 C 
ATOM     36  C   LIG    1      -36.750  84.333  29.271  0.00  0.00    +0.058 C 
BRANCH  33  37
ATOM     37  O   LIG    1      -34.492  83.183  29.040  0.00  0.00    -0.392 OA
ATOM     38  H   LIG    1      -33.590  83.467  28.789  0.00  0.00    +0.210 HD
ENDBRANCH  33  37
ENDBRANCH  31  35
BRANCH  32  39
ATOM     39  O   LIG    1      -38.472  81.896  26.266  0.00  0.00    -0.491 OA
ATOM     40  H   LIG    1      -38.803  82.774  26.542  0.00  0.00    +0.294 HD
ENDBRANCH  32  39
ENDBRANCH   1  32
TORSDOF 8
ENDMDL
MODEL 8
REMARK VINA RESULT:      -6.5     17.621     21.687
REMARK  Name = pdb/CHEMBL3889897.pdb
REMARK                            x       y       z     vdW  Elec       q    Type
REMARK                         _______ _______ _______ _____ _____    ______ ____
ROOT
ATOM      1  C   LIG    1      -24.986  82.891  37.042  0.00  0.00    +0.149 A 
ATOM      2  N   LIG    1      -24.071  83.473  37.829  0.00  0.00    -0.160 NA
ATOM      3  N   LIG    1      -22.901  82.807  37.575  0.00  0.00    -0.218 N 
ATOM      4  C   LIG    1      -23.063  81.904  36.507  0.00  0.00    +0.129 A 
ATOM      5  C   LIG    1      -24.409  81.902  36.230  0.00  0.00    +0.078 A 
ENDROOT
BRANCH   3   6
ATOM      6  C   LIG    1      -21.728  83.179  38.307  0.00  0.00    +0.067 A 
ATOM      7  C   LIG    1      -21.725  83.015  39.706  0.00  0.00    +0.028 A 
ATOM      8  C   LIG    1      -20.604  83.356  40.470  0.00  0.00    +0.002 A 
ATOM      9  C   LIG    1      -19.462  83.843  39.846  0.00  0.00    +0.000 A 
ATOM     10  C   LIG    1      -19.445  83.997  38.462  0.00  0.00    +0.002 A 
ATOM     11  C   LIG    1      -20.571  83.666  37.691  0.00  0.00    +0.028 A 
ENDBRANCH   3   6
BRANCH   4  12
ATOM     12  N   LIG    1      -22.091  81.220  35.774  0.00  0.00    -0.266 N 
ATOM     13  H   LIG    1      -21.710  81.668  34.948  0.00  0.00    +0.157 HD
ATOM     14  C   LIG    1      -21.707  79.840  36.053  0.00  0.00    +0.251 C 
ATOM     15  O   LIG    1      -22.183  79.212  36.987  0.00  0.00    -0.270 OA
BRANCH  14  16
ATOM     16  C   LIG    1      -20.745  79.207  35.115  0.00  0.00    +0.056 A 
ATOM     17  C   LIG    1      -19.376  79.170  35.273  0.00  0.00    +0.054 A 
ATOM     18 CL   LIG    1      -18.574  79.792  36.664  0.00  0.00    -0.083 Cl
ATOM     19  C   LIG    1      -18.573  78.581  34.299  0.00  0.00    +0.041 A 
ATOM     20  C   LIG    1      -19.138  77.978  33.165  0.00  0.00    +0.052 A 
ATOM     21 CL   LIG    1      -17.981  77.411  32.005  0.00  0.00    -0.083 Cl
ATOM     22  C   LIG    1      -20.538  77.896  32.994  0.00  0.00    +0.022 A 
ATOM     23  C   LIG    1      -21.321  78.544  33.983  0.00  0.00    +0.026 A 
BRANCH  22  24
ATOM     24  C   LIG    1      -21.197  77.130  31.899  0.00  0.00    +0.107 A 
ATOM     25  C   LIG    1      -21.164  77.482  30.546  0.00  0.00    +0.149 A 
ATOM     26  F   LIG    1      -20.462  78.538  30.108  0.00  0.00    -0.203 F 
ATOM     27  C   LIG    1      -21.878  76.736  29.611  0.00  0.00    +0.042 A 
ATOM     28  C   LIG    1      -22.597  75.626  30.032  0.00  0.00    +0.023 A 
ATOM     29  C   LIG    1      -22.587  75.326  31.380  0.00  0.00    +0.111 A 
ATOM     30  N   LIG    1      -21.933  76.063  32.306  0.00  0.00    -0.252 NA
ENDBRANCH  22  24
ENDBRANCH  14  16
ENDBRANCH   4  12
BRANCH   1  32
ATOM     31  N   LIG    1      -26.590  84.650  36.870  0.00  0.00    -0.246 NA
ATOM     32  C   LIG    1      -26.354  83.384  36.954  0.00  0.00    +0.236 C 
BRANCH  31  35
ATOM     33  C   LIG    1      -27.924  86.806  35.632  0.00  0.00    +0.119 C 
ATOM     34  C   LIG    1      -28.458  85.366  35.428  0.00  0.00    +0.058 C 
ATOM     35  C   LIG    1      -27.999  85.059  36.881  0.00  0.00    +0.114 C 
ATOM     36  C   LIG    1      -28.147  86.579  37.147  0.00  0.00    +0.058 C 
BRANCH  33  37
ATOM     37  O   LIG    1      -26.562  87.038  35.211  0.00  0.00    -0.392 OA
ATOM     38  H   LIG    1      -26.051  86.358  35.694  0.00  0.00    +0.210 HD
ENDBRANCH  33  37
ENDBRANCH  31  35
BRANCH  32  39
ATOM     39  O   LIG    1      -27.305  82.430  37.063  0.00  0.00    -0.491 OA
ATOM     40  H   LIG    1      -27.762  82.349  36.202  0.00  0.00    +0.294 HD
ENDBRANCH  32  39
ENDBRANCH   1  32
TORSDOF 8
ENDMDL
MODEL 9
REMARK VINA RESULT:      -6.4      5.887      9.541
REMARK  Name = pdb/CHEMBL3889897.pdb
REMARK                            x       y       z     vdW  Elec       q    Type
REMARK                         _______ _______ _______ _____ _____    ______ ____
ROOT
ATOM      1  C   LIG    1      -32.060  74.084  29.904  0.00  0.00    +0.149 A 
ATOM      2  N   LIG    1      -32.034  75.412  29.727  0.00  0.00    -0.160 NA
ATOM      3  N   LIG    1      -32.874  75.651  28.671  0.00  0.00    -0.218 N 
ATOM      4  C   LIG    1      -33.543  74.472  28.290  0.00  0.00    +0.129 A 
ATOM      5  C   LIG    1      -32.959  73.466  29.022  0.00  0.00    +0.078 A 
ENDROOT
BRANCH   3   6
ATOM      6  C   LIG    1      -33.027  76.997  28.208  0.00  0.00    +0.067 A 
ATOM      7  C   LIG    1      -33.933  77.842  28.877  0.00  0.00    +0.028 A 
ATOM      8  C   LIG    1      -34.118  79.168  28.471  0.00  0.00    +0.002 A 
ATOM      9  C   LIG    1      -33.382  79.676  27.406  0.00  0.00    +0.000 A 
ATOM     10  C   LIG    1      -32.471  78.856  26.744  0.00  0.00    +0.002 A 
ATOM     11  C   LIG    1      -32.289  77.521  27.141  0.00  0.00    +0.028 A 
ENDBRANCH   3   6
BRANCH   4  12
ATOM     12  N   LIG    1      -34.644  74.316  27.446  0.00  0.00    -0.266 N 
ATOM     13  H   LIG    1      -34.476  74.048  26.482  0.00  0.00    +0.157 HD
ATOM     14  C   LIG    1      -36.006  74.663  27.839  0.00  0.00    +0.251 C 
ATOM     15  O   LIG    1      -36.272  75.066  28.962  0.00  0.00    -0.270 OA
BRANCH  14  16
ATOM     16  C   LIG    1      -37.056  74.554  26.795  0.00  0.00    +0.056 A 
ATOM     17  C   LIG    1      -37.755  75.609  26.246  0.00  0.00    +0.054 A 
ATOM     18 CL   LIG    1      -37.436  77.254  26.642  0.00  0.00    -0.083 Cl
ATOM     19  C   LIG    1      -38.749  75.375  25.300  0.00  0.00    +0.041 A 
ATOM     20  C   LIG    1      -39.032  74.074  24.856  0.00  0.00    +0.052 A 
ATOM     21 CL   LIG    1      -40.383  73.965  23.775  0.00  0.00    -0.083 Cl
ATOM     22  C   LIG    1      -38.285  72.962  25.306  0.00  0.00    +0.022 A 
ATOM     23  C   LIG    1      -37.310  73.235  26.300  0.00  0.00    +0.026 A 
BRANCH  22  24
ATOM     24  C   LIG    1      -38.427  71.587  24.753  0.00  0.00    +0.107 A 
ATOM     25  C   LIG    1      -39.549  70.768  24.925  0.00  0.00    +0.149 A 
ATOM     26  F   LIG    1      -40.643  71.198  25.572  0.00  0.00    -0.203 F 
ATOM     27  C   LIG    1      -39.549  69.467  24.427  0.00  0.00    +0.042 A 
ATOM     28  C   LIG    1      -38.439  69.004  23.736  0.00  0.00    +0.023 A 
ATOM     29  C   LIG    1      -37.365  69.859  23.594  0.00  0.00    +0.111 A 
ATOM     30  N   LIG    1      -37.332  71.111  24.106  0.00  0.00    -0.252 NA
ENDBRANCH  22  24
ENDBRANCH  14  16
ENDBRANCH   4  12
BRANCH   1  32
ATOM     31  N   LIG    1      -30.192  72.915  30.823  0.00  0.00    -0.246 NA
ATOM     32  C   LIG    1      -31.357  73.439  31.006  0.00  0.00    +0.236 C 
BRANCH  31  35
ATOM     33  C   LIG    1      -28.527  70.642  30.957  0.00  0.00    +0.119 C 
ATOM     34  C   LIG    1      -28.097  71.941  31.684  0.00  0.00    +0.058 C 
ATOM     35  C   LIG    1      -29.603  72.206  31.964  0.00  0.00    +0.114 C 
ATOM     36  C   LIG    1      -29.797  70.673  31.842  0.00  0.00    +0.058 C 
BRANCH  33  37
ATOM     37  O   LIG    1      -28.733  70.756  29.533  0.00  0.00    -0.392 OA
ATOM     38  H   LIG    1      -29.580  71.240  29.459  0.00  0.00    +0.210 HD
ENDBRANCH  33  37
ENDBRANCH  31  35
BRANCH  32  39
ATOM     39  O   LIG    1      -32.061  73.367  32.157  0.00  0.00    -0.491 OA
ATOM     40  H   LIG    1      -31.614  72.734  32.754  0.00  0.00    +0.294 HD
ENDBRANCH  32  39
ENDBRANCH   1  32
TORSDOF 8
ENDMDL
