MODEL 1
REMARK VINA RESULT:      -6.9      0.000      0.000
REMARK  Name = pdb/CHEMBL3951420.pdb
REMARK                            x       y       z     vdW  Elec       q    Type
REMARK                         _______ _______ _______ _____ _____    ______ ____
ROOT
ATOM      1  C   LIG    1      -36.102  69.182  25.319  0.00  0.00    +0.149 A 
ATOM      2  N   LIG    1      -37.171  69.985  25.423  0.00  0.00    -0.160 NA
ATOM      3  N   LIG    1      -36.697  71.193  25.830  0.00  0.00    -0.218 N 
ATOM      4  C   LIG    1      -35.323  71.122  26.100  0.00  0.00    +0.129 A 
ATOM      5  C   LIG    1      -34.934  69.861  25.715  0.00  0.00    +0.078 A 
ENDROOT
BRANCH   3   6
ATOM      6  C   LIG    1      -37.597  72.309  25.866  0.00  0.00    +0.067 A 
ATOM      7  C   LIG    1      -38.231  72.704  24.672  0.00  0.00    +0.028 A 
ATOM      8  C   LIG    1      -39.083  73.812  24.643  0.00  0.00    +0.002 A 
ATOM      9  C   LIG    1      -39.331  74.531  25.807  0.00  0.00    +0.000 A 
ATOM     10  C   LIG    1      -38.716  74.151  26.995  0.00  0.00    +0.002 A 
ATOM     11  C   LIG    1      -37.839  73.059  27.023  0.00  0.00    +0.028 A 
ENDBRANCH   3   6
BRANCH   4  12
ATOM     12  N   LIG    1      -34.477  72.073  26.663  0.00  0.00    -0.266 N 
ATOM     13  H   LIG    1      -33.874  72.599  26.043  0.00  0.00    +0.157 HD
ATOM     14  C   LIG    1      -34.440  72.372  28.069  0.00  0.00    +0.251 C 
ATOM     15  O   LIG    1      -35.160  71.786  28.855  0.00  0.00    -0.270 OA
BRANCH  14  16
ATOM     16  C   LIG    1      -33.411  73.323  28.557  0.00  0.00    +0.056 A 
ATOM     17  C   LIG    1      -32.324  72.968  29.343  0.00  0.00    +0.054 A 
ATOM     18 CL   LIG    1      -31.963  71.340  29.796  0.00  0.00    -0.083 Cl
ATOM     19  C   LIG    1      -31.457  73.959  29.799  0.00  0.00    +0.041 A 
ATOM     20  C   LIG    1      -31.677  75.311  29.488  0.00  0.00    +0.052 A 
ATOM     21 CL   LIG    1      -30.576  76.419  30.239  0.00  0.00    -0.083 Cl
ATOM     22  C   LIG    1      -32.755  75.711  28.668  0.00  0.00    +0.022 A 
ATOM     23  C   LIG    1      -33.597  74.679  28.204  0.00  0.00    +0.026 A 
BRANCH  22  24
ATOM     24  C   LIG    1      -33.028  77.122  28.283  0.00  0.00    +0.107 A 
ATOM     25  C   LIG    1      -32.415  77.761  27.198  0.00  0.00    +0.149 A 
ATOM     26  F   LIG    1      -31.546  77.118  26.404  0.00  0.00    -0.203 F 
ATOM     27  C   LIG    1      -32.710  79.092  26.915  0.00  0.00    +0.042 A 
ATOM     28  C   LIG    1      -33.635  79.763  27.702  0.00  0.00    +0.023 A 
ATOM     29  C   LIG    1      -34.207  79.073  28.756  0.00  0.00    +0.111 A 
ATOM     30  N   LIG    1      -33.902  77.793  29.073  0.00  0.00    -0.252 NA
ENDBRANCH  22  24
ENDBRANCH  14  16
ENDBRANCH   4  12
BRANCH   1  31
ATOM     31  C   LIG    1      -36.175  67.795  24.861  0.00  0.00    +0.236 C 
ATOM     32  N   LIG    1      -35.513  67.407  23.839  0.00  0.00    -0.241 NA
BRANCH  31  33
ATOM     33  O   LIG    1      -36.983  67.017  25.618  0.00  0.00    -0.491 OA
ATOM     34  H   LIG    1      -36.815  66.075  25.499  0.00  0.00    +0.294 HD
ENDBRANCH  31  33
BRANCH  32  35
ATOM     35  C   LIG    1      -35.506  66.030  23.387  0.00  0.00    +0.222 C 
BRANCH  35  36
ATOM     36  C   LIG    1      -34.658  65.919  22.179  0.00  0.00    +0.158 A 
ATOM     37  C   LIG    1      -34.536  64.988  21.177  0.00  0.00    +0.069 A 
ATOM     38  C   LIG    1      -33.569  65.538  20.319  0.00  0.00    +0.157 A 
ATOM     39  N   LIG    1      -33.121  66.717  20.760  0.00  0.00    -0.086 NA
ATOM     40  O   LIG    1      -33.813  66.958  21.934  0.00  0.00    -0.358 OA
ENDBRANCH  35  36
ENDBRANCH  32  35
ENDBRANCH   1  31
TORSDOF 8
ENDMDL
MODEL 2
REMARK VINA RESULT:      -6.9      9.077     15.863
REMARK  Name = pdb/CHEMBL3951420.pdb
REMARK                            x       y       z     vdW  Elec       q    Type
REMARK                         _______ _______ _______ _____ _____    ______ ____
ROOT
ATOM      1  C   LIG    1      -31.028  87.158  30.749  0.00  0.00    +0.149 A 
ATOM      2  N   LIG    1      -31.786  88.005  30.038  0.00  0.00    -0.160 NA
ATOM      3  N   LIG    1      -32.782  87.254  29.494  0.00  0.00    -0.218 N 
ATOM      4  C   LIG    1      -32.583  85.893  29.768  0.00  0.00    +0.129 A 
ATOM      5  C   LIG    1      -31.504  85.840  30.618  0.00  0.00    +0.078 A 
ENDROOT
BRANCH   3   6
ATOM      6  C   LIG    1      -33.852  87.920  28.811  0.00  0.00    +0.067 A 
ATOM      7  C   LIG    1      -35.046  87.211  28.575  0.00  0.00    +0.028 A 
ATOM      8  C   LIG    1      -36.105  87.798  27.875  0.00  0.00    +0.002 A 
ATOM      9  C   LIG    1      -35.996  89.106  27.417  0.00  0.00    +0.000 A 
ATOM     10  C   LIG    1      -34.825  89.821  27.646  0.00  0.00    +0.002 A 
ATOM     11  C   LIG    1      -33.752  89.227  28.321  0.00  0.00    +0.028 A 
ENDBRANCH   3   6
BRANCH   4  12
ATOM     12  N   LIG    1      -33.272  84.780  29.294  0.00  0.00    -0.266 N 
ATOM     13  H   LIG    1      -33.121  84.503  28.333  0.00  0.00    +0.157 HD
ATOM     14  C   LIG    1      -34.154  83.987  30.105  0.00  0.00    +0.251 C 
ATOM     15  O   LIG    1      -34.353  84.262  31.273  0.00  0.00    -0.270 OA
BRANCH  14  16
ATOM     16  C   LIG    1      -34.918  82.897  29.450  0.00  0.00    +0.056 A 
ATOM     17  C   LIG    1      -36.299  82.885  29.301  0.00  0.00    +0.054 A 
ATOM     18 CL   LIG    1      -37.323  84.189  29.786  0.00  0.00    -0.083 Cl
ATOM     19  C   LIG    1      -36.915  81.775  28.728  0.00  0.00    +0.041 A 
ATOM     20  C   LIG    1      -36.162  80.664  28.313  0.00  0.00    +0.052 A 
ATOM     21 CL   LIG    1      -37.100  79.323  27.738  0.00  0.00    -0.083 Cl
ATOM     22  C   LIG    1      -34.755  80.648  28.420  0.00  0.00    +0.022 A 
ATOM     23  C   LIG    1      -34.162  81.798  28.982  0.00  0.00    +0.026 A 
BRANCH  22  24
ATOM     24  C   LIG    1      -33.900  79.513  27.978  0.00  0.00    +0.107 A 
ATOM     25  C   LIG    1      -33.742  78.331  28.710  0.00  0.00    +0.149 A 
ATOM     26  F   LIG    1      -34.388  78.131  29.868  0.00  0.00    -0.203 F 
ATOM     27  C   LIG    1      -32.907  77.322  28.237  0.00  0.00    +0.042 A 
ATOM     28  C   LIG    1      -32.259  77.494  27.022  0.00  0.00    +0.023 A 
ATOM     29  C   LIG    1      -32.460  78.684  26.346  0.00  0.00    +0.111 A 
ATOM     30  N   LIG    1      -33.234  79.693  26.809  0.00  0.00    -0.252 NA
ENDBRANCH  22  24
ENDBRANCH  14  16
ENDBRANCH   4  12
BRANCH   1  31
ATOM     31  C   LIG    1      -29.869  87.578  31.535  0.00  0.00    +0.236 C 
ATOM     32  N   LIG    1      -29.934  87.658  32.809  0.00  0.00    -0.241 NA
BRANCH  31  33
ATOM     33  O   LIG    1      -28.777  87.852  30.785  0.00  0.00    -0.491 OA
ATOM     34  H   LIG    1      -28.023  88.146  31.311  0.00  0.00    +0.294 HD
ENDBRANCH  31  33
BRANCH  32  35
ATOM     35  C   LIG    1      -28.794  88.009  33.633  0.00  0.00    +0.222 C 
BRANCH  35  36
ATOM     36  C   LIG    1      -28.387  86.829  34.428  0.00  0.00    +0.158 A 
ATOM     37  C   LIG    1      -29.014  85.668  34.808  0.00  0.00    +0.069 A 
ATOM     38  C   LIG    1      -28.024  84.965  35.516  0.00  0.00    +0.157 A 
ATOM     39  N   LIG    1      -26.875  85.642  35.577  0.00  0.00    -0.086 NA
ATOM     40  O   LIG    1      -27.105  86.819  34.885  0.00  0.00    -0.358 OA
ENDBRANCH  35  36
ENDBRANCH  32  35
ENDBRANCH   1  31
TORSDOF 8
ENDMDL
MODEL 3
REMARK VINA RESULT:      -6.9      5.100      9.485
REMARK  Name = pdb/CHEMBL3951420.pdb
REMARK                            x       y       z     vdW  Elec       q    Type
REMARK                         _______ _______ _______ _____ _____    ______ ____
ROOT
ATOM      1  C   LIG    1      -31.225  75.161  30.113  0.00  0.00    +0.149 A 
ATOM      2  N   LIG    1      -31.425  76.414  29.681  0.00  0.00    -0.160 NA
ATOM      3  N   LIG    1      -32.566  76.381  28.941  0.00  0.00    -0.218 N 
ATOM      4  C   LIG    1      -33.031  75.064  28.805  0.00  0.00    +0.129 A 
ATOM      5  C   LIG    1      -32.214  74.298  29.603  0.00  0.00    +0.078 A 
ENDROOT
BRANCH   3   6
ATOM      6  C   LIG    1      -33.126  77.619  28.484  0.00  0.00    +0.067 A 
ATOM      7  C   LIG    1      -32.539  78.255  27.373  0.00  0.00    +0.028 A 
ATOM      8  C   LIG    1      -33.019  79.486  26.913  0.00  0.00    +0.002 A 
ATOM      9  C   LIG    1      -34.101  80.090  27.542  0.00  0.00    +0.000 A 
ATOM     10  C   LIG    1      -34.694  79.472  28.638  0.00  0.00    +0.002 A 
ATOM     11  C   LIG    1      -34.199  78.254  29.119  0.00  0.00    +0.028 A 
ENDBRANCH   3   6
BRANCH   4  12
ATOM     12  N   LIG    1      -34.071  74.565  28.027  0.00  0.00    -0.266 N 
ATOM     13  H   LIG    1      -33.836  74.126  27.146  0.00  0.00    +0.157 HD
ATOM     14  C   LIG    1      -35.452  74.606  28.423  0.00  0.00    +0.251 C 
ATOM     15  O   LIG    1      -35.787  75.101  29.483  0.00  0.00    -0.270 OA
BRANCH  14  16
ATOM     16  C   LIG    1      -36.474  74.146  27.452  0.00  0.00    +0.056 A 
ATOM     17  C   LIG    1      -36.685  72.819  27.101  0.00  0.00    +0.054 A 
ATOM     18 CL   LIG    1      -35.837  71.496  27.818  0.00  0.00    -0.083 Cl
ATOM     19  C   LIG    1      -37.630  72.512  26.126  0.00  0.00    +0.041 A 
ATOM     20  C   LIG    1      -38.361  73.524  25.482  0.00  0.00    +0.052 A 
ATOM     21 CL   LIG    1      -39.402  72.974  24.209  0.00  0.00    -0.083 Cl
ATOM     22  C   LIG    1      -38.198  74.883  25.829  0.00  0.00    +0.022 A 
ATOM     23  C   LIG    1      -37.250  75.156  26.837  0.00  0.00    +0.026 A 
BRANCH  22  24
ATOM     24  C   LIG    1      -38.957  75.999  25.202  0.00  0.00    +0.107 A 
ATOM     25  C   LIG    1      -38.411  76.869  24.251  0.00  0.00    +0.149 A 
ATOM     26  F   LIG    1      -37.150  76.731  23.816  0.00  0.00    -0.203 F 
ATOM     27  C   LIG    1      -39.182  77.902  23.726  0.00  0.00    +0.042 A 
ATOM     28  C   LIG    1      -40.500  78.039  24.136  0.00  0.00    +0.023 A 
ATOM     29  C   LIG    1      -40.980  77.144  25.076  0.00  0.00    +0.111 A 
ATOM     30  N   LIG    1      -40.234  76.159  25.629  0.00  0.00    -0.252 NA
ENDBRANCH  22  24
ENDBRANCH  14  16
ENDBRANCH   4  12
BRANCH   1  31
ATOM     31  C   LIG    1      -30.118  74.774  30.987  0.00  0.00    +0.236 C 
ATOM     32  N   LIG    1      -29.225  75.623  31.328  0.00  0.00    -0.241 NA
BRANCH  31  33
ATOM     33  O   LIG    1      -30.161  73.479  31.374  0.00  0.00    -0.491 OA
ATOM     34  H   LIG    1      -29.878  73.349  32.287  0.00  0.00    +0.294 HD
ENDBRANCH  31  33
BRANCH  32  35
ATOM     35  C   LIG    1      -28.146  75.302  32.241  0.00  0.00    +0.222 C 
BRANCH  35  36
ATOM     36  C   LIG    1      -26.920  76.010  31.814  0.00  0.00    +0.158 A 
ATOM     37  C   LIG    1      -25.592  75.666  31.737  0.00  0.00    +0.069 A 
ATOM     38  C   LIG    1      -24.977  76.809  31.197  0.00  0.00    +0.157 A 
ATOM     39  N   LIG    1      -25.855  77.788  30.964  0.00  0.00    -0.086 NA
ATOM     40  O   LIG    1      -27.083  77.280  31.351  0.00  0.00    -0.358 OA
ENDBRANCH  35  36
ENDBRANCH  32  35
ENDBRANCH   1  31
TORSDOF 8
ENDMDL
MODEL 4
REMARK VINA RESULT:      -6.8      7.294     10.713
REMARK  Name = pdb/CHEMBL3951420.pdb
REMARK                            x       y       z     vdW  Elec       q    Type
REMARK                         _______ _______ _______ _____ _____    ______ ____
ROOT
ATOM      1  C   LIG    1      -37.972  75.936  25.545  0.00  0.00    +0.149 A 
ATOM      2  N   LIG    1      -38.872  74.987  25.249  0.00  0.00    -0.160 NA
ATOM      3  N   LIG    1      -39.819  75.591  24.482  0.00  0.00    -0.218 N 
ATOM      4  C   LIG    1      -39.577  76.969  24.388  0.00  0.00    +0.129 A 
ATOM      5  C   LIG    1      -38.369  77.177  25.011  0.00  0.00    +0.078 A 
ENDROOT
BRANCH   3   6
ATOM      6  C   LIG    1      -40.831  74.779  23.871  0.00  0.00    +0.067 A 
ATOM      7  C   LIG    1      -40.598  73.396  23.739  0.00  0.00    +0.028 A 
ATOM      8  C   LIG    1      -41.532  72.566  23.111  0.00  0.00    +0.002 A 
ATOM      9  C   LIG    1      -42.719  73.099  22.622  0.00  0.00    +0.000 A 
ATOM     10  C   LIG    1      -42.965  74.462  22.748  0.00  0.00    +0.002 A 
ATOM     11  C   LIG    1      -42.020  75.301  23.351  0.00  0.00    +0.028 A 
ENDBRANCH   3   6
BRANCH   4  12
ATOM     12  N   LIG    1      -40.360  77.973  23.826  0.00  0.00    -0.266 N 
ATOM     13  H   LIG    1      -40.216  78.197  22.850  0.00  0.00    +0.157 HD
ATOM     14  C   LIG    1      -41.383  78.681  24.547  0.00  0.00    +0.251 C 
ATOM     15  O   LIG    1      -41.612  78.436  25.716  0.00  0.00    -0.270 OA
BRANCH  14  16
ATOM     16  C   LIG    1      -42.066  79.809  23.868  0.00  0.00    +0.056 A 
ATOM     17  C   LIG    1      -43.341  79.743  23.323  0.00  0.00    +0.054 A 
ATOM     18 CL   LIG    1      -44.357  78.350  23.438  0.00  0.00    -0.083 Cl
ATOM     19  C   LIG    1      -43.855  80.848  22.649  0.00  0.00    +0.041 A 
ATOM     20  C   LIG    1      -43.097  82.021  22.499  0.00  0.00    +0.052 A 
ATOM     21 CL   LIG    1      -43.840  83.249  21.527  0.00  0.00    -0.083 Cl
ATOM     22  C   LIG    1      -41.807  82.140  23.061  0.00  0.00    +0.022 A 
ATOM     23  C   LIG    1      -41.328  81.011  23.758  0.00  0.00    +0.026 A 
BRANCH  22  24
ATOM     24  C   LIG    1      -40.964  83.361  22.958  0.00  0.00    +0.107 A 
ATOM     25  C   LIG    1      -40.030  83.574  21.937  0.00  0.00    +0.149 A 
ATOM     26  F   LIG    1      -39.854  82.682  20.951  0.00  0.00    -0.203 F 
ATOM     27  C   LIG    1      -39.264  84.736  21.922  0.00  0.00    +0.042 A 
ATOM     28  C   LIG    1      -39.459  85.688  22.913  0.00  0.00    +0.023 A 
ATOM     29  C   LIG    1      -40.399  85.419  23.891  0.00  0.00    +0.111 A 
ATOM     30  N   LIG    1      -41.124  84.277  23.946  0.00  0.00    -0.252 NA
ENDBRANCH  22  24
ENDBRANCH  14  16
ENDBRANCH   4  12
BRANCH   1  31
ATOM     31  C   LIG    1      -36.760  75.685  26.322  0.00  0.00    +0.236 C 
ATOM     32  N   LIG    1      -35.958  76.638  26.612  0.00  0.00    -0.241 NA
BRANCH  31  33
ATOM     33  O   LIG    1      -36.605  74.390  26.681  0.00  0.00    -0.491 OA
ATOM     34  H   LIG    1      -36.520  74.272  27.635  0.00  0.00    +0.294 HD
ENDBRANCH  31  33
BRANCH  32  35
ATOM     35  C   LIG    1      -34.778  76.447  27.433  0.00  0.00    +0.222 C 
BRANCH  35  36
ATOM     36  C   LIG    1      -33.829  77.554  27.185  0.00  0.00    +0.158 A 
ATOM     37  C   LIG    1      -32.489  77.619  26.890  0.00  0.00    +0.069 A 
ATOM     38  C   LIG    1      -32.243  78.994  26.735  0.00  0.00    +0.157 A 
ATOM     39  N   LIG    1      -33.344  79.725  26.926  0.00  0.00    -0.086 NA
ATOM     40  O   LIG    1      -34.347  78.813  27.206  0.00  0.00    -0.358 OA
ENDBRANCH  35  36
ENDBRANCH  32  35
ENDBRANCH   1  31
TORSDOF 8
ENDMDL
MODEL 5
REMARK VINA RESULT:      -6.7     15.023     19.953
REMARK  Name = pdb/CHEMBL3951420.pdb
REMARK                            x       y       z     vdW  Elec       q    Type
REMARK                         _______ _______ _______ _____ _____    ______ ____
ROOT
ATOM      1  C   LIG    1      -24.015  82.883  37.222  0.00  0.00    +0.149 A 
ATOM      2  N   LIG    1      -23.042  83.146  38.106  0.00  0.00    -0.160 NA
ATOM      3  N   LIG    1      -21.906  82.605  37.589  0.00  0.00    -0.218 N 
ATOM      4  C   LIG    1      -22.187  81.886  36.418  0.00  0.00    +0.129 A 
ATOM      5  C   LIG    1      -23.516  82.116  36.152  0.00  0.00    +0.078 A 
ENDROOT
BRANCH   3   6
ATOM      6  C   LIG    1      -20.657  82.875  38.239  0.00  0.00    +0.067 A 
ATOM      7  C   LIG    1      -20.035  81.839  38.963  0.00  0.00    +0.028 A 
ATOM      8  C   LIG    1      -18.839  82.061  39.653  0.00  0.00    +0.002 A 
ATOM      9  C   LIG    1      -18.235  83.313  39.615  0.00  0.00    +0.000 A 
ATOM     10  C   LIG    1      -18.835  84.345  38.901  0.00  0.00    +0.002 A 
ATOM     11  C   LIG    1      -20.047  84.135  38.233  0.00  0.00    +0.028 A 
ENDBRANCH   3   6
BRANCH   4  12
ATOM     12  N   LIG    1      -21.357  81.072  35.653  0.00  0.00    -0.266 N 
ATOM     13  H   LIG    1      -20.903  81.481  34.847  0.00  0.00    +0.157 HD
ATOM     14  C   LIG    1      -21.083  79.697  35.969  0.00  0.00    +0.251 C 
ATOM     15  O   LIG    1      -21.585  79.162  36.940  0.00  0.00    -0.270 OA
BRANCH  14  16
ATOM     16  C   LIG    1      -20.275  78.905  35.009  0.00  0.00    +0.056 A 
ATOM     17  C   LIG    1      -18.894  78.779  35.061  0.00  0.00    +0.054 A 
ATOM     18 CL   LIG    1      -17.919  79.462  36.313  0.00  0.00    -0.083 Cl
ATOM     19  C   LIG    1      -18.235  78.062  34.065  0.00  0.00    +0.041 A 
ATOM     20  C   LIG    1      -18.945  77.480  33.002  0.00  0.00    +0.052 A 
ATOM     21 CL   LIG    1      -17.958  76.734  31.788  0.00  0.00    -0.083 Cl
ATOM     22  C   LIG    1      -20.353  77.560  32.928  0.00  0.00    +0.022 A 
ATOM     23  C   LIG    1      -20.990  78.272  33.966  0.00  0.00    +0.026 A 
BRANCH  22  24
ATOM     24  C   LIG    1      -21.165  76.945  31.843  0.00  0.00    +0.107 A 
ATOM     25  C   LIG    1      -21.148  77.390  30.516  0.00  0.00    +0.149 A 
ATOM     26  F   LIG    1      -20.361  78.404  30.126  0.00  0.00    -0.203 F 
ATOM     27  C   LIG    1      -21.953  76.774  29.562  0.00  0.00    +0.042 A 
ATOM     28  C   LIG    1      -22.747  75.700  29.939  0.00  0.00    +0.023 A 
ATOM     29  C   LIG    1      -22.714  75.306  31.265  0.00  0.00    +0.111 A 
ATOM     30  N   LIG    1      -21.971  75.919  32.215  0.00  0.00    -0.252 NA
ENDBRANCH  22  24
ENDBRANCH  14  16
ENDBRANCH   4  12
BRANCH   1  31
ATOM     31  C   LIG    1      -25.396  83.337  37.382  0.00  0.00    +0.236 C 
ATOM     32  N   LIG    1      -26.027  83.871  36.406  0.00  0.00    -0.241 NA
BRANCH  31  33
ATOM     33  O   LIG    1      -25.894  83.128  38.622  0.00  0.00    -0.491 OA
ATOM     34  H   LIG    1      -25.396  82.470  39.121  0.00  0.00    +0.294 HD
ENDBRANCH  31  33
BRANCH  32  35
ATOM     35  C   LIG    1      -27.415  84.279  36.501  0.00  0.00    +0.222 C 
BRANCH  35  36
ATOM     36  C   LIG    1      -27.639  85.449  35.624  0.00  0.00    +0.158 A 
ATOM     37  C   LIG    1      -28.708  85.911  34.897  0.00  0.00    +0.069 A 
ATOM     38  C   LIG    1      -28.242  87.110  34.332  0.00  0.00    +0.157 A 
ATOM     39  N   LIG    1      -26.977  87.368  34.677  0.00  0.00    -0.086 NA
ATOM     40  O   LIG    1      -26.599  86.319  35.498  0.00  0.00    -0.358 OA
ENDBRANCH  35  36
ENDBRANCH  32  35
ENDBRANCH   1  31
TORSDOF 8
ENDMDL
MODEL 6
REMARK VINA RESULT:      -6.6      5.124     10.479
REMARK  Name = pdb/CHEMBL3951420.pdb
REMARK                            x       y       z     vdW  Elec       q    Type
REMARK                         _______ _______ _______ _____ _____    ______ ____
ROOT
ATOM      1  C   LIG    1      -37.837  76.561  26.165  0.00  0.00    +0.149 A 
ATOM      2  N   LIG    1      -38.873  77.212  25.617  0.00  0.00    -0.160 NA
ATOM      3  N   LIG    1      -39.558  76.288  24.891  0.00  0.00    -0.218 N 
ATOM      4  C   LIG    1      -38.880  75.060  24.884  0.00  0.00    +0.129 A 
ATOM      5  C   LIG    1      -37.820  75.217  25.745  0.00  0.00    +0.078 A 
ENDROOT
BRANCH   3   6
ATOM      6  C   LIG    1      -40.821  76.658  24.322  0.00  0.00    +0.067 A 
ATOM      7  C   LIG    1      -41.410  75.799  23.373  0.00  0.00    +0.028 A 
ATOM      8  C   LIG    1      -42.619  76.134  22.754  0.00  0.00    +0.002 A 
ATOM      9  C   LIG    1      -43.266  77.318  23.085  0.00  0.00    +0.000 A 
ATOM     10  C   LIG    1      -42.699  78.175  24.023  0.00  0.00    +0.002 A 
ATOM     11  C   LIG    1      -41.475  77.857  24.624  0.00  0.00    +0.028 A 
ENDBRANCH   3   6
BRANCH   4  12
ATOM     12  N   LIG    1      -39.148  73.900  24.164  0.00  0.00    -0.266 N 
ATOM     13  H   LIG    1      -38.736  73.806  23.244  0.00  0.00    +0.157 HD
ATOM     14  C   LIG    1      -39.947  72.817  24.669  0.00  0.00    +0.251 C 
ATOM     15  O   LIG    1      -40.447  72.868  25.777  0.00  0.00    -0.270 OA
BRANCH  14  16
ATOM     16  C   LIG    1      -40.255  71.688  23.757  0.00  0.00    +0.056 A 
ATOM     17  C   LIG    1      -41.484  71.485  23.146  0.00  0.00    +0.054 A 
ATOM     18 CL   LIG    1      -42.816  72.576  23.293  0.00  0.00    -0.083 Cl
ATOM     19  C   LIG    1      -41.679  70.351  22.361  0.00  0.00    +0.041 A 
ATOM     20  C   LIG    1      -40.655  69.404  22.192  0.00  0.00    +0.052 A 
ATOM     21 CL   LIG    1      -41.108  67.995  21.289  0.00  0.00    -0.083 Cl
ATOM     22  C   LIG    1      -39.381  69.587  22.773  0.00  0.00    +0.022 A 
ATOM     23  C   LIG    1      -39.212  70.758  23.541  0.00  0.00    +0.026 A 
BRANCH  22  24
ATOM     24  C   LIG    1      -38.249  68.634  22.613  0.00  0.00    +0.107 A 
ATOM     25  C   LIG    1      -37.485  68.528  21.445  0.00  0.00    +0.149 A 
ATOM     26  F   LIG    1      -37.713  69.316  20.384  0.00  0.00    -0.203 F 
ATOM     27  C   LIG    1      -36.453  67.597  21.367  0.00  0.00    +0.042 A 
ATOM     28  C   LIG    1      -36.178  66.798  22.468  0.00  0.00    +0.023 A 
ATOM     29  C   LIG    1      -36.968  66.955  23.593  0.00  0.00    +0.111 A 
ATOM     30  N   LIG    1      -38.001  67.825  23.673  0.00  0.00    -0.252 NA
ENDBRANCH  22  24
ENDBRANCH  14  16
ENDBRANCH   4  12
BRANCH   1  31
ATOM     31  C   LIG    1      -36.872  77.191  27.065  0.00  0.00    +0.236 C 
ATOM     32  N   LIG    1      -35.978  76.496  27.659  0.00  0.00    -0.241 NA
BRANCH  31  33
ATOM     33  O   LIG    1      -37.031  78.529  27.178  0.00  0.00    -0.491 OA
ATOM     34  H   LIG    1      -36.195  79.010  27.165  0.00  0.00    +0.294 HD
ENDBRANCH  31  33
BRANCH  32  35
ATOM     35  C   LIG    1      -34.964  77.086  28.510  0.00  0.00    +0.222 C 
BRANCH  35  36
ATOM     36  C   LIG    1      -33.891  77.655  27.664  0.00  0.00    +0.158 A 
ATOM     37  C   LIG    1      -32.766  77.140  27.069  0.00  0.00    +0.069 A 
ATOM     38  C   LIG    1      -32.223  78.231  26.369  0.00  0.00    +0.157 A 
ATOM     39  N   LIG    1      -32.952  79.339  26.525  0.00  0.00    -0.086 NA
ATOM     40  O   LIG    1      -34.009  78.972  27.341  0.00  0.00    -0.358 OA
ENDBRANCH  35  36
ENDBRANCH  32  35
ENDBRANCH   1  31
TORSDOF 8
ENDMDL
MODEL 7
REMARK VINA RESULT:      -6.5     10.027     13.045
REMARK  Name = pdb/CHEMBL3951420.pdb
REMARK                            x       y       z     vdW  Elec       q    Type
REMARK                         _______ _______ _______ _____ _____    ______ ____
ROOT
ATOM      1  C   LIG    1      -30.377  66.220  19.149  0.00  0.00    +0.149 A 
ATOM      2  N   LIG    1      -29.257  65.486  19.195  0.00  0.00    -0.160 NA
ATOM      3  N   LIG    1      -28.252  66.303  18.779  0.00  0.00    -0.218 N 
ATOM      4  C   LIG    1      -28.763  67.538  18.352  0.00  0.00    +0.129 A 
ATOM      5  C   LIG    1      -30.105  67.507  18.646  0.00  0.00    +0.078 A 
ENDROOT
BRANCH   3   6
ATOM      6  C   LIG    1      -26.899  65.840  18.883  0.00  0.00    +0.067 A 
ATOM      7  C   LIG    1      -25.951  66.314  17.955  0.00  0.00    +0.028 A 
ATOM      8  C   LIG    1      -24.628  65.860  17.985  0.00  0.00    +0.002 A 
ATOM      9  C   LIG    1      -24.228  64.944  18.949  0.00  0.00    +0.000 A 
ATOM     10  C   LIG    1      -25.152  64.469  19.875  0.00  0.00    +0.002 A 
ATOM     11  C   LIG    1      -26.484  64.899  19.832  0.00  0.00    +0.028 A 
ENDBRANCH   3   6
BRANCH   4  12
ATOM     12  N   LIG    1      -28.114  68.601  17.729  0.00  0.00    -0.266 N 
ATOM     13  H   LIG    1      -28.176  68.669  16.721  0.00  0.00    +0.157 HD
ATOM     14  C   LIG    1      -27.396  69.621  18.441  0.00  0.00    +0.251 C 
ATOM     15  O   LIG    1      -27.309  69.599  19.655  0.00  0.00    -0.270 OA
BRANCH  14  16
ATOM     16  C   LIG    1      -26.650  70.633  17.654  0.00  0.00    +0.056 A 
ATOM     17  C   LIG    1      -27.207  71.416  16.652  0.00  0.00    +0.054 A 
ATOM     18 CL   LIG    1      -28.884  71.384  16.236  0.00  0.00    -0.083 Cl
ATOM     19  C   LIG    1      -26.393  72.288  15.933  0.00  0.00    +0.041 A 
ATOM     20  C   LIG    1      -25.016  72.374  16.196  0.00  0.00    +0.052 A 
ATOM     21 CL   LIG    1      -24.134  73.414  15.125  0.00  0.00    -0.083 Cl
ATOM     22  C   LIG    1      -24.415  71.616  17.224  0.00  0.00    +0.022 A 
ATOM     23  C   LIG    1      -25.273  70.763  17.948  0.00  0.00    +0.026 A 
BRANCH  22  24
ATOM     24  C   LIG    1      -22.968  71.680  17.567  0.00  0.00    +0.107 A 
ATOM     25  C   LIG    1      -22.372  72.769  18.213  0.00  0.00    +0.149 A 
ATOM     26  F   LIG    1      -23.090  73.836  18.596  0.00  0.00    -0.203 F 
ATOM     27  C   LIG    1      -21.007  72.760  18.482  0.00  0.00    +0.042 A 
ATOM     28  C   LIG    1      -20.254  71.650  18.127  0.00  0.00    +0.023 A 
ATOM     29  C   LIG    1      -20.904  70.605  17.495  0.00  0.00    +0.111 A 
ATOM     30  N   LIG    1      -22.222  70.612  17.188  0.00  0.00    -0.252 NA
ENDBRANCH  22  24
ENDBRANCH  14  16
ENDBRANCH   4  12
BRANCH   1  31
ATOM     31  C   LIG    1      -31.687  65.721  19.565  0.00  0.00    +0.236 C 
ATOM     32  N   LIG    1      -32.437  66.412  20.337  0.00  0.00    -0.241 NA
BRANCH  31  33
ATOM     33  O   LIG    1      -31.991  64.506  19.054  0.00  0.00    -0.491 OA
ATOM     34  H   LIG    1      -32.729  64.081  19.507  0.00  0.00    +0.294 HD
ENDBRANCH  31  33
BRANCH  32  35
ATOM     35  C   LIG    1      -33.768  65.985  20.724  0.00  0.00    +0.222 C 
BRANCH  35  36
ATOM     36  C   LIG    1      -34.755  66.559  19.783  0.00  0.00    +0.158 A 
ATOM     37  C   LIG    1      -36.049  67.003  19.905  0.00  0.00    +0.069 A 
ATOM     38  C   LIG    1      -36.371  67.466  18.618  0.00  0.00    +0.157 A 
ATOM     39  N   LIG    1      -35.357  67.315  17.762  0.00  0.00    -0.086 NA
ATOM     40  O   LIG    1      -34.334  66.745  18.502  0.00  0.00    -0.358 OA
ENDBRANCH  35  36
ENDBRANCH  32  35
ENDBRANCH   1  31
TORSDOF 8
ENDMDL
MODEL 8
REMARK VINA RESULT:      -6.5     10.597     14.435
REMARK  Name = pdb/CHEMBL3951420.pdb
REMARK                            x       y       z     vdW  Elec       q    Type
REMARK                         _______ _______ _______ _____ _____    ______ ____
ROOT
ATOM      1  C   LIG    1      -26.673  76.229  31.922  0.00  0.00    +0.149 A 
ATOM      2  N   LIG    1      -25.610  75.952  31.153  0.00  0.00    -0.160 NA
ATOM      3  N   LIG    1      -24.582  76.691  31.651  0.00  0.00    -0.218 N 
ATOM      4  C   LIG    1      -25.030  77.537  32.676  0.00  0.00    +0.129 A 
ATOM      5  C   LIG    1      -26.345  77.197  32.889  0.00  0.00    +0.078 A 
ENDROOT
BRANCH   3   6
ATOM      6  C   LIG    1      -23.263  76.473  31.131  0.00  0.00    +0.067 A 
ATOM      7  C   LIG    1      -22.341  75.752  31.914  0.00  0.00    +0.028 A 
ATOM      8  C   LIG    1      -21.029  75.550  31.475  0.00  0.00    +0.002 A 
ATOM      9  C   LIG    1      -20.623  76.047  30.242  0.00  0.00    +0.000 A 
ATOM     10  C   LIG    1      -21.523  76.758  29.456  0.00  0.00    +0.002 A 
ATOM     11  C   LIG    1      -22.830  76.988  29.904  0.00  0.00    +0.028 A 
ENDBRANCH   3   6
BRANCH   4  12
ATOM     12  N   LIG    1      -24.353  78.546  33.355  0.00  0.00    -0.266 N 
ATOM     13  H   LIG    1      -24.441  79.493  33.008  0.00  0.00    +0.157 HD
ATOM     14  C   LIG    1      -23.570  78.321  34.539  0.00  0.00    +0.251 C 
ATOM     15  O   LIG    1      -23.451  77.206  35.011  0.00  0.00    -0.270 OA
BRANCH  14  16
ATOM     16  C   LIG    1      -22.803  79.460  35.100  0.00  0.00    +0.056 A 
ATOM     17  C   LIG    1      -21.508  79.794  34.729  0.00  0.00    +0.054 A 
ATOM     18 CL   LIG    1      -20.629  78.975  33.487  0.00  0.00    -0.083 Cl
ATOM     19  C   LIG    1      -20.862  80.846  35.373  0.00  0.00    +0.041 A 
ATOM     20  C   LIG    1      -21.496  81.562  36.402  0.00  0.00    +0.052 A 
ATOM     21 CL   LIG    1      -20.504  82.755  37.177  0.00  0.00    -0.083 Cl
ATOM     22  C   LIG    1      -22.822  81.274  36.790  0.00  0.00    +0.022 A 
ATOM     23  C   LIG    1      -23.455  80.218  36.100  0.00  0.00    +0.026 A 
BRANCH  22  24
ATOM     24  C   LIG    1      -23.557  82.010  37.854  0.00  0.00    +0.107 A 
ATOM     25  C   LIG    1      -24.545  82.967  37.594  0.00  0.00    +0.149 A 
ATOM     26  F   LIG    1      -24.918  83.266  36.341  0.00  0.00    -0.203 F 
ATOM     27  C   LIG    1      -25.173  83.627  38.646  0.00  0.00    +0.042 A 
ATOM     28  C   LIG    1      -24.826  83.304  39.950  0.00  0.00    +0.023 A 
ATOM     29  C   LIG    1      -23.846  82.347  40.140  0.00  0.00    +0.111 A 
ATOM     30  N   LIG    1      -23.194  81.725  39.130  0.00  0.00    -0.252 NA
ENDBRANCH  22  24
ENDBRANCH  14  16
ENDBRANCH   4  12
BRANCH   1  31
ATOM     31  C   LIG    1      -27.982  75.600  31.748  0.00  0.00    +0.236 C 
ATOM     32  N   LIG    1      -28.183  74.392  32.117  0.00  0.00    -0.241 NA
BRANCH  31  33
ATOM     33  O   LIG    1      -28.903  76.413  31.183  0.00  0.00    -0.491 OA
ATOM     34  H   LIG    1      -28.554  76.916  30.437  0.00  0.00    +0.294 HD
ENDBRANCH  31  33
BRANCH  32  35
ATOM     35  C   LIG    1      -29.479  73.749  32.021  0.00  0.00    +0.222 C 
BRANCH  35  36
ATOM     36  C   LIG    1      -29.326  72.449  31.332  0.00  0.00    +0.158 A 
ATOM     37  C   LIG    1      -30.205  71.494  30.881  0.00  0.00    +0.069 A 
ATOM     38  C   LIG    1      -29.380  70.533  30.275  0.00  0.00    +0.157 A 
ATOM     39  N   LIG    1      -28.088  70.862  30.349  0.00  0.00    -0.086 NA
ATOM     40  O   LIG    1      -28.056  72.076  31.014  0.00  0.00    -0.358 OA
ENDBRANCH  35  36
ENDBRANCH  32  35
ENDBRANCH   1  31
TORSDOF 8
ENDMDL
MODEL 9
REMARK VINA RESULT:      -6.4      7.205     12.106
REMARK  Name = pdb/CHEMBL3951420.pdb
REMARK                            x       y       z     vdW  Elec       q    Type
REMARK                         _______ _______ _______ _____ _____    ______ ____
ROOT
ATOM      1  C   LIG    1      -38.032  76.521  25.423  0.00  0.00    +0.149 A 
ATOM      2  N   LIG    1      -38.322  77.793  25.116  0.00  0.00    -0.160 NA
ATOM      3  N   LIG    1      -39.468  77.754  24.385  0.00  0.00    -0.218 N 
ATOM      4  C   LIG    1      -39.845  76.428  24.126  0.00  0.00    +0.129 A 
ATOM      5  C   LIG    1      -38.967  75.646  24.838  0.00  0.00    +0.078 A 
ENDROOT
BRANCH   3   6
ATOM      6  C   LIG    1      -40.117  78.989  24.055  0.00  0.00    +0.067 A 
ATOM      7  C   LIG    1      -39.388  79.967  23.351  0.00  0.00    +0.028 A 
ATOM      8  C   LIG    1      -39.959  81.205  23.042  0.00  0.00    +0.002 A 
ATOM      9  C   LIG    1      -41.270  81.480  23.413  0.00  0.00    +0.000 A 
ATOM     10  C   LIG    1      -42.005  80.523  24.106  0.00  0.00    +0.002 A 
ATOM     11  C   LIG    1      -41.427  79.292  24.442  0.00  0.00    +0.028 A 
ENDBRANCH   3   6
BRANCH   4  12
ATOM     12  N   LIG    1      -40.860  75.935  23.310  0.00  0.00    -0.266 N 
ATOM     13  H   LIG    1      -40.626  75.694  22.356  0.00  0.00    +0.157 HD
ATOM     14  C   LIG    1      -42.207  75.718  23.760  0.00  0.00    +0.251 C 
ATOM     15  O   LIG    1      -42.536  75.970  24.904  0.00  0.00    -0.270 OA
BRANCH  14  16
ATOM     16  C   LIG    1      -43.222  75.301  22.762  0.00  0.00    +0.056 A 
ATOM     17  C   LIG    1      -44.108  76.165  22.134  0.00  0.00    +0.054 A 
ATOM     18 CL   LIG    1      -44.097  77.877  22.363  0.00  0.00    -0.083 Cl
ATOM     19  C   LIG    1      -45.063  75.649  21.261  0.00  0.00    +0.041 A 
ATOM     20  C   LIG    1      -45.153  74.268  21.021  0.00  0.00    +0.052 A 
ATOM     21 CL   LIG    1      -46.477  73.790  20.008  0.00  0.00    -0.083 Cl
ATOM     22  C   LIG    1      -44.253  73.358  21.617  0.00  0.00    +0.022 A 
ATOM     23  C   LIG    1      -43.283  73.917  22.475  0.00  0.00    +0.026 A 
BRANCH  22  24
ATOM     24  C   LIG    1      -44.280  71.889  21.385  0.00  0.00    +0.107 A 
ATOM     25  C   LIG    1      -43.377  71.220  20.551  0.00  0.00    +0.149 A 
ATOM     26  F   LIG    1      -42.392  71.873  19.916  0.00  0.00    -0.203 F 
ATOM     27  C   LIG    1      -43.481  69.844  20.370  0.00  0.00    +0.042 A 
ATOM     28  C   LIG    1      -44.470  69.145  21.047  0.00  0.00    +0.023 A 
ATOM     29  C   LIG    1      -45.328  69.865  21.859  0.00  0.00    +0.111 A 
ATOM     30  N   LIG    1      -45.269  71.208  22.015  0.00  0.00    -0.252 NA
ENDBRANCH  22  24
ENDBRANCH  14  16
ENDBRANCH   4  12
BRANCH   1  31
ATOM     31  C   LIG    1      -36.889  76.129  26.247  0.00  0.00    +0.236 C 
ATOM     32  N   LIG    1      -36.113  77.010  26.753  0.00  0.00    -0.241 NA
BRANCH  31  33
ATOM     33  O   LIG    1      -36.768  74.791  26.403  0.00  0.00    -0.491 OA
ATOM     34  H   LIG    1      -37.583  74.314  26.205  0.00  0.00    +0.294 HD
ENDBRANCH  31  33
BRANCH  32  35
ATOM     35  C   LIG    1      -35.007  76.671  27.627  0.00  0.00    +0.222 C 
BRANCH  35  36
ATOM     36  C   LIG    1      -33.915  77.650  27.431  0.00  0.00    +0.158 A 
ATOM     37  C   LIG    1      -32.544  77.570  27.437  0.00  0.00    +0.069 A 
ATOM     38  C   LIG    1      -32.127  78.877  27.133  0.00  0.00    +0.157 A 
ATOM     39  N   LIG    1      -33.160  79.705  26.960  0.00  0.00    -0.086 NA
ATOM     40  O   LIG    1      -34.290  78.927  27.145  0.00  0.00    -0.358 OA
ENDBRANCH  35  36
ENDBRANCH  32  35
ENDBRANCH   1  31
TORSDOF 8
ENDMDL
