MODEL 1
REMARK VINA RESULT:      -6.5      0.000      0.000
REMARK  Name = pdb/CHEMBL3661597.pdb
REMARK                            x       y       z     vdW  Elec       q    Type
REMARK                         _______ _______ _______ _____ _____    ______ ____
ROOT
ATOM      1  C   LIG    1      -33.162  73.420  29.060  0.00  0.00    +0.042 A 
ATOM      2  C   LIG    1      -33.997  73.292  27.938  0.00  0.00    +0.038 A 
ATOM      3  C   LIG    1      -34.631  72.074  27.665  0.00  0.00    +0.052 A 
ATOM      4  C   LIG    1      -34.372  71.016  28.534  0.00  0.00    +0.134 A 
ATOM      5  N   LIG    1      -33.569  71.107  29.625  0.00  0.00    -0.261 NA
ATOM      6  C   LIG    1      -32.982  72.301  29.858  0.00  0.00    +0.122 A 
ENDROOT
BRANCH   3   7
ATOM      7  N   LIG    1      -35.473  71.999  26.530  0.00  0.00    -0.284 N 
ATOM      8  H   LIG    1      -35.012  71.951  25.630  0.00  0.00    +0.155 HD
ATOM      9  C   LIG    1      -36.859  71.971  26.543  0.00  0.00    +0.222 C 
ATOM     10  O   LIG    1      -37.565  72.075  27.545  0.00  0.00    -0.275 OA
BRANCH   9  11
ATOM     11  C   LIG    1      -37.489  71.761  25.173  0.00  0.00    +0.131 C 
BRANCH  11  12
ATOM     12  C   LIG    1      -38.434  72.882  24.817  0.00  0.00    -0.038 A 
ATOM     13  C   LIG    1      -38.045  74.221  24.963  0.00  0.00    +0.016 A 
ATOM     14  C   LIG    1      -38.902  75.269  24.581  0.00  0.00    +0.055 A 
ATOM     15  C   LIG    1      -40.162  74.958  24.051  0.00  0.00    +0.012 A 
ATOM     16  C   LIG    1      -40.555  73.629  23.897  0.00  0.00    +0.001 A 
ATOM     17  C   LIG    1      -39.695  72.598  24.273  0.00  0.00    +0.004 A 
BRANCH  14  18
ATOM     18  C   LIG    1      -38.453  76.701  24.735  0.00  0.00    +0.417 C 
ATOM     19  F   LIG    1      -39.501  77.566  24.823  0.00  0.00    -0.166 F 
ATOM     20  F   LIG    1      -37.708  77.127  23.677  0.00  0.00    -0.166 F 
ATOM     21  F   LIG    1      -37.692  76.924  25.843  0.00  0.00    -0.166 F 
ENDBRANCH  14  18
ENDBRANCH  11  12
ENDBRANCH   9  11
ENDBRANCH   3   7
BRANCH   1  22
ATOM     22  C   LIG    1      -32.441  74.694  29.306  0.00  0.00    +0.197 C 
ATOM     23  O   LIG    1      -31.226  74.636  29.529  0.00  0.00    -0.287 OA
BRANCH  22  31
ATOM     24  N   LIG    1      -34.528  77.670  29.863  0.00  0.00    -0.326 N 
ATOM     25  C   LIG    1      -33.828  78.074  28.755  0.00  0.00    +0.145 A 
ATOM     26  N   LIG    1      -33.948  79.262  28.141  0.00  0.00    -0.218 NA
ATOM     27  C   LIG    1      -33.123  79.389  27.093  0.00  0.00    +0.223 A 
ATOM     28  N   LIG    1      -32.262  78.474  26.617  0.00  0.00    -0.243 NA
ATOM     29  C   LIG    1      -32.186  77.284  27.256  0.00  0.00    +0.124 A 
ATOM     30  C   LIG    1      -32.978  77.044  28.382  0.00  0.00    +0.048 A 
ATOM     31  C   LIG    1      -33.147  75.973  29.315  0.00  0.00    +0.051 A 
ATOM     32  C   LIG    1      -34.146  76.383  30.188  0.00  0.00    +0.100 A 
BRANCH  24  34
ATOM     33  C   LIG    1      -36.563  77.553  31.338  0.00  0.00    +0.033 C 
ATOM     34  C   LIG    1      -35.549  78.430  30.593  0.00  0.00    +0.111 C 
BRANCH  34  35
ATOM     35  C   LIG    1      -34.921  79.452  31.554  0.00  0.00    +0.180 C 
BRANCH  35  36
ATOM     36  O   LIG    1      -34.640  80.694  30.912  0.00  0.00    -0.393 OA
ATOM     37  H   LIG    1      -34.735  80.555  29.951  0.00  0.00    +0.209 HD
ENDBRANCH  35  36
ENDBRANCH  34  35
ENDBRANCH  24  34
ENDBRANCH  22  31
ENDBRANCH   1  22
TORSDOF 9
ENDMDL
MODEL 2
REMARK VINA RESULT:      -6.4     12.449     16.225
REMARK  Name = pdb/CHEMBL3661597.pdb
REMARK                            x       y       z     vdW  Elec       q    Type
REMARK                         _______ _______ _______ _____ _____    ______ ____
ROOT
ATOM      1  C   LIG    1      -20.099  76.920  30.585  0.00  0.00    +0.042 A 
ATOM      2  C   LIG    1      -20.104  77.713  31.745  0.00  0.00    +0.038 A 
ATOM      3  C   LIG    1      -18.898  78.115  32.330  0.00  0.00    +0.052 A 
ATOM      4  C   LIG    1      -17.723  77.675  31.726  0.00  0.00    +0.134 A 
ATOM      5  N   LIG    1      -17.683  76.908  30.607  0.00  0.00    -0.261 NA
ATOM      6  C   LIG    1      -18.868  76.547  30.067  0.00  0.00    +0.122 A 
ENDROOT
BRANCH   3   7
ATOM      7  N   LIG    1      -18.956  78.924  33.491  0.00  0.00    -0.284 N 
ATOM      8  H   LIG    1      -19.061  79.920  33.340  0.00  0.00    +0.155 HD
ATOM      9  C   LIG    1      -18.895  78.476  34.801  0.00  0.00    +0.222 C 
ATOM     10  O   LIG    1      -18.714  77.310  35.148  0.00  0.00    -0.275 OA
BRANCH   9  11
ATOM     11  C   LIG    1      -19.107  79.568  35.841  0.00  0.00    +0.131 C 
BRANCH  11  12
ATOM     12  C   LIG    1      -20.479  80.185  35.728  0.00  0.00    -0.038 A 
ATOM     13  C   LIG    1      -21.541  79.472  35.153  0.00  0.00    +0.016 A 
ATOM     14  C   LIG    1      -22.834  80.021  35.096  0.00  0.00    +0.055 A 
ATOM     15  C   LIG    1      -23.053  81.302  35.622  0.00  0.00    +0.012 A 
ATOM     16  C   LIG    1      -22.004  82.017  36.200  0.00  0.00    +0.001 A 
ATOM     17  C   LIG    1      -20.727  81.460  36.257  0.00  0.00    +0.004 A 
BRANCH  14  18
ATOM     18  C   LIG    1      -23.962  79.227  34.486  0.00  0.00    +0.417 C 
ATOM     19  F   LIG    1      -25.179  79.593  34.976  0.00  0.00    -0.166 F 
ATOM     20  F   LIG    1      -23.849  77.892  34.733  0.00  0.00    -0.166 F 
ATOM     21  F   LIG    1      -24.053  79.350  33.132  0.00  0.00    -0.166 F 
ENDBRANCH  14  18
ENDBRANCH  11  12
ENDBRANCH   9  11
ENDBRANCH   3   7
BRANCH   1  22
ATOM     22  C   LIG    1      -21.380  76.442  30.008  0.00  0.00    +0.197 C 
ATOM     23  O   LIG    1      -21.505  76.471  28.778  0.00  0.00    -0.287 OA
BRANCH  22  31
ATOM     24  N   LIG    1      -23.696  74.816  32.356  0.00  0.00    -0.326 N 
ATOM     25  C   LIG    1      -24.501  75.822  31.886  0.00  0.00    +0.145 A 
ATOM     26  N   LIG    1      -25.767  76.057  32.267  0.00  0.00    -0.218 NA
ATOM     27  C   LIG    1      -26.303  77.120  31.654  0.00  0.00    +0.223 A 
ATOM     28  N   LIG    1      -25.727  77.904  30.727  0.00  0.00    -0.243 NA
ATOM     29  C   LIG    1      -24.456  77.621  30.359  0.00  0.00    +0.124 A 
ATOM     30  C   LIG    1      -23.780  76.551  30.952  0.00  0.00    +0.048 A 
ATOM     31  C   LIG    1      -22.471  75.982  30.864  0.00  0.00    +0.051 A 
ATOM     32  C   LIG    1      -22.474  74.884  31.714  0.00  0.00    +0.100 A 
BRANCH  24  34
ATOM     33  C   LIG    1      -24.315  72.408  32.742  0.00  0.00    +0.033 C 
ATOM     34  C   LIG    1      -24.044  73.792  33.347  0.00  0.00    +0.111 C 
BRANCH  34  35
ATOM     35  C   LIG    1      -22.986  73.689  34.457  0.00  0.00    +0.180 C 
BRANCH  35  36
ATOM     36  O   LIG    1      -23.352  74.428  35.621  0.00  0.00    -0.393 OA
ATOM     37  H   LIG    1      -24.284  74.697  35.515  0.00  0.00    +0.209 HD
ENDBRANCH  35  36
ENDBRANCH  34  35
ENDBRANCH  24  34
ENDBRANCH  22  31
ENDBRANCH   1  22
TORSDOF 9
ENDMDL
MODEL 3
REMARK VINA RESULT:      -6.1      2.624      3.607
REMARK  Name = pdb/CHEMBL3661597.pdb
REMARK                            x       y       z     vdW  Elec       q    Type
REMARK                         _______ _______ _______ _____ _____    ______ ____
ROOT
ATOM      1  C   LIG    1      -34.830  71.473  27.972  0.00  0.00    +0.042 A 
ATOM      2  C   LIG    1      -35.712  71.376  26.883  0.00  0.00    +0.038 A 
ATOM      3  C   LIG    1      -35.569  70.343  25.949  0.00  0.00    +0.052 A 
ATOM      4  C   LIG    1      -34.513  69.456  26.142  0.00  0.00    +0.134 A 
ATOM      5  N   LIG    1      -33.643  69.523  27.182  0.00  0.00    -0.261 NA
ATOM      6  C   LIG    1      -33.819  70.529  28.067  0.00  0.00    +0.122 A 
ENDROOT
BRANCH   3   7
ATOM      7  N   LIG    1      -36.491  70.280  24.876  0.00  0.00    -0.284 N 
ATOM      8  H   LIG    1      -36.241  70.791  24.038  0.00  0.00    +0.155 HD
ATOM      9  C   LIG    1      -37.685  69.577  24.867  0.00  0.00    +0.222 C 
ATOM     10  O   LIG    1      -38.153  68.954  25.820  0.00  0.00    -0.275 OA
BRANCH   9  11
ATOM     11  C   LIG    1      -38.406  69.595  23.527  0.00  0.00    +0.131 C 
BRANCH  11  12
ATOM     12  C   LIG    1      -39.496  70.639  23.495  0.00  0.00    -0.038 A 
ATOM     13  C   LIG    1      -39.253  71.943  23.950  0.00  0.00    +0.016 A 
ATOM     14  C   LIG    1      -40.247  72.934  23.871  0.00  0.00    +0.055 A 
ATOM     15  C   LIG    1      -41.497  72.601  23.331  0.00  0.00    +0.012 A 
ATOM     16  C   LIG    1      -41.746  71.308  22.871  0.00  0.00    +0.001 A 
ATOM     17  C   LIG    1      -40.750  70.335  22.948  0.00  0.00    +0.004 A 
BRANCH  14  18
ATOM     18  C   LIG    1      -39.955  74.333  24.355  0.00  0.00    +0.417 C 
ATOM     19  F   LIG    1      -40.449  74.564  25.602  0.00  0.00    -0.166 F 
ATOM     20  F   LIG    1      -40.510  75.284  23.554  0.00  0.00    -0.166 F 
ATOM     21  F   LIG    1      -38.626  74.627  24.418  0.00  0.00    -0.166 F 
ENDBRANCH  14  18
ENDBRANCH  11  12
ENDBRANCH   9  11
ENDBRANCH   3   7
BRANCH   1  22
ATOM     22  C   LIG    1      -34.947  72.608  28.922  0.00  0.00    +0.197 C 
ATOM     23  O   LIG    1      -35.275  72.354  30.086  0.00  0.00    -0.287 OA
BRANCH  22  31
ATOM     24  N   LIG    1      -33.735  75.965  28.036  0.00  0.00    -0.326 N 
ATOM     25  C   LIG    1      -35.046  76.076  27.651  0.00  0.00    +0.145 A 
ATOM     26  N   LIG    1      -35.612  77.160  27.099  0.00  0.00    -0.218 NA
ATOM     27  C   LIG    1      -36.907  76.977  26.806  0.00  0.00    +0.223 A 
ATOM     28  N   LIG    1      -37.647  75.878  27.032  0.00  0.00    -0.243 NA
ATOM     29  C   LIG    1      -37.040  74.813  27.606  0.00  0.00    +0.124 A 
ATOM     30  C   LIG    1      -35.681  74.876  27.931  0.00  0.00    +0.048 A 
ATOM     31  C   LIG    1      -34.713  73.983  28.490  0.00  0.00    +0.051 A 
ATOM     32  C   LIG    1      -33.533  74.710  28.579  0.00  0.00    +0.100 A 
BRANCH  24  34
ATOM     33  C   LIG    1      -31.487  76.743  28.857  0.00  0.00    +0.033 C 
ATOM     34  C   LIG    1      -32.692  76.993  27.941  0.00  0.00    +0.111 C 
BRANCH  34  35
ATOM     35  C   LIG    1      -32.225  77.200  26.492  0.00  0.00    +0.180 C 
BRANCH  35  36
ATOM     36  O   LIG    1      -32.793  78.369  25.905  0.00  0.00    -0.393 OA
ATOM     37  H   LIG    1      -33.754  78.343  26.072  0.00  0.00    +0.209 HD
ENDBRANCH  35  36
ENDBRANCH  34  35
ENDBRANCH  24  34
ENDBRANCH  22  31
ENDBRANCH   1  22
TORSDOF 9
ENDMDL
MODEL 4
REMARK VINA RESULT:      -6.0      7.823     11.826
REMARK  Name = pdb/CHEMBL3661597.pdb
REMARK                            x       y       z     vdW  Elec       q    Type
REMARK                         _______ _______ _______ _____ _____    ______ ____
ROOT
ATOM      1  C   LIG    1      -35.728  66.816  21.286  0.00  0.00    +0.042 A 
ATOM      2  C   LIG    1      -35.892  67.804  22.271  0.00  0.00    +0.038 A 
ATOM      3  C   LIG    1      -36.832  68.826  22.096  0.00  0.00    +0.052 A 
ATOM      4  C   LIG    1      -37.560  68.820  20.907  0.00  0.00    +0.134 A 
ATOM      5  N   LIG    1      -37.424  67.882  19.936  0.00  0.00    -0.261 NA
ATOM      6  C   LIG    1      -36.511  66.908  20.146  0.00  0.00    +0.122 A 
ENDROOT
BRANCH   3   7
ATOM      7  N   LIG    1      -36.970  69.791  23.122  0.00  0.00    -0.284 N 
ATOM      8  H   LIG    1      -36.416  70.633  23.025  0.00  0.00    +0.155 HD
ATOM      9  C   LIG    1      -37.798  69.692  24.230  0.00  0.00    +0.222 C 
ATOM     10  O   LIG    1      -38.488  68.715  24.518  0.00  0.00    -0.275 OA
BRANCH   9  11
ATOM     11  C   LIG    1      -37.826  70.942  25.097  0.00  0.00    +0.131 C 
BRANCH  11  12
ATOM     12  C   LIG    1      -38.808  71.962  24.573  0.00  0.00    -0.038 A 
ATOM     13  C   LIG    1      -39.961  71.558  23.885  0.00  0.00    +0.016 A 
ATOM     14  C   LIG    1      -40.906  72.501  23.443  0.00  0.00    +0.055 A 
ATOM     15  C   LIG    1      -40.680  73.861  23.696  0.00  0.00    +0.012 A 
ATOM     16  C   LIG    1      -39.538  74.271  24.384  0.00  0.00    +0.001 A 
ATOM     17  C   LIG    1      -38.610  73.327  24.824  0.00  0.00    +0.004 A 
BRANCH  14  18
ATOM     18  C   LIG    1      -42.146  72.040  22.718  0.00  0.00    +0.417 C 
ATOM     19  F   LIG    1      -42.594  72.960  21.820  0.00  0.00    -0.166 F 
ATOM     20  F   LIG    1      -43.187  71.811  23.566  0.00  0.00    -0.166 F 
ATOM     21  F   LIG    1      -41.976  70.884  22.016  0.00  0.00    -0.166 F 
ENDBRANCH  14  18
ENDBRANCH  11  12
ENDBRANCH   9  11
ENDBRANCH   3   7
BRANCH   1  22
ATOM     22  C   LIG    1      -34.683  65.774  21.448  0.00  0.00    +0.197 C 
ATOM     23  O   LIG    1      -34.729  65.064  22.459  0.00  0.00    -0.287 OA
BRANCH  22  31
ATOM     24  N   LIG    1      -31.807  65.966  19.165  0.00  0.00    -0.326 N 
ATOM     25  C   LIG    1      -32.290  64.726  18.835  0.00  0.00    +0.145 A 
ATOM     26  N   LIG    1      -31.763  63.895  17.922  0.00  0.00    -0.218 NA
ATOM     27  C   LIG    1      -32.434  62.741  17.822  0.00  0.00    +0.223 A 
ATOM     28  N   LIG    1      -33.540  62.379  18.495  0.00  0.00    -0.243 NA
ATOM     29  C   LIG    1      -34.049  63.254  19.394  0.00  0.00    +0.124 A 
ATOM     30  C   LIG    1      -33.416  64.482  19.607  0.00  0.00    +0.048 A 
ATOM     31  C   LIG    1      -33.617  65.611  20.463  0.00  0.00    +0.051 A 
ATOM     32  C   LIG    1      -32.627  66.524  20.127  0.00  0.00    +0.100 A 
BRANCH  24  34
ATOM     33  C   LIG    1      -30.692  68.173  18.700  0.00  0.00    +0.033 C 
ATOM     34  C   LIG    1      -30.639  66.644  18.592  0.00  0.00    +0.111 C 
BRANCH  34  35
ATOM     35  C   LIG    1      -29.324  66.113  19.185  0.00  0.00    +0.180 C 
BRANCH  35  36
ATOM     36  O   LIG    1      -29.303  66.199  20.609  0.00  0.00    -0.393 OA
ATOM     37  H   LIG    1      -30.027  66.794  20.877  0.00  0.00    +0.209 HD
ENDBRANCH  35  36
ENDBRANCH  34  35
ENDBRANCH  24  34
ENDBRANCH  22  31
ENDBRANCH   1  22
TORSDOF 9
ENDMDL
MODEL 5
REMARK VINA RESULT:      -6.0     16.424     19.497
REMARK  Name = pdb/CHEMBL3661597.pdb
REMARK                            x       y       z     vdW  Elec       q    Type
REMARK                         _______ _______ _______ _____ _____    ______ ____
ROOT
ATOM      1  C   LIG    1      -20.986  80.558  15.867  0.00  0.00    +0.042 A 
ATOM      2  C   LIG    1      -20.854  79.162  15.779  0.00  0.00    +0.038 A 
ATOM      3  C   LIG    1      -19.602  78.585  15.535  0.00  0.00    +0.052 A 
ATOM      4  C   LIG    1      -18.527  79.455  15.364  0.00  0.00    +0.134 A 
ATOM      5  N   LIG    1      -18.621  80.806  15.441  0.00  0.00    -0.261 NA
ATOM      6  C   LIG    1      -19.845  81.324  15.685  0.00  0.00    +0.122 A 
ENDROOT
BRANCH   3   7
ATOM      7  N   LIG    1      -19.518  77.174  15.469  0.00  0.00    -0.284 N 
ATOM      8  H   LIG    1      -20.015  76.729  14.707  0.00  0.00    +0.155 HD
ATOM      9  C   LIG    1      -18.810  76.357  16.337  0.00  0.00    +0.222 C 
ATOM     10  O   LIG    1      -18.203  76.736  17.337  0.00  0.00    -0.275 OA
BRANCH   9  11
ATOM     11  C   LIG    1      -18.804  74.887  15.940  0.00  0.00    +0.131 C 
BRANCH  11  12
ATOM     12  C   LIG    1      -19.326  74.008  17.050  0.00  0.00    -0.038 A 
ATOM     13  C   LIG    1      -20.701  73.931  17.316  0.00  0.00    +0.016 A 
ATOM     14  C   LIG    1      -21.197  73.071  18.312  0.00  0.00    +0.055 A 
ATOM     15  C   LIG    1      -20.295  72.288  19.046  0.00  0.00    +0.012 A 
ATOM     16  C   LIG    1      -18.927  72.356  18.786  0.00  0.00    +0.001 A 
ATOM     17  C   LIG    1      -18.446  73.207  17.790  0.00  0.00    +0.004 A 
BRANCH  14  18
ATOM     18  C   LIG    1      -22.682  72.995  18.568  0.00  0.00    +0.417 C 
ATOM     19  F   LIG    1      -23.325  74.150  18.239  0.00  0.00    -0.166 F 
ATOM     20  F   LIG    1      -22.971  72.770  19.879  0.00  0.00    -0.166 F 
ATOM     21  F   LIG    1      -23.311  72.007  17.871  0.00  0.00    -0.166 F 
ENDBRANCH  14  18
ENDBRANCH  11  12
ENDBRANCH   9  11
ENDBRANCH   3   7
BRANCH   1  22
ATOM     22  C   LIG    1      -22.327  81.165  16.060  0.00  0.00    +0.197 C 
ATOM     23  O   LIG    1      -22.541  81.766  17.118  0.00  0.00    -0.287 OA
BRANCH  22  31
ATOM     24  N   LIG    1      -24.684  81.370  13.245  0.00  0.00    -0.326 N 
ATOM     25  C   LIG    1      -25.166  80.254  13.878  0.00  0.00    +0.145 A 
ATOM     26  N   LIG    1      -26.211  79.513  13.476  0.00  0.00    -0.218 NA
ATOM     27  C   LIG    1      -26.446  78.468  14.280  0.00  0.00    +0.223 A 
ATOM     28  N   LIG    1      -25.784  78.136  15.401  0.00  0.00    -0.243 NA
ATOM     29  C   LIG    1      -24.748  78.920  15.780  0.00  0.00    +0.124 A 
ATOM     30  C   LIG    1      -24.389  80.026  15.003  0.00  0.00    +0.048 A 
ATOM     31  C   LIG    1      -23.371  81.031  15.047  0.00  0.00    +0.051 A 
ATOM     32  C   LIG    1      -23.616  81.868  13.967  0.00  0.00    +0.100 A 
BRANCH  24  34
ATOM     33  C   LIG    1      -24.807  83.462  11.853  0.00  0.00    +0.033 C 
ATOM     34  C   LIG    1      -25.204  81.990  12.021  0.00  0.00    +0.111 C 
BRANCH  34  35
ATOM     35  C   LIG    1      -24.819  81.189  10.767  0.00  0.00    +0.180 C 
BRANCH  35  36
ATOM     36  O   LIG    1      -25.779  80.181  10.457  0.00  0.00    -0.393 OA
ATOM     37  H   LIG    1      -26.239  79.950  11.285  0.00  0.00    +0.209 HD
ENDBRANCH  35  36
ENDBRANCH  34  35
ENDBRANCH  24  34
ENDBRANCH  22  31
ENDBRANCH   1  22
TORSDOF 9
ENDMDL
MODEL 6
REMARK VINA RESULT:      -5.9      1.672      1.997
REMARK  Name = pdb/CHEMBL3661597.pdb
REMARK                            x       y       z     vdW  Elec       q    Type
REMARK                         _______ _______ _______ _____ _____    ______ ____
ROOT
ATOM      1  C   LIG    1      -35.634  73.772  28.638  0.00  0.00    +0.042 A 
ATOM      2  C   LIG    1      -36.533  73.574  27.576  0.00  0.00    +0.038 A 
ATOM      3  C   LIG    1      -37.630  72.718  27.730  0.00  0.00    +0.052 A 
ATOM      4  C   LIG    1      -37.761  72.072  28.957  0.00  0.00    +0.134 A 
ATOM      5  N   LIG    1      -36.910  72.240  30.001  0.00  0.00    -0.261 NA
ATOM      6  C   LIG    1      -35.868  73.080  29.816  0.00  0.00    +0.122 A 
ENDROOT
BRANCH   3   7
ATOM      7  N   LIG    1      -38.514  72.562  26.637  0.00  0.00    -0.284 N 
ATOM      8  H   LIG    1      -39.466  72.879  26.779  0.00  0.00    +0.155 HD
ATOM      9  C   LIG    1      -38.194  72.031  25.397  0.00  0.00    +0.222 C 
ATOM     10  O   LIG    1      -37.102  71.555  25.086  0.00  0.00    -0.275 OA
BRANCH   9  11
ATOM     11  C   LIG    1      -39.322  72.105  24.379  0.00  0.00    +0.131 C 
BRANCH  11  12
ATOM     12  C   LIG    1      -39.820  73.519  24.199  0.00  0.00    -0.038 A 
ATOM     13  C   LIG    1      -38.977  74.611  24.446  0.00  0.00    +0.016 A 
ATOM     14  C   LIG    1      -39.417  75.929  24.228  0.00  0.00    +0.055 A 
ATOM     15  C   LIG    1      -40.722  76.141  23.760  0.00  0.00    +0.012 A 
ATOM     16  C   LIG    1      -41.566  75.059  23.508  0.00  0.00    +0.001 A 
ATOM     17  C   LIG    1      -41.116  73.757  23.721  0.00  0.00    +0.004 A 
BRANCH  14  18
ATOM     18  C   LIG    1      -38.485  77.086  24.487  0.00  0.00    +0.417 C 
ATOM     19  F   LIG    1      -37.819  76.961  25.668  0.00  0.00    -0.166 F 
ATOM     20  F   LIG    1      -39.144  78.276  24.557  0.00  0.00    -0.166 F 
ATOM     21  F   LIG    1      -37.526  77.245  23.531  0.00  0.00    -0.166 F 
ENDBRANCH  14  18
ENDBRANCH  11  12
ENDBRANCH   9  11
ENDBRANCH   3   7
BRANCH   1  22
ATOM     22  C   LIG    1      -34.438  74.629  28.445  0.00  0.00    +0.197 C 
ATOM     23  O   LIG    1      -33.341  74.071  28.325  0.00  0.00    -0.287 OA
BRANCH  22  31
ATOM     24  N   LIG    1      -35.197  78.205  28.839  0.00  0.00    -0.326 N 
ATOM     25  C   LIG    1      -34.170  78.279  27.934  0.00  0.00    +0.145 A 
ATOM     26  N   LIG    1      -33.658  79.407  27.417  0.00  0.00    -0.218 NA
ATOM     27  C   LIG    1      -32.647  79.177  26.570  0.00  0.00    +0.223 A 
ATOM     28  N   LIG    1      -32.151  77.985  26.195  0.00  0.00    -0.243 NA
ATOM     29  C   LIG    1      -32.708  76.872  26.727  0.00  0.00    +0.124 A 
ATOM     30  C   LIG    1      -33.754  76.987  27.647  0.00  0.00    +0.048 A 
ATOM     31  C   LIG    1      -34.545  76.086  28.428  0.00  0.00    +0.051 A 
ATOM     32  C   LIG    1      -35.454  76.876  29.118  0.00  0.00    +0.100 A 
BRANCH  24  34
ATOM     33  C   LIG    1      -37.364  78.945  29.882  0.00  0.00    +0.033 C 
ATOM     34  C   LIG    1      -35.953  79.323  29.416  0.00  0.00    +0.111 C 
BRANCH  34  35
ATOM     35  C   LIG    1      -35.180  80.005  30.556  0.00  0.00    +0.180 C 
BRANCH  35  36
ATOM     36  O   LIG    1      -34.380  81.090  30.091  0.00  0.00    -0.393 OA
ATOM     37  H   LIG    1      -34.450  81.808  30.748  0.00  0.00    +0.209 HD
ENDBRANCH  35  36
ENDBRANCH  34  35
ENDBRANCH  24  34
ENDBRANCH  22  31
ENDBRANCH   1  22
TORSDOF 9
ENDMDL
MODEL 7
REMARK VINA RESULT:      -5.9      2.248      3.182
REMARK  Name = pdb/CHEMBL3661597.pdb
REMARK                            x       y       z     vdW  Elec       q    Type
REMARK                         _______ _______ _______ _____ _____    ______ ____
ROOT
ATOM      1  C   LIG    1      -35.125  72.276  28.749  0.00  0.00    +0.042 A 
ATOM      2  C   LIG    1      -35.906  72.257  27.581  0.00  0.00    +0.038 A 
ATOM      3  C   LIG    1      -35.939  71.114  26.773  0.00  0.00    +0.052 A 
ATOM      4  C   LIG    1      -35.153  70.035  27.171  0.00  0.00    +0.134 A 
ATOM      5  N   LIG    1      -34.387  70.022  28.290  0.00  0.00    -0.261 NA
ATOM      6  C   LIG    1      -34.387  71.142  29.048  0.00  0.00    +0.122 A 
ENDROOT
BRANCH   3   7
ATOM      7  N   LIG    1      -36.751  71.138  25.614  0.00  0.00    -0.284 N 
ATOM      8  H   LIG    1      -36.296  71.413  24.752  0.00  0.00    +0.155 HD
ATOM      9  C   LIG    1      -38.096  70.809  25.553  0.00  0.00    +0.222 C 
ATOM     10  O   LIG    1      -38.801  70.511  26.517  0.00  0.00    -0.275 OA
BRANCH   9  11
ATOM     11  C   LIG    1      -38.673  70.810  24.145  0.00  0.00    +0.131 C 
BRANCH  11  12
ATOM     12  C   LIG    1      -39.657  71.937  23.946  0.00  0.00    -0.038 A 
ATOM     13  C   LIG    1      -39.301  73.260  24.246  0.00  0.00    +0.016 A 
ATOM     14  C   LIG    1      -40.194  74.320  24.010  0.00  0.00    +0.055 A 
ATOM     15  C   LIG    1      -41.458  74.038  23.471  0.00  0.00    +0.012 A 
ATOM     16  C   LIG    1      -41.818  72.726  23.165  0.00  0.00    +0.001 A 
ATOM     17  C   LIG    1      -40.921  71.683  23.396  0.00  0.00    +0.004 A 
BRANCH  14  18
ATOM     18  C   LIG    1      -39.782  75.736  24.328  0.00  0.00    +0.417 C 
ATOM     19  F   LIG    1      -38.441  75.850  24.538  0.00  0.00    -0.166 F 
ATOM     20  F   LIG    1      -40.376  76.207  25.459  0.00  0.00    -0.166 F 
ATOM     21  F   LIG    1      -40.083  76.631  23.346  0.00  0.00    -0.166 F 
ENDBRANCH  14  18
ENDBRANCH  11  12
ENDBRANCH   9  11
ENDBRANCH   3   7
BRANCH   1  22
ATOM     22  C   LIG    1      -35.043  73.514  29.565  0.00  0.00    +0.197 C 
ATOM     23  O   LIG    1      -35.175  73.407  30.789  0.00  0.00    -0.287 OA
BRANCH  22  31
ATOM     24  N   LIG    1      -33.902  76.699  28.126  0.00  0.00    -0.326 N 
ATOM     25  C   LIG    1      -35.250  76.808  27.905  0.00  0.00    +0.145 A 
ATOM     26  N   LIG    1      -35.866  77.839  27.304  0.00  0.00    -0.218 NA
ATOM     27  C   LIG    1      -37.191  77.666  27.209  0.00  0.00    +0.223 A 
ATOM     28  N   LIG    1      -37.914  76.627  27.662  0.00  0.00    -0.243 NA
ATOM     29  C   LIG    1      -37.254  75.618  28.277  0.00  0.00    +0.124 A 
ATOM     30  C   LIG    1      -35.864  75.672  28.411  0.00  0.00    +0.048 A 
ATOM     31  C   LIG    1      -34.845  74.820  28.941  0.00  0.00    +0.051 A 
ATOM     32  C   LIG    1      -33.651  75.511  28.786  0.00  0.00    +0.100 A 
BRANCH  24  34
ATOM     33  C   LIG    1      -31.630  77.627  28.682  0.00  0.00    +0.033 C 
ATOM     34  C   LIG    1      -32.863  77.673  27.770  0.00  0.00    +0.111 C 
BRANCH  34  35
ATOM     35  C   LIG    1      -32.442  77.546  26.298  0.00  0.00    +0.180 C 
BRANCH  35  36
ATOM     36  O   LIG    1      -32.307  78.817  25.664  0.00  0.00    -0.393 OA
ATOM     37  H   LIG    1      -33.190  79.230  25.646  0.00  0.00    +0.209 HD
ENDBRANCH  35  36
ENDBRANCH  34  35
ENDBRANCH  24  34
ENDBRANCH  22  31
ENDBRANCH   1  22
TORSDOF 9
ENDMDL
MODEL 8
REMARK VINA RESULT:      -5.8     19.421     22.775
REMARK  Name = pdb/CHEMBL3661597.pdb
REMARK                            x       y       z     vdW  Elec       q    Type
REMARK                         _______ _______ _______ _____ _____    ______ ____
ROOT
ATOM      1  C   LIG    1      -22.488  88.046  12.670  0.00  0.00    +0.042 A 
ATOM      2  C   LIG    1      -22.805  87.040  13.599  0.00  0.00    +0.038 A 
ATOM      3  C   LIG    1      -21.862  86.637  14.551  0.00  0.00    +0.052 A 
ATOM      4  C   LIG    1      -20.615  87.256  14.509  0.00  0.00    +0.134 A 
ATOM      5  N   LIG    1      -20.277  88.228  13.624  0.00  0.00    -0.261 NA
ATOM      6  C   LIG    1      -21.217  88.595  12.726  0.00  0.00    +0.122 A 
ENDROOT
BRANCH   3   7
ATOM      7  N   LIG    1      -22.233  85.630  15.474  0.00  0.00    -0.284 N 
ATOM      8  H   LIG    1      -22.615  85.947  16.357  0.00  0.00    +0.155 HD
ATOM      9  C   LIG    1      -22.133  84.262  15.273  0.00  0.00    +0.222 C 
ATOM     10  O   LIG    1      -21.644  83.721  14.282  0.00  0.00    -0.275 OA
BRANCH   9  11
ATOM     11  C   LIG    1      -22.726  83.424  16.397  0.00  0.00    +0.131 C 
BRANCH  11  12
ATOM     12  C   LIG    1      -22.890  81.981  15.989  0.00  0.00    -0.038 A 
ATOM     13  C   LIG    1      -23.967  81.581  15.186  0.00  0.00    +0.016 A 
ATOM     14  C   LIG    1      -24.094  80.247  14.758  0.00  0.00    +0.055 A 
ATOM     15  C   LIG    1      -23.125  79.312  15.149  0.00  0.00    +0.012 A 
ATOM     16  C   LIG    1      -22.048  79.702  15.944  0.00  0.00    +0.001 A 
ATOM     17  C   LIG    1      -21.929  81.029  16.358  0.00  0.00    +0.004 A 
BRANCH  14  18
ATOM     18  C   LIG    1      -25.254  79.846  13.881  0.00  0.00    +0.417 C 
ATOM     19  F   LIG    1      -26.272  79.286  14.592  0.00  0.00    -0.166 F 
ATOM     20  F   LIG    1      -24.902  78.920  12.947  0.00  0.00    -0.166 F 
ATOM     21  F   LIG    1      -25.807  80.883  13.191  0.00  0.00    -0.166 F 
ENDBRANCH  14  18
ENDBRANCH  11  12
ENDBRANCH   9  11
ENDBRANCH   3   7
BRANCH   1  22
ATOM     22  C   LIG    1      -23.470  88.422  11.622  0.00  0.00    +0.197 C 
ATOM     23  O   LIG    1      -23.835  87.544  10.831  0.00  0.00    -0.287 OA
BRANCH  22  31
ATOM     24  N   LIG    1      -25.234  91.648  11.689  0.00  0.00    -0.326 N 
ATOM     25  C   LIG    1      -24.130  91.996  10.956  0.00  0.00    +0.145 A 
ATOM     26  N   LIG    1      -23.867  93.217  10.465  0.00  0.00    -0.218 NA
ATOM     27  C   LIG    1      -22.704  93.271   9.803  0.00  0.00    +0.223 A 
ATOM     28  N   LIG    1      -21.845  92.261   9.578  0.00  0.00    -0.243 NA
ATOM     29  C   LIG    1      -22.158  91.043  10.077  0.00  0.00    +0.124 A 
ATOM     30  C   LIG    1      -23.334  90.869  10.812  0.00  0.00    +0.048 A 
ATOM     31  C   LIG    1      -23.967  89.791  11.506  0.00  0.00    +0.051 A 
ATOM     32  C   LIG    1      -25.161  90.302  11.997  0.00  0.00    +0.100 A 
BRANCH  24  34
ATOM     33  C   LIG    1      -27.667  92.196  11.352  0.00  0.00    +0.033 C 
ATOM     34  C   LIG    1      -26.353  92.515  12.076  0.00  0.00    +0.111 C 
BRANCH  34  35
ATOM     35  C   LIG    1      -26.571  92.521  13.597  0.00  0.00    +0.180 C 
BRANCH  35  36
ATOM     36  O   LIG    1      -27.894  92.122  13.953  0.00  0.00    -0.393 OA
ATOM     37  H   LIG    1      -28.009  91.199  13.661  0.00  0.00    +0.209 HD
ENDBRANCH  35  36
ENDBRANCH  34  35
ENDBRANCH  24  34
ENDBRANCH  22  31
ENDBRANCH   1  22
TORSDOF 9
ENDMDL
MODEL 9
REMARK VINA RESULT:      -5.8     18.719     21.568
REMARK  Name = pdb/CHEMBL3661597.pdb
REMARK                            x       y       z     vdW  Elec       q    Type
REMARK                         _______ _______ _______ _____ _____    ______ ____
ROOT
ATOM      1  C   LIG    1      -18.157  82.803  13.717  0.00  0.00    +0.042 A 
ATOM      2  C   LIG    1      -19.359  82.243  14.182  0.00  0.00    +0.038 A 
ATOM      3  C   LIG    1      -19.338  81.117  15.013  0.00  0.00    +0.052 A 
ATOM      4  C   LIG    1      -18.090  80.582  15.323  0.00  0.00    +0.134 A 
ATOM      5  N   LIG    1      -16.912  81.097  14.889  0.00  0.00    -0.261 NA
ATOM      6  C   LIG    1      -16.974  82.189  14.095  0.00  0.00    +0.122 A 
ENDROOT
BRANCH   3   7
ATOM      7  N   LIG    1      -20.575  80.599  15.467  0.00  0.00    -0.284 N 
ATOM      8  H   LIG    1      -20.811  79.664  15.156  0.00  0.00    +0.155 HD
ATOM      9  C   LIG    1      -21.474  81.244  16.302  0.00  0.00    +0.222 C 
ATOM     10  O   LIG    1      -21.358  82.396  16.719  0.00  0.00    -0.275 OA
BRANCH   9  11
ATOM     11  C   LIG    1      -22.660  80.386  16.718  0.00  0.00    +0.131 C 
BRANCH  11  12
ATOM     12  C   LIG    1      -23.711  80.325  15.636  0.00  0.00    -0.038 A 
ATOM     13  C   LIG    1      -23.762  81.302  14.631  0.00  0.00    +0.016 A 
ATOM     14  C   LIG    1      -24.703  81.219  13.590  0.00  0.00    +0.055 A 
ATOM     15  C   LIG    1      -25.601  80.142  13.568  0.00  0.00    +0.012 A 
ATOM     16  C   LIG    1      -25.554  79.164  14.561  0.00  0.00    +0.001 A 
ATOM     17  C   LIG    1      -24.612  79.253  15.586  0.00  0.00    +0.004 A 
BRANCH  14  18
ATOM     18  C   LIG    1      -24.727  82.274  12.512  0.00  0.00    +0.417 C 
ATOM     19  F   LIG    1      -24.051  83.400  12.874  0.00  0.00    -0.166 F 
ATOM     20  F   LIG    1      -25.992  82.681  12.213  0.00  0.00    -0.166 F 
ATOM     21  F   LIG    1      -24.175  81.870  11.333  0.00  0.00    -0.166 F 
ENDBRANCH  14  18
ENDBRANCH  11  12
ENDBRANCH   9  11
ENDBRANCH   3   7
BRANCH   1  22
ATOM     22  C   LIG    1      -18.190  83.957  12.784  0.00  0.00    +0.197 C 
ATOM     23  O   LIG    1      -17.267  84.065  11.968  0.00  0.00    -0.287 OA
BRANCH  22  31
ATOM     24  N   LIG    1      -20.513  86.737  13.412  0.00  0.00    -0.326 N 
ATOM     25  C   LIG    1      -21.193  86.078  12.421  0.00  0.00    +0.145 A 
ATOM     26  N   LIG    1      -22.371  86.451  11.896  0.00  0.00    -0.218 NA
ATOM     27  C   LIG    1      -22.791  85.626  10.928  0.00  0.00    +0.223 A 
ATOM     28  N   LIG    1      -22.186  84.510  10.487  0.00  0.00    -0.243 NA
ATOM     29  C   LIG    1      -21.009  84.161  11.056  0.00  0.00    +0.124 A 
ATOM     30  C   LIG    1      -20.455  84.961  12.059  0.00  0.00    +0.048 A 
ATOM     31  C   LIG    1      -19.259  84.950  12.845  0.00  0.00    +0.051 A 
ATOM     32  C   LIG    1      -19.354  86.040  13.700  0.00  0.00    +0.100 A 
BRANCH  24  34
ATOM     33  C   LIG    1      -20.999  89.196  13.198  0.00  0.00    +0.033 C 
ATOM     34  C   LIG    1      -20.924  87.962  14.106  0.00  0.00    +0.111 C 
BRANCH  34  35
ATOM     35  C   LIG    1      -22.251  87.774  14.859  0.00  0.00    +0.180 C 
BRANCH  35  36
ATOM     36  O   LIG    1      -22.499  88.830  15.786  0.00  0.00    -0.393 OA
ATOM     37  H   LIG    1      -21.850  88.743  16.508  0.00  0.00    +0.209 HD
ENDBRANCH  35  36
ENDBRANCH  34  35
ENDBRANCH  24  34
ENDBRANCH  22  31
ENDBRANCH   1  22
TORSDOF 9
ENDMDL
