MODEL 1
REMARK VINA RESULT:      -6.7      0.000      0.000
REMARK  Name = pdb/CHEMBL3975345.pdb
REMARK                            x       y       z     vdW  Elec       q    Type
REMARK                         _______ _______ _______ _____ _____    ______ ____
ROOT
ATOM      1  C   LIG    1      -25.219  71.792  32.379  0.00  0.00    +0.105 A 
ATOM      2  C   LIG    1      -25.606  71.816  31.053  0.00  0.00    +0.145 A 
ATOM      3  N   LIG    1      -26.843  71.529  30.592  0.00  0.00    -0.201 NA
ATOM      4  C   LIG    1      -27.754  71.243  31.528  0.00  0.00    +0.323 A 
ATOM      5  N   LIG    1      -27.519  71.213  32.853  0.00  0.00    -0.201 NA
ATOM      6  C   LIG    1      -26.261  71.514  33.241  0.00  0.00    +0.145 A 
ENDROOT
BRANCH   1   8
ATOM      7  C   LIG    1      -23.549  73.350  33.025  0.00  0.00    +0.285 C 
ATOM      8  N   LIG    1      -23.959  72.139  32.885  0.00  0.00    -0.196 NA
BRANCH   7   9
ATOM      9  N   LIG    1      -24.121  74.568  32.763  0.00  0.00    -0.268 N 
ATOM     10  H   LIG    1      -24.895  74.851  33.366  0.00  0.00    +0.157 HD
BRANCH   9  12
ATOM     11  C   LIG    1      -24.824  76.449  31.296  0.00  0.00    +0.127 A 
ATOM     12  C   LIG    1      -23.856  75.518  31.748  0.00  0.00    +0.062 A 
ATOM     13  C   LIG    1      -22.566  75.662  31.203  0.00  0.00    +0.037 A 
ATOM     14  C   LIG    1      -22.239  76.666  30.275  0.00  0.00    +0.057 A 
ATOM     15  C   LIG    1      -23.242  77.521  29.815  0.00  0.00    +0.014 A 
ATOM     16  C   LIG    1      -24.537  77.391  30.300  0.00  0.00    +0.031 A 
BRANCH  14  17
ATOM     17  C   LIG    1      -20.810  76.801  29.807  0.00  0.00    +0.417 C 
ATOM     18  F   LIG    1      -20.285  78.025  30.079  0.00  0.00    -0.166 F 
ATOM     19  F   LIG    1      -20.690  76.629  28.461  0.00  0.00    -0.166 F 
ATOM     20  F   LIG    1      -19.969  75.892  30.373  0.00  0.00    -0.166 F 
ENDBRANCH  14  17
BRANCH  11  21
ATOM     21  S   LIG    1      -26.485  76.484  31.960  0.00  0.00    +0.062 S 
ATOM     22  O   LIG    1      -27.195  77.603  31.346  0.00  0.00    -0.153 OA
ATOM     23  O   LIG    1      -26.991  75.137  31.849  0.00  0.00    -0.153 OA
BRANCH  21  25
ATOM     24  C   LIG    1      -25.412  78.006  33.932  0.00  0.00    +0.131 C 
ATOM     25  N   LIG    1      -26.251  76.837  33.611  0.00  0.00    -0.183 NA
ATOM     26  C   LIG    1      -27.426  76.730  34.491  0.00  0.00    +0.131 C 
ENDBRANCH  21  25
ENDBRANCH  11  21
ENDBRANCH   9  12
ENDBRANCH   7   9
BRANCH   7  27
ATOM     27  O   LIG    1      -22.330  73.403  33.588  0.00  0.00    -0.481 OA
ATOM     28  H   LIG    1      -22.437  73.837  34.451  0.00  0.00    +0.295 HD
ENDBRANCH   7  27
ENDBRANCH   1   8
BRANCH   4  29
ATOM     29  O   LIG    1      -29.030  70.982  31.055  0.00  0.00    -0.424 OA
BRANCH  29  30
ATOM     30  C   LIG    1      -29.852  72.059  30.826  0.00  0.00    +0.132 A 
ATOM     31  C   LIG    1      -29.786  73.247  31.549  0.00  0.00    +0.047 A 
ATOM     32  C   LIG    1      -30.646  74.301  31.246  0.00  0.00    +0.012 A 
ATOM     33  C   LIG    1      -31.546  74.245  30.163  0.00  0.00    -0.014 A 
ATOM     34  C   LIG    1      -31.565  73.046  29.427  0.00  0.00    +0.012 A 
ATOM     35  C   LIG    1      -30.742  71.961  29.761  0.00  0.00    +0.047 A 
BRANCH  33  36
ATOM     36  C   LIG    1      -32.389  75.429  29.831  0.00  0.00    +0.022 A 
ATOM     37  C   LIG    1      -33.528  75.844  30.544  0.00  0.00    +0.124 A 
ATOM     38  N   LIG    1      -34.253  76.941  30.224  0.00  0.00    -0.240 NA
ATOM     39  C   LIG    1      -33.844  77.699  29.186  0.00  0.00    +0.125 A 
ATOM     40  C   LIG    1      -32.738  77.409  28.417  0.00  0.00    +0.074 A 
ATOM     41  C   LIG    1      -32.034  76.245  28.734  0.00  0.00    +0.025 A 
BRANCH  40  42
ATOM     42  C   LIG    1      -32.316  78.330  27.317  0.00  0.00    +0.419 C 
ATOM     43  F   LIG    1      -31.854  77.657  26.227  0.00  0.00    -0.166 F 
ATOM     44  F   LIG    1      -31.314  79.172  27.689  0.00  0.00    -0.166 F 
ATOM     45  F   LIG    1      -33.322  79.126  26.860  0.00  0.00    -0.166 F 
ENDBRANCH  40  42
BRANCH  37  46
ATOM     46  N   LIG    1      -34.022  75.170  31.659  0.00  0.00    -0.343 N 
ATOM     47  H   LIG    1      -33.777  75.655  32.515  0.00  0.00    +0.144 HD
ATOM     48  H   LIG    1      -35.029  75.102  31.534  0.00  0.00    +0.144 HD
ENDBRANCH  37  46
ENDBRANCH  33  36
ENDBRANCH  29  30
ENDBRANCH   4  29
TORSDOF 12
ENDMDL
MODEL 2
REMARK VINA RESULT:      -6.7     17.805     20.372
REMARK  Name = pdb/CHEMBL3975345.pdb
REMARK                            x       y       z     vdW  Elec       q    Type
REMARK                         _______ _______ _______ _____ _____    ______ ____
ROOT
ATOM      1  C   LIG    1      -23.978  77.828  14.803  0.00  0.00    +0.105 A 
ATOM      2  C   LIG    1      -22.660  78.016  14.432  0.00  0.00    +0.145 A 
ATOM      3  N   LIG    1      -21.842  78.980  14.906  0.00  0.00    -0.201 NA
ATOM      4  C   LIG    1      -22.371  79.776  15.840  0.00  0.00    +0.323 A 
ATOM      5  N   LIG    1      -23.629  79.685  16.312  0.00  0.00    -0.201 NA
ATOM      6  C   LIG    1      -24.388  78.696  15.796  0.00  0.00    +0.145 A 
ENDROOT
BRANCH   1   8
ATOM      7  C   LIG    1      -25.920  77.001  13.720  0.00  0.00    +0.285 C 
ATOM      8  N   LIG    1      -24.828  76.802  14.367  0.00  0.00    -0.196 NA
BRANCH   7   9
ATOM      9  N   LIG    1      -26.559  78.133  13.286  0.00  0.00    -0.268 N 
ATOM     10  H   LIG    1      -27.493  78.306  13.661  0.00  0.00    +0.157 HD
BRANCH   9  12
ATOM     11  C   LIG    1      -26.512  79.048  10.973  0.00  0.00    +0.127 A 
ATOM     12  C   LIG    1      -26.168  79.117  12.346  0.00  0.00    +0.062 A 
ATOM     13  C   LIG    1      -25.500  80.287  12.753  0.00  0.00    +0.037 A 
ATOM     14  C   LIG    1      -25.194  81.336  11.867  0.00  0.00    +0.057 A 
ATOM     15  C   LIG    1      -25.500  81.194  10.513  0.00  0.00    +0.014 A 
ATOM     16  C   LIG    1      -26.128  80.040  10.062  0.00  0.00    +0.031 A 
BRANCH  14  17
ATOM     17  C   LIG    1      -24.552  82.592  12.405  0.00  0.00    +0.417 C 
ATOM     18  F   LIG    1      -24.361  82.544  13.750  0.00  0.00    -0.166 F 
ATOM     19  F   LIG    1      -25.309  83.699  12.170  0.00  0.00    -0.166 F 
ATOM     20  F   LIG    1      -23.334  82.853  11.857  0.00  0.00    -0.166 F 
ENDBRANCH  14  17
BRANCH  11  21
ATOM     21  S   LIG    1      -27.457  77.685  10.302  0.00  0.00    +0.062 S 
ATOM     22  O   LIG    1      -28.002  78.102   9.013  0.00  0.00    -0.153 OA
ATOM     23  O   LIG    1      -26.612  76.520  10.406  0.00  0.00    -0.153 OA
BRANCH  21  25
ATOM     24  C   LIG    1      -29.720  78.619  11.470  0.00  0.00    +0.131 C 
ATOM     25  N   LIG    1      -28.749  77.513  11.401  0.00  0.00    -0.183 NA
ATOM     26  C   LIG    1      -29.397  76.192  11.470  0.00  0.00    +0.131 C 
ENDBRANCH  21  25
ENDBRANCH  11  21
ENDBRANCH   9  12
ENDBRANCH   7   9
BRANCH   7  27
ATOM     27  O   LIG    1      -26.511  75.845  13.370  0.00  0.00    -0.481 OA
ATOM     28  H   LIG    1      -27.367  76.077  12.972  0.00  0.00    +0.295 HD
ENDBRANCH   7  27
ENDBRANCH   1   8
BRANCH   4  29
ATOM     29  O   LIG    1      -21.519  80.744  16.348  0.00  0.00    -0.424 OA
BRANCH  29  30
ATOM     30  C   LIG    1      -21.667  82.026  15.875  0.00  0.00    +0.132 A 
ATOM     31  C   LIG    1      -21.092  82.483  14.693  0.00  0.00    +0.047 A 
ATOM     32  C   LIG    1      -21.301  83.795  14.272  0.00  0.00    +0.012 A 
ATOM     33  C   LIG    1      -22.153  84.677  14.967  0.00  0.00    -0.014 A 
ATOM     34  C   LIG    1      -22.750  84.177  16.139  0.00  0.00    +0.012 A 
ATOM     35  C   LIG    1      -22.500  82.875  16.597  0.00  0.00    +0.047 A 
BRANCH  33  36
ATOM     36  C   LIG    1      -22.406  86.046  14.433  0.00  0.00    +0.022 A 
ATOM     37  C   LIG    1      -22.028  87.247  15.059  0.00  0.00    +0.124 A 
ATOM     38  N   LIG    1      -22.256  88.471  14.529  0.00  0.00    -0.240 NA
ATOM     39  C   LIG    1      -22.845  88.545  13.317  0.00  0.00    +0.125 A 
ATOM     40  C   LIG    1      -23.250  87.443  12.595  0.00  0.00    +0.074 A 
ATOM     41  C   LIG    1      -23.051  86.193  13.185  0.00  0.00    +0.025 A 
BRANCH  40  42
ATOM     42  C   LIG    1      -23.845  87.606  11.233  0.00  0.00    +0.419 C 
ATOM     43  F   LIG    1      -22.939  88.062  10.324  0.00  0.00    -0.166 F 
ATOM     44  F   LIG    1      -24.876  88.493  11.210  0.00  0.00    -0.166 F 
ATOM     45  F   LIG    1      -24.338  86.447  10.715  0.00  0.00    -0.166 F 
ENDBRANCH  40  42
BRANCH  37  46
ATOM     46  N   LIG    1      -21.375  87.298  16.288  0.00  0.00    -0.343 N 
ATOM     47  H   LIG    1      -20.953  86.404  16.512  0.00  0.00    +0.144 HD
ATOM     48  H   LIG    1      -20.682  88.039  16.218  0.00  0.00    +0.144 HD
ENDBRANCH  37  46
ENDBRANCH  33  36
ENDBRANCH  29  30
ENDBRANCH   4  29
TORSDOF 12
ENDMDL
MODEL 3
REMARK VINA RESULT:      -6.7      9.778     14.862
REMARK  Name = pdb/CHEMBL3975345.pdb
REMARK                            x       y       z     vdW  Elec       q    Type
REMARK                         _______ _______ _______ _____ _____    ______ ____
ROOT
ATOM      1  C   LIG    1      -38.889  68.728  22.325  0.00  0.00    +0.105 A 
ATOM      2  C   LIG    1      -37.593  69.206  22.279  0.00  0.00    +0.145 A 
ATOM      3  N   LIG    1      -36.626  68.940  23.183  0.00  0.00    -0.201 NA
ATOM      4  C   LIG    1      -36.974  68.108  24.169  0.00  0.00    +0.323 A 
ATOM      5  N   LIG    1      -38.189  67.548  24.317  0.00  0.00    -0.201 NA
ATOM      6  C   LIG    1      -39.105  67.856  23.375  0.00  0.00    +0.145 A 
ENDROOT
BRANCH   1   8
ATOM      7  C   LIG    1      -40.923  69.687  21.568  0.00  0.00    +0.285 C 
ATOM      8  N   LIG    1      -39.892  68.945  21.371  0.00  0.00    -0.196 NA
BRANCH   7   9
ATOM      9  N   LIG    1      -41.353  70.428  22.638  0.00  0.00    -0.268 N 
ATOM     10  H   LIG    1      -42.122  70.039  23.186  0.00  0.00    +0.157 HD
BRANCH   9  12
ATOM     11  C   LIG    1      -41.744  72.859  22.988  0.00  0.00    +0.127 A 
ATOM     12  C   LIG    1      -40.943  71.697  23.113  0.00  0.00    +0.062 A 
ATOM     13  C   LIG    1      -39.748  71.851  23.841  0.00  0.00    +0.037 A 
ATOM     14  C   LIG    1      -39.363  73.072  24.423  0.00  0.00    +0.057 A 
ATOM     15  C   LIG    1      -40.156  74.202  24.221  0.00  0.00    +0.014 A 
ATOM     16  C   LIG    1      -41.327  74.103  23.479  0.00  0.00    +0.031 A 
BRANCH  14  17
ATOM     17  C   LIG    1      -38.107  73.127  25.260  0.00  0.00    +0.417 C 
ATOM     18  F   LIG    1      -37.506  74.346  25.218  0.00  0.00    -0.166 F 
ATOM     19  F   LIG    1      -37.172  72.229  24.843  0.00  0.00    -0.166 F 
ATOM     20  F   LIG    1      -38.324  72.854  26.576  0.00  0.00    -0.166 F 
ENDBRANCH  14  17
BRANCH  11  21
ATOM     21  S   LIG    1      -43.345  72.823  22.190  0.00  0.00    +0.062 S 
ATOM     22  O   LIG    1      -44.009  74.098  22.450  0.00  0.00    -0.153 OA
ATOM     23  O   LIG    1      -43.111  72.373  20.840  0.00  0.00    -0.153 OA
BRANCH  21  25
ATOM     24  C   LIG    1      -44.825  71.979  24.301  0.00  0.00    +0.131 C 
ATOM     25  N   LIG    1      -44.185  71.599  23.029  0.00  0.00    -0.183 NA
ATOM     26  C   LIG    1      -45.023  70.693  22.226  0.00  0.00    +0.131 C 
ENDBRANCH  21  25
ENDBRANCH  11  21
ENDBRANCH   9  12
ENDBRANCH   7   9
BRANCH   7  27
ATOM     27  O   LIG    1      -41.694  69.773  20.470  0.00  0.00    -0.481 OA
ATOM     28  H   LIG    1      -42.064  68.887  20.318  0.00  0.00    +0.295 HD
ENDBRANCH   7  27
ENDBRANCH   1   8
BRANCH   4  29
ATOM     29  O   LIG    1      -35.970  67.810  25.078  0.00  0.00    -0.424 OA
BRANCH  29  30
ATOM     30  C   LIG    1      -35.465  68.848  25.824  0.00  0.00    +0.132 A 
ATOM     31  C   LIG    1      -34.149  69.291  25.738  0.00  0.00    +0.047 A 
ATOM     32  C   LIG    1      -33.716  70.362  26.519  0.00  0.00    +0.012 A 
ATOM     33  C   LIG    1      -34.594  71.083  27.352  0.00  0.00    -0.014 A 
ATOM     34  C   LIG    1      -35.928  70.636  27.391  0.00  0.00    +0.012 A 
ATOM     35  C   LIG    1      -36.357  69.525  26.650  0.00  0.00    +0.047 A 
BRANCH  33  36
ATOM     36  C   LIG    1      -34.101  72.270  28.107  0.00  0.00    +0.022 A 
ATOM     37  C   LIG    1      -33.359  72.226  29.301  0.00  0.00    +0.124 A 
ATOM     38  N   LIG    1      -32.908  73.328  29.943  0.00  0.00    -0.240 NA
ATOM     39  C   LIG    1      -33.152  74.536  29.392  0.00  0.00    +0.125 A 
ATOM     40  C   LIG    1      -33.853  74.713  28.220  0.00  0.00    +0.074 A 
ATOM     41  C   LIG    1      -34.352  73.565  27.601  0.00  0.00    +0.025 A 
BRANCH  40  42
ATOM     42  C   LIG    1      -34.033  76.081  27.643  0.00  0.00    +0.419 C 
ATOM     43  F   LIG    1      -35.152  76.174  26.872  0.00  0.00    -0.166 F 
ATOM     44  F   LIG    1      -32.997  76.459  26.846  0.00  0.00    -0.166 F 
ATOM     45  F   LIG    1      -34.152  77.056  28.587  0.00  0.00    -0.166 F 
ENDBRANCH  40  42
BRANCH  37  46
ATOM     46  N   LIG    1      -33.008  71.039  29.941  0.00  0.00    -0.343 N 
ATOM     47  H   LIG    1      -32.297  70.541  29.417  0.00  0.00    +0.144 HD
ATOM     48  H   LIG    1      -32.686  71.296  30.871  0.00  0.00    +0.144 HD
ENDBRANCH  37  46
ENDBRANCH  33  36
ENDBRANCH  29  30
ENDBRANCH   4  29
TORSDOF 12
ENDMDL
MODEL 4
REMARK VINA RESULT:      -6.5     17.765     20.269
REMARK  Name = pdb/CHEMBL3975345.pdb
REMARK                            x       y       z     vdW  Elec       q    Type
REMARK                         _______ _______ _______ _____ _____    ______ ____
ROOT
ATOM      1  C   LIG    1      -18.123  78.783  14.863  0.00  0.00    +0.105 A 
ATOM      2  C   LIG    1      -17.867  79.874  15.671  0.00  0.00    +0.145 A 
ATOM      3  N   LIG    1      -17.516  81.104  15.239  0.00  0.00    -0.201 NA
ATOM      4  C   LIG    1      -17.461  81.255  13.912  0.00  0.00    +0.323 A 
ATOM      5  N   LIG    1      -17.714  80.286  13.012  0.00  0.00    -0.201 NA
ATOM      6  C   LIG    1      -18.062  79.082  13.516  0.00  0.00    +0.145 A 
ENDROOT
BRANCH   1   8
ATOM      7  C   LIG    1      -19.706  77.024  15.041  0.00  0.00    +0.285 C 
ATOM      8  N   LIG    1      -18.542  77.514  15.285  0.00  0.00    -0.196 NA
BRANCH   7   9
ATOM      9  N   LIG    1      -20.803  77.504  14.374  0.00  0.00    -0.268 N 
ATOM     10  H   LIG    1      -20.884  77.257  13.387  0.00  0.00    +0.157 HD
BRANCH   9  12
ATOM     11  C   LIG    1      -23.202  77.907  14.891  0.00  0.00    +0.127 A 
ATOM     12  C   LIG    1      -21.857  78.345  14.806  0.00  0.00    +0.062 A 
ATOM     13  C   LIG    1      -21.603  79.644  15.283  0.00  0.00    +0.037 A 
ATOM     14  C   LIG    1      -22.607  80.468  15.822  0.00  0.00    +0.057 A 
ATOM     15  C   LIG    1      -23.928  80.015  15.828  0.00  0.00    +0.014 A 
ATOM     16  C   LIG    1      -24.228  78.751  15.334  0.00  0.00    +0.031 A 
BRANCH  14  17
ATOM     17  C   LIG    1      -22.231  81.815  16.389  0.00  0.00    +0.417 C 
ATOM     18  F   LIG    1      -20.889  82.030  16.376  0.00  0.00    -0.166 F 
ATOM     19  F   LIG    1      -22.624  81.957  17.685  0.00  0.00    -0.166 F 
ATOM     20  F   LIG    1      -22.790  82.858  15.715  0.00  0.00    -0.166 F 
ENDBRANCH  14  17
BRANCH  11  21
ATOM     21  S   LIG    1      -23.689  76.249  14.431  0.00  0.00    +0.062 S 
ATOM     22  O   LIG    1      -22.938  75.310  15.262  0.00  0.00    -0.153 OA
ATOM     23  O   LIG    1      -25.131  76.239  14.424  0.00  0.00    -0.153 OA
BRANCH  21  25
ATOM     24  C   LIG    1      -23.032  74.735  12.278  0.00  0.00    +0.131 C 
ATOM     25  N   LIG    1      -23.140  76.099  12.824  0.00  0.00    -0.183 NA
ATOM     26  C   LIG    1      -23.677  77.057  11.842  0.00  0.00    +0.131 C 
ENDBRANCH  21  25
ENDBRANCH  11  21
ENDBRANCH   9  12
ENDBRANCH   7   9
BRANCH   7  27
ATOM     27  O   LIG    1      -19.826  75.768  15.506  0.00  0.00    -0.481 OA
ATOM     28  H   LIG    1      -19.597  75.795  16.450  0.00  0.00    +0.295 HD
ENDBRANCH   7  27
ENDBRANCH   1   8
BRANCH   4  29
ATOM     29  O   LIG    1      -17.132  82.527  13.471  0.00  0.00    -0.424 OA
BRANCH  29  30
ATOM     30  C   LIG    1      -18.133  83.469  13.457  0.00  0.00    +0.132 A 
ATOM     31  C   LIG    1      -19.472  83.174  13.697  0.00  0.00    +0.047 A 
ATOM     32  C   LIG    1      -20.427  84.190  13.680  0.00  0.00    +0.012 A 
ATOM     33  C   LIG    1      -20.077  85.544  13.505  0.00  0.00    -0.014 A 
ATOM     34  C   LIG    1      -18.711  85.816  13.301  0.00  0.00    +0.012 A 
ATOM     35  C   LIG    1      -17.752  84.793  13.262  0.00  0.00    +0.047 A 
BRANCH  33  36
ATOM     36  C   LIG    1      -21.126  86.601  13.574  0.00  0.00    +0.022 A 
ATOM     37  C   LIG    1      -21.391  87.414  14.690  0.00  0.00    +0.124 A 
ATOM     38  N   LIG    1      -22.338  88.381  14.704  0.00  0.00    -0.240 NA
ATOM     39  C   LIG    1      -23.043  88.603  13.576  0.00  0.00    +0.125 A 
ATOM     40  C   LIG    1      -22.870  87.885  12.412  0.00  0.00    +0.074 A 
ATOM     41  C   LIG    1      -21.923  86.859  12.437  0.00  0.00    +0.025 A 
BRANCH  40  42
ATOM     42  C   LIG    1      -23.652  88.229  11.185  0.00  0.00    +0.419 C 
ATOM     43  F   LIG    1      -24.960  87.860  11.286  0.00  0.00    -0.166 F 
ATOM     44  F   LIG    1      -23.176  87.619  10.066  0.00  0.00    -0.166 F 
ATOM     45  F   LIG    1      -23.666  89.563  10.907  0.00  0.00    -0.166 F 
ENDBRANCH  40  42
BRANCH  37  46
ATOM     46  N   LIG    1      -20.700  87.310  15.896  0.00  0.00    -0.343 N 
ATOM     47  H   LIG    1      -20.319  86.378  16.016  0.00  0.00    +0.144 HD
ATOM     48  H   LIG    1      -19.971  88.019  15.874  0.00  0.00    +0.144 HD
ENDBRANCH  37  46
ENDBRANCH  33  36
ENDBRANCH  29  30
ENDBRANCH   4  29
TORSDOF 12
ENDMDL
MODEL 5
REMARK VINA RESULT:      -6.5     17.817     20.130
REMARK  Name = pdb/CHEMBL3975345.pdb
REMARK                            x       y       z     vdW  Elec       q    Type
REMARK                         _______ _______ _______ _____ _____    ______ ____
ROOT
ATOM      1  C   LIG    1      -21.139  77.927  14.081  0.00  0.00    +0.105 A 
ATOM      2  C   LIG    1      -21.246  78.409  12.790  0.00  0.00    +0.145 A 
ATOM      3  N   LIG    1      -20.655  79.528  12.319  0.00  0.00    -0.201 NA
ATOM      4  C   LIG    1      -19.876  80.178  13.190  0.00  0.00    +0.323 A 
ATOM      5  N   LIG    1      -19.661  79.803  14.466  0.00  0.00    -0.201 NA
ATOM      6  C   LIG    1      -20.282  78.673  14.866  0.00  0.00    +0.145 A 
ENDROOT
BRANCH   1   8
ATOM      7  C   LIG    1      -22.812  76.681  15.213  0.00  0.00    +0.285 C 
ATOM      8  N   LIG    1      -21.697  76.741  14.576  0.00  0.00    -0.196 NA
BRANCH   7   9
ATOM      9  N   LIG    1      -23.728  77.630  15.586  0.00  0.00    -0.268 N 
ATOM     10  H   LIG    1      -24.452  77.335  16.244  0.00  0.00    +0.157 HD
BRANCH   9  12
ATOM     11  C   LIG    1      -24.864  79.381  14.232  0.00  0.00    +0.127 A 
ATOM     12  C   LIG    1      -23.890  78.976  15.178  0.00  0.00    +0.062 A 
ATOM     13  C   LIG    1      -23.153  80.012  15.782  0.00  0.00    +0.037 A 
ATOM     14  C   LIG    1      -23.363  81.371  15.483  0.00  0.00    +0.057 A 
ATOM     15  C   LIG    1      -24.292  81.715  14.500  0.00  0.00    +0.014 A 
ATOM     16  C   LIG    1      -25.016  80.721  13.854  0.00  0.00    +0.031 A 
BRANCH  14  17
ATOM     17  C   LIG    1      -22.587  82.421  16.240  0.00  0.00    +0.417 C 
ATOM     18  F   LIG    1      -23.024  83.682  15.977  0.00  0.00    -0.166 F 
ATOM     19  F   LIG    1      -21.262  82.408  15.928  0.00  0.00    -0.166 F 
ATOM     20  F   LIG    1      -22.652  82.270  17.591  0.00  0.00    -0.166 F 
ENDBRANCH  14  17
BRANCH  11  21
ATOM     21  S   LIG    1      -25.964  78.209  13.447  0.00  0.00    +0.062 S 
ATOM     22  O   LIG    1      -26.523  77.347  14.485  0.00  0.00    -0.153 OA
ATOM     23  O   LIG    1      -26.824  78.980  12.583  0.00  0.00    -0.153 OA
BRANCH  21  25
ATOM     24  C   LIG    1      -25.176  75.820  12.433  0.00  0.00    +0.131 C 
ATOM     25  N   LIG    1      -24.924  77.271  12.474  0.00  0.00    -0.183 NA
ATOM     26  C   LIG    1      -24.569  77.818  11.154  0.00  0.00    +0.131 C 
ENDBRANCH  21  25
ENDBRANCH  11  21
ENDBRANCH   9  12
ENDBRANCH   7   9
BRANCH   7  27
ATOM     27  O   LIG    1      -23.144  75.416  15.521  0.00  0.00    -0.481 OA
ATOM     28  H   LIG    1      -22.317  74.951  15.728  0.00  0.00    +0.295 HD
ENDBRANCH   7  27
ENDBRANCH   1   8
BRANCH   4  29
ATOM     29  O   LIG    1      -19.245  81.308  12.695  0.00  0.00    -0.424 OA
BRANCH  29  30
ATOM     30  C   LIG    1      -19.822  82.525  12.970  0.00  0.00    +0.132 A 
ATOM     31  C   LIG    1      -19.123  83.611  13.489  0.00  0.00    +0.047 A 
ATOM     32  C   LIG    1      -19.778  84.818  13.727  0.00  0.00    +0.012 A 
ATOM     33  C   LIG    1      -21.130  85.016  13.384  0.00  0.00    -0.014 A 
ATOM     34  C   LIG    1      -21.803  83.912  12.827  0.00  0.00    +0.012 A 
ATOM     35  C   LIG    1      -21.164  82.678  12.637  0.00  0.00    +0.047 A 
BRANCH  33  36
ATOM     36  C   LIG    1      -21.764  86.350  13.586  0.00  0.00    +0.022 A 
ATOM     37  C   LIG    1      -22.096  86.915  14.830  0.00  0.00    +0.124 A 
ATOM     38  N   LIG    1      -22.649  88.141  14.972  0.00  0.00    -0.240 NA
ATOM     39  C   LIG    1      -22.862  88.881  13.863  0.00  0.00    +0.125 A 
ATOM     40  C   LIG    1      -22.568  88.448  12.589  0.00  0.00    +0.074 A 
ATOM     41  C   LIG    1      -22.045  87.159  12.462  0.00  0.00    +0.025 A 
BRANCH  40  42
ATOM     42  C   LIG    1      -22.781  89.349  11.414  0.00  0.00    +0.419 C 
ATOM     43  F   LIG    1      -22.474  88.742  10.234  0.00  0.00    -0.166 F 
ATOM     44  F   LIG    1      -22.018  90.474  11.466  0.00  0.00    -0.166 F 
ATOM     45  F   LIG    1      -24.068  89.777  11.286  0.00  0.00    -0.166 F 
ENDBRANCH  40  42
BRANCH  37  46
ATOM     46  N   LIG    1      -21.883  86.268  16.046  0.00  0.00    -0.343 N 
ATOM     47  H   LIG    1      -21.455  85.360  15.904  0.00  0.00    +0.144 HD
ATOM     48  H   LIG    1      -21.296  86.884  16.603  0.00  0.00    +0.144 HD
ENDBRANCH  37  46
ENDBRANCH  33  36
ENDBRANCH  29  30
ENDBRANCH   4  29
TORSDOF 12
ENDMDL
MODEL 6
REMARK VINA RESULT:      -6.4      8.692     11.918
REMARK  Name = pdb/CHEMBL3975345.pdb
REMARK                            x       y       z     vdW  Elec       q    Type
REMARK                         _______ _______ _______ _____ _____    ______ ____
ROOT
ATOM      1  C   LIG    1      -34.162  74.181  28.965  0.00  0.00    +0.105 A 
ATOM      2  C   LIG    1      -35.436  73.861  29.393  0.00  0.00    +0.145 A 
ATOM      3  N   LIG    1      -36.172  72.816  28.957  0.00  0.00    -0.201 NA
ATOM      4  C   LIG    1      -35.570  72.021  28.067  0.00  0.00    +0.323 A 
ATOM      5  N   LIG    1      -34.324  72.199  27.587  0.00  0.00    -0.201 NA
ATOM      6  C   LIG    1      -33.647  73.262  28.071  0.00  0.00    +0.145 A 
ENDROOT
BRANCH   1   8
ATOM      7  C   LIG    1      -33.295  76.388  28.899  0.00  0.00    +0.285 C 
ATOM      8  N   LIG    1      -33.360  75.225  29.443  0.00  0.00    -0.196 NA
BRANCH   7   9
ATOM      9  N   LIG    1      -33.902  76.945  27.804  0.00  0.00    -0.268 N 
ATOM     10  H   LIG    1      -33.292  77.239  27.040  0.00  0.00    +0.157 HD
BRANCH   9  12
ATOM     11  C   LIG    1      -35.848  78.495  27.847  0.00  0.00    +0.127 A 
ATOM     12  C   LIG    1      -35.263  77.239  27.547  0.00  0.00    +0.062 A 
ATOM     13  C   LIG    1      -36.090  76.323  26.870  0.00  0.00    +0.037 A 
ATOM     14  C   LIG    1      -37.414  76.621  26.499  0.00  0.00    +0.057 A 
ATOM     15  C   LIG    1      -37.964  77.849  26.871  0.00  0.00    +0.014 A 
ATOM     16  C   LIG    1      -37.193  78.770  27.570  0.00  0.00    +0.031 A 
BRANCH  14  17
ATOM     17  C   LIG    1      -38.202  75.611  25.701  0.00  0.00    +0.417 C 
ATOM     18  F   LIG    1      -39.283  76.161  25.087  0.00  0.00    -0.166 F 
ATOM     19  F   LIG    1      -38.682  74.602  26.478  0.00  0.00    -0.166 F 
ATOM     20  F   LIG    1      -37.473  75.011  24.721  0.00  0.00    -0.166 F 
ENDBRANCH  14  17
BRANCH  11  21
ATOM     21  S   LIG    1      -34.912  79.816  28.605  0.00  0.00    +0.062 S 
ATOM     22  O   LIG    1      -34.582  79.412  29.970  0.00  0.00    -0.153 OA
ATOM     23  O   LIG    1      -33.874  80.166  27.666  0.00  0.00    -0.153 OA
BRANCH  21  25
ATOM     24  C   LIG    1      -36.425  81.564  30.024  0.00  0.00    +0.131 C 
ATOM     25  N   LIG    1      -36.026  81.105  28.682  0.00  0.00    -0.183 NA
ATOM     26  C   LIG    1      -35.823  82.221  27.743  0.00  0.00    +0.131 C 
ENDBRANCH  21  25
ENDBRANCH  11  21
ENDBRANCH   9  12
ENDBRANCH   7   9
BRANCH   7  27
ATOM     27  O   LIG    1      -32.498  77.220  29.592  0.00  0.00    -0.481 OA
ATOM     28  H   LIG    1      -32.023  76.677  30.242  0.00  0.00    +0.295 HD
ENDBRANCH   7  27
ENDBRANCH   1   8
BRANCH   4  29
ATOM     29  O   LIG    1      -36.314  70.931  27.645  0.00  0.00    -0.424 OA
BRANCH  29  30
ATOM     30  C   LIG    1      -37.352  71.173  26.777  0.00  0.00    +0.132 A 
ATOM     31  C   LIG    1      -38.693  71.136  27.150  0.00  0.00    +0.047 A 
ATOM     32  C   LIG    1      -39.689  71.408  26.212  0.00  0.00    +0.012 A 
ATOM     33  C   LIG    1      -39.388  71.805  24.894  0.00  0.00    -0.014 A 
ATOM     34  C   LIG    1      -38.023  71.869  24.556  0.00  0.00    +0.012 A 
ATOM     35  C   LIG    1      -37.018  71.543  25.478  0.00  0.00    +0.047 A 
BRANCH  33  36
ATOM     36  C   LIG    1      -40.487  72.162  23.953  0.00  0.00    +0.022 A 
ATOM     37  C   LIG    1      -41.196  71.253  23.146  0.00  0.00    +0.124 A 
ATOM     38  N   LIG    1      -42.206  71.614  22.321  0.00  0.00    -0.240 NA
ATOM     39  C   LIG    1      -42.579  72.911  22.294  0.00  0.00    +0.125 A 
ATOM     40  C   LIG    1      -41.975  73.896  23.046  0.00  0.00    +0.074 A 
ATOM     41  C   LIG    1      -40.902  73.508  23.852  0.00  0.00    +0.025 A 
BRANCH  40  42
ATOM     42  C   LIG    1      -42.483  75.301  23.004  0.00  0.00    +0.419 C 
ATOM     43  F   LIG    1      -43.293  75.526  21.931  0.00  0.00    -0.166 F 
ATOM     44  F   LIG    1      -41.486  76.222  22.918  0.00  0.00    -0.166 F 
ATOM     45  F   LIG    1      -43.218  75.645  24.098  0.00  0.00    -0.166 F 
ENDBRANCH  40  42
BRANCH  37  46
ATOM     46  N   LIG    1      -40.933  69.885  23.120  0.00  0.00    -0.343 N 
ATOM     47  H   LIG    1      -41.632  69.391  22.576  0.00  0.00    +0.144 HD
ATOM     48  H   LIG    1      -40.000  69.777  22.729  0.00  0.00    +0.144 HD
ENDBRANCH  37  46
ENDBRANCH  33  36
ENDBRANCH  29  30
ENDBRANCH   4  29
TORSDOF 12
ENDMDL
MODEL 7
REMARK VINA RESULT:      -6.4     17.584     20.210
REMARK  Name = pdb/CHEMBL3975345.pdb
REMARK                            x       y       z     vdW  Elec       q    Type
REMARK                         _______ _______ _______ _____ _____    ______ ____
ROOT
ATOM      1  C   LIG    1      -20.664  77.063  14.447  0.00  0.00    +0.105 A 
ATOM      2  C   LIG    1      -20.427  77.323  13.110  0.00  0.00    +0.145 A 
ATOM      3  N   LIG    1      -19.539  78.220  12.631  0.00  0.00    -0.201 NA
ATOM      4  C   LIG    1      -18.816  78.863  13.553  0.00  0.00    +0.323 A 
ATOM      5  N   LIG    1      -18.923  78.685  14.884  0.00  0.00    -0.201 NA
ATOM      6  C   LIG    1      -19.829  77.770  15.290  0.00  0.00    +0.145 A 
ENDROOT
BRANCH   1   8
ATOM      7  C   LIG    1      -22.751  76.343  15.318  0.00  0.00    +0.285 C 
ATOM      8  N   LIG    1      -21.539  76.099  14.966  0.00  0.00    -0.196 NA
BRANCH   7   9
ATOM      9  N   LIG    1      -23.515  77.481  15.314  0.00  0.00    -0.268 N 
ATOM     10  H   LIG    1      -24.436  77.416  15.750  0.00  0.00    +0.157 HD
BRANCH   9  12
ATOM     11  C   LIG    1      -23.709  79.129  13.461  0.00  0.00    +0.127 A 
ATOM     12  C   LIG    1      -23.273  78.760  14.758  0.00  0.00    +0.062 A 
ATOM     13  C   LIG    1      -22.673  79.782  15.518  0.00  0.00    +0.037 A 
ATOM     14  C   LIG    1      -22.517  81.095  15.039  0.00  0.00    +0.057 A 
ATOM     15  C   LIG    1      -22.907  81.394  13.732  0.00  0.00    +0.014 A 
ATOM     16  C   LIG    1      -23.472  80.405  12.936  0.00  0.00    +0.031 A 
BRANCH  14  17
ATOM     17  C   LIG    1      -21.940  82.150  15.952  0.00  0.00    +0.417 C 
ATOM     18  F   LIG    1      -20.581  82.145  15.960  0.00  0.00    -0.166 F 
ATOM     19  F   LIG    1      -22.327  81.978  17.246  0.00  0.00    -0.166 F 
ATOM     20  F   LIG    1      -22.315  83.415  15.618  0.00  0.00    -0.166 F 
ENDBRANCH  14  17
BRANCH  11  21
ATOM     21  S   LIG    1      -24.587  77.989  12.399  0.00  0.00    +0.062 S 
ATOM     22  O   LIG    1      -25.065  78.731  11.234  0.00  0.00    -0.153 OA
ATOM     23  O   LIG    1      -23.728  76.841  12.242  0.00  0.00    -0.153 OA
BRANCH  21  25
ATOM     24  C   LIG    1      -27.200  78.248  13.082  0.00  0.00    +0.131 C 
ATOM     25  N   LIG    1      -25.938  77.529  13.332  0.00  0.00    -0.183 NA
ATOM     26  C   LIG    1      -26.145  76.087  13.543  0.00  0.00    +0.131 C 
ENDBRANCH  21  25
ENDBRANCH  11  21
ENDBRANCH   9  12
ENDBRANCH   7   9
BRANCH   7  27
ATOM     27  O   LIG    1      -23.387  75.231  15.723  0.00  0.00    -0.481 OA
ATOM     28  H   LIG    1      -24.332  75.452  15.774  0.00  0.00    +0.295 HD
ENDBRANCH   7  27
ENDBRANCH   1   8
BRANCH   4  29
ATOM     29  O   LIG    1      -17.882  79.759  13.058  0.00  0.00    -0.424 OA
BRANCH  29  30
ATOM     30  C   LIG    1      -18.213  81.093  13.082  0.00  0.00    +0.132 A 
ATOM     31  C   LIG    1      -19.404  81.601  12.570  0.00  0.00    +0.047 A 
ATOM     32  C   LIG    1      -19.673  82.967  12.645  0.00  0.00    +0.012 A 
ATOM     33  C   LIG    1      -18.809  83.865  13.301  0.00  0.00    -0.014 A 
ATOM     34  C   LIG    1      -17.630  83.318  13.841  0.00  0.00    +0.012 A 
ATOM     35  C   LIG    1      -17.326  81.954  13.720  0.00  0.00    +0.047 A 
BRANCH  33  36
ATOM     36  C   LIG    1      -19.180  85.304  13.423  0.00  0.00    +0.022 A 
ATOM     37  C   LIG    1      -18.394  86.388  12.992  0.00  0.00    +0.124 A 
ATOM     38  N   LIG    1      -18.778  87.681  13.099  0.00  0.00    -0.240 NA
ATOM     39  C   LIG    1      -19.996  87.946  13.615  0.00  0.00    +0.125 A 
ATOM     40  C   LIG    1      -20.866  86.975  14.060  0.00  0.00    +0.074 A 
ATOM     41  C   LIG    1      -20.428  85.651  13.987  0.00  0.00    +0.025 A 
BRANCH  40  42
ATOM     42  C   LIG    1      -22.223  87.347  14.567  0.00  0.00    +0.419 C 
ATOM     43  F   LIG    1      -22.225  87.592  15.907  0.00  0.00    -0.166 F 
ATOM     44  F   LIG    1      -23.149  86.371  14.364  0.00  0.00    -0.166 F 
ATOM     45  F   LIG    1      -22.730  88.469  13.986  0.00  0.00    -0.166 F 
ENDBRANCH  40  42
BRANCH  37  46
ATOM     46  N   LIG    1      -17.139  86.238  12.405  0.00  0.00    -0.343 N 
ATOM     47  H   LIG    1      -16.858  87.087  11.927  0.00  0.00    +0.144 HD
ATOM     48  H   LIG    1      -16.496  85.992  13.153  0.00  0.00    +0.144 HD
ENDBRANCH  37  46
ENDBRANCH  33  36
ENDBRANCH  29  30
ENDBRANCH   4  29
TORSDOF 12
ENDMDL
MODEL 8
REMARK VINA RESULT:      -6.4     11.969     15.742
REMARK  Name = pdb/CHEMBL3975345.pdb
REMARK                            x       y       z     vdW  Elec       q    Type
REMARK                         _______ _______ _______ _____ _____    ______ ____
ROOT
ATOM      1  C   LIG    1      -37.467  70.857  25.630  0.00  0.00    +0.105 A 
ATOM      2  C   LIG    1      -38.627  70.151  25.371  0.00  0.00    +0.145 A 
ATOM      3  N   LIG    1      -38.736  69.105  24.524  0.00  0.00    -0.201 NA
ATOM      4  C   LIG    1      -37.598  68.719  23.936  0.00  0.00    +0.323 A 
ATOM      5  N   LIG    1      -36.397  69.298  24.121  0.00  0.00    -0.201 NA
ATOM      6  C   LIG    1      -36.363  70.336  24.984  0.00  0.00    +0.145 A 
ENDROOT
BRANCH   1   8
ATOM      7  C   LIG    1      -37.495  73.147  26.249  0.00  0.00    +0.285 C 
ATOM      8  N   LIG    1      -37.319  71.908  26.544  0.00  0.00    -0.196 NA
BRANCH   7   9
ATOM      9  N   LIG    1      -37.841  73.794  25.091  0.00  0.00    -0.268 N 
ATOM     10  H   LIG    1      -37.074  74.113  24.497  0.00  0.00    +0.157 HD
BRANCH   9  12
ATOM     11  C   LIG    1      -39.522  75.501  24.421  0.00  0.00    +0.127 A 
ATOM     12  C   LIG    1      -39.108  74.154  24.573  0.00  0.00    +0.062 A 
ATOM     13  C   LIG    1      -39.993  73.180  24.072  0.00  0.00    +0.037 A 
ATOM     14  C   LIG    1      -41.211  73.507  23.449  0.00  0.00    +0.057 A 
ATOM     15  C   LIG    1      -41.602  74.845  23.378  0.00  0.00    +0.014 A 
ATOM     16  C   LIG    1      -40.774  75.836  23.891  0.00  0.00    +0.031 A 
BRANCH  14  17
ATOM     17  C   LIG    1      -42.059  72.403  22.864  0.00  0.00    +0.417 C 
ATOM     18  F   LIG    1      -41.428  71.200  22.875  0.00  0.00    -0.166 F 
ATOM     19  F   LIG    1      -42.394  72.644  21.567  0.00  0.00    -0.166 F 
ATOM     20  F   LIG    1      -43.236  72.221  23.524  0.00  0.00    -0.166 F 
ENDBRANCH  14  17
BRANCH  11  21
ATOM     21  S   LIG    1      -38.476  76.871  24.901  0.00  0.00    +0.062 S 
ATOM     22  O   LIG    1      -37.156  76.661  24.312  0.00  0.00    -0.153 OA
ATOM     23  O   LIG    1      -39.229  78.069  24.621  0.00  0.00    -0.153 OA
BRANCH  21  25
ATOM     24  C   LIG    1      -37.245  77.429  27.253  0.00  0.00    +0.131 C 
ATOM     25  N   LIG    1      -38.343  76.701  26.593  0.00  0.00    -0.183 NA
ATOM     26  C   LIG    1      -39.593  76.743  27.370  0.00  0.00    +0.131 C 
ENDBRANCH  21  25
ENDBRANCH  11  21
ENDBRANCH   9  12
ENDBRANCH   7   9
BRANCH   7  27
ATOM     27  O   LIG    1      -37.349  73.942  27.323  0.00  0.00    -0.481 OA
ATOM     28  H   LIG    1      -36.396  73.990  27.509  0.00  0.00    +0.295 HD
ENDBRANCH   7  27
ENDBRANCH   1   8
BRANCH   4  29
ATOM     29  O   LIG    1      -37.706  67.625  23.093  0.00  0.00    -0.424 OA
BRANCH  29  30
ATOM     30  C   LIG    1      -36.585  67.259  22.386  0.00  0.00    +0.132 A 
ATOM     31  C   LIG    1      -35.456  66.692  22.971  0.00  0.00    +0.047 A 
ATOM     32  C   LIG    1      -34.363  66.335  22.182  0.00  0.00    +0.012 A 
ATOM     33  C   LIG    1      -34.383  66.452  20.778  0.00  0.00    -0.014 A 
ATOM     34  C   LIG    1      -35.552  66.994  20.212  0.00  0.00    +0.012 A 
ATOM     35  C   LIG    1      -36.633  67.407  21.004  0.00  0.00    +0.047 A 
BRANCH  33  36
ATOM     36  C   LIG    1      -33.219  65.982  19.974  0.00  0.00    +0.022 A 
ATOM     37  C   LIG    1      -33.080  64.700  19.413  0.00  0.00    +0.124 A 
ATOM     38  N   LIG    1      -32.018  64.320  18.667  0.00  0.00    -0.240 NA
ATOM     39  C   LIG    1      -31.053  65.230  18.416  0.00  0.00    +0.125 A 
ATOM     40  C   LIG    1      -31.078  66.522  18.895  0.00  0.00    +0.074 A 
ATOM     41  C   LIG    1      -32.159  66.876  19.704  0.00  0.00    +0.025 A 
BRANCH  40  42
ATOM     42  C   LIG    1      -29.998  67.488  18.525  0.00  0.00    +0.419 C 
ATOM     43  F   LIG    1      -30.438  68.777  18.521  0.00  0.00    -0.166 F 
ATOM     44  F   LIG    1      -29.489  67.262  17.284  0.00  0.00    -0.166 F 
ATOM     45  F   LIG    1      -28.934  67.464  19.375  0.00  0.00    -0.166 F 
ENDBRANCH  40  42
BRANCH  37  46
ATOM     46  N   LIG    1      -34.029  63.691  19.565  0.00  0.00    -0.343 N 
ATOM     47  H   LIG    1      -34.441  63.716  20.491  0.00  0.00    +0.144 HD
ATOM     48  H   LIG    1      -34.724  63.833  18.836  0.00  0.00    +0.144 HD
ENDBRANCH  37  46
ENDBRANCH  33  36
ENDBRANCH  29  30
ENDBRANCH   4  29
TORSDOF 12
ENDMDL
MODEL 9
REMARK VINA RESULT:      -6.3     11.676     14.749
REMARK  Name = pdb/CHEMBL3975345.pdb
REMARK                            x       y       z     vdW  Elec       q    Type
REMARK                         _______ _______ _______ _____ _____    ______ ____
ROOT
ATOM      1  C   LIG    1      -36.916  80.717  28.319  0.00  0.00    +0.105 A 
ATOM      2  C   LIG    1      -37.871  79.718  28.329  0.00  0.00    +0.145 A 
ATOM      3  N   LIG    1      -37.653  78.420  28.028  0.00  0.00    -0.201 NA
ATOM      4  C   LIG    1      -36.386  78.101  27.743  0.00  0.00    +0.323 A 
ATOM      5  N   LIG    1      -35.355  78.967  27.725  0.00  0.00    -0.201 NA
ATOM      6  C   LIG    1      -35.648  80.247  28.039  0.00  0.00    +0.145 A 
ENDROOT
BRANCH   1   8
ATOM      7  C   LIG    1      -37.013  83.043  27.862  0.00  0.00    +0.285 C 
ATOM      8  N   LIG    1      -37.108  82.057  28.681  0.00  0.00    -0.196 NA
BRANCH   7   9
ATOM      9  N   LIG    1      -36.726  83.124  26.524  0.00  0.00    -0.268 N 
ATOM     10  H   LIG    1      -35.746  83.020  26.257  0.00  0.00    +0.157 HD
BRANCH   9  12
ATOM     11  C   LIG    1      -37.504  84.586  24.667  0.00  0.00    +0.127 A 
ATOM     12  C   LIG    1      -37.561  83.380  25.409  0.00  0.00    +0.062 A 
ATOM     13  C   LIG    1      -38.428  82.391  24.908  0.00  0.00    +0.037 A 
ATOM     14  C   LIG    1      -39.191  82.569  23.739  0.00  0.00    +0.057 A 
ATOM     15  C   LIG    1      -39.145  83.797  23.077  0.00  0.00    +0.014 A 
ATOM     16  C   LIG    1      -38.329  84.813  23.558  0.00  0.00    +0.031 A 
BRANCH  14  17
ATOM     17  C   LIG    1      -40.030  81.424  23.225  0.00  0.00    +0.417 C 
ATOM     18  F   LIG    1      -39.309  80.540  22.485  0.00  0.00    -0.166 F 
ATOM     19  F   LIG    1      -41.045  81.849  22.423  0.00  0.00    -0.166 F 
ATOM     20  F   LIG    1      -40.619  80.700  24.216  0.00  0.00    -0.166 F 
ENDBRANCH  14  17
BRANCH  11  21
ATOM     21  S   LIG    1      -36.378  85.908  25.096  0.00  0.00    +0.062 S 
ATOM     22  O   LIG    1      -35.075  85.316  25.390  0.00  0.00    -0.153 OA
ATOM     23  O   LIG    1      -36.520  86.908  24.067  0.00  0.00    -0.153 OA
BRANCH  21  25
ATOM     24  C   LIG    1      -36.125  87.346  27.382  0.00  0.00    +0.131 C 
ATOM     25  N   LIG    1      -37.023  86.530  26.547  0.00  0.00    -0.183 NA
ATOM     26  C   LIG    1      -38.389  87.078  26.489  0.00  0.00    +0.131 C 
ENDBRANCH  21  25
ENDBRANCH  11  21
ENDBRANCH   9  12
ENDBRANCH   7   9
BRANCH   7  27
ATOM     27  O   LIG    1      -37.304  84.214  28.453  0.00  0.00    -0.481 OA
ATOM     28  H   LIG    1      -36.970  84.915  27.868  0.00  0.00    +0.295 HD
ENDBRANCH   7  27
ENDBRANCH   1   8
BRANCH   4  29
ATOM     29  O   LIG    1      -36.158  76.762  27.466  0.00  0.00    -0.424 OA
BRANCH  29  30
ATOM     30  C   LIG    1      -37.115  76.096  26.739  0.00  0.00    +0.132 A 
ATOM     31  C   LIG    1      -38.056  75.240  27.304  0.00  0.00    +0.047 A 
ATOM     32  C   LIG    1      -39.005  74.612  26.499  0.00  0.00    +0.012 A 
ATOM     33  C   LIG    1      -39.106  74.872  25.118  0.00  0.00    -0.014 A 
ATOM     34  C   LIG    1      -38.164  75.770  24.580  0.00  0.00    +0.012 A 
ATOM     35  C   LIG    1      -37.172  76.363  25.375  0.00  0.00    +0.047 A 
BRANCH  33  36
ATOM     36  C   LIG    1      -40.188  74.235  24.315  0.00  0.00    +0.022 A 
ATOM     37  C   LIG    1      -41.310  74.900  23.786  0.00  0.00    +0.124 A 
ATOM     38  N   LIG    1      -42.259  74.289  23.041  0.00  0.00    -0.240 NA
ATOM     39  C   LIG    1      -42.107  72.978  22.757  0.00  0.00    +0.125 A 
ATOM     40  C   LIG    1      -41.047  72.219  23.202  0.00  0.00    +0.074 A 
ATOM     41  C   LIG    1      -40.105  72.858  24.012  0.00  0.00    +0.025 A 
BRANCH  40  42
ATOM     42  C   LIG    1      -40.919  70.785  22.797  0.00  0.00    +0.419 C 
ATOM     43  F   LIG    1      -39.642  70.325  22.919  0.00  0.00    -0.166 F 
ATOM     44  F   LIG    1      -41.272  70.568  21.502  0.00  0.00    -0.166 F 
ATOM     45  F   LIG    1      -41.687  69.941  23.541  0.00  0.00    -0.166 F 
ENDBRANCH  40  42
BRANCH  37  46
ATOM     46  N   LIG    1      -41.554  76.259  23.974  0.00  0.00    -0.343 N 
ATOM     47  H   LIG    1      -40.873  76.666  24.605  0.00  0.00    +0.144 HD
ATOM     48  H   LIG    1      -41.523  76.689  23.053  0.00  0.00    +0.144 HD
ENDBRANCH  37  46
ENDBRANCH  33  36
ENDBRANCH  29  30
ENDBRANCH   4  29
TORSDOF 12
ENDMDL
