MODEL 1
REMARK VINA RESULT:      -7.6      0.000      0.000
REMARK  Name = pdb/CHEMBL3898571.pdb
REMARK                            x       y       z     vdW  Elec       q    Type
REMARK                         _______ _______ _______ _____ _____    ______ ____
ROOT
ATOM      1  C   LIG    1      -35.490  69.235  25.031  0.00  0.00    +0.131 C 
ATOM      2  N   LIG    1      -36.541  70.064  24.925  0.00  0.00    -0.141 NA
ATOM      3  N   LIG    1      -36.256  71.115  25.729  0.00  0.00    -0.201 N 
ATOM      4  C   LIG    1      -34.921  71.084  26.162  0.00  0.00    +0.185 C 
ATOM      5  C   LIG    1      -34.474  69.825  25.827  0.00  0.00    +0.056 C 
ENDROOT
BRANCH   3   6
ATOM      6  C   LIG    1      -37.259  72.088  25.996  0.00  0.00    +0.052 A 
ATOM      7  C   LIG    1      -37.743  72.294  27.293  0.00  0.00    +0.025 A 
ATOM      8  C   LIG    1      -38.769  73.215  27.519  0.00  0.00    +0.002 A 
ATOM      9  C   LIG    1      -39.315  73.934  26.457  0.00  0.00    +0.000 A 
ATOM     10  C   LIG    1      -38.835  73.738  25.164  0.00  0.00    +0.002 A 
ATOM     11  C   LIG    1      -37.819  72.809  24.929  0.00  0.00    +0.025 A 
ENDBRANCH   3   6
BRANCH   4  12
ATOM     12  N   LIG    1      -34.195  72.149  26.729  0.00  0.00    -0.282 N 
ATOM     13  H   LIG    1      -33.641  72.716  26.118  0.00  0.00    +0.152 HD
ATOM     14  C   LIG    1      -34.096  72.392  28.150  0.00  0.00    +0.247 C 
ATOM     15  O   LIG    1      -34.689  71.666  28.940  0.00  0.00    -0.270 OA
BRANCH  14  16
ATOM     16  C   LIG    1      -33.205  73.446  28.658  0.00  0.00    +0.056 A 
ATOM     17  C   LIG    1      -32.060  73.180  29.399  0.00  0.00    +0.056 A 
ATOM     18 CL   LIG    1      -31.489  71.587  29.719  0.00  0.00    -0.083 Cl
ATOM     19  C   LIG    1      -31.285  74.239  29.874  0.00  0.00    +0.059 A 
ATOM     20  C   LIG    1      -31.630  75.556  29.570  0.00  0.00    +0.134 A 
ATOM     21  F   LIG    1      -30.885  76.517  30.131  0.00  0.00    -0.205 F 
ATOM     22  C   LIG    1      -32.712  75.873  28.741  0.00  0.00    +0.039 A 
ATOM     23  C   LIG    1      -33.513  74.784  28.316  0.00  0.00    +0.027 A 
BRANCH  22  24
ATOM     24  C   LIG    1      -33.019  77.263  28.321  0.00  0.00    +0.109 A 
ATOM     25  C   LIG    1      -32.439  77.889  27.211  0.00  0.00    +0.149 A 
ATOM     26  F   LIG    1      -31.585  77.252  26.399  0.00  0.00    -0.203 F 
ATOM     27  C   LIG    1      -32.780  79.198  26.888  0.00  0.00    +0.042 A 
ATOM     28  C   LIG    1      -33.720  79.862  27.660  0.00  0.00    +0.023 A 
ATOM     29  C   LIG    1      -34.279  79.180  28.729  0.00  0.00    +0.111 A 
ATOM     30  N   LIG    1      -33.954  77.907  29.076  0.00  0.00    -0.252 NA
ENDBRANCH  22  24
ENDBRANCH  14  16
ENDBRANCH   4  12
BRANCH   1  32
ATOM     31  N   LIG    1      -34.861  67.854  23.190  0.00  0.00    -0.243 NA
ATOM     32  C   LIG    1      -35.436  67.943  24.337  0.00  0.00    +0.233 C 
BRANCH  32  33
ATOM     33  O   LIG    1      -36.056  66.933  24.987  0.00  0.00    -0.491 OA
ATOM     34  H   LIG    1      -35.419  66.322  25.403  0.00  0.00    +0.294 HD
ENDBRANCH  32  33
BRANCH  31  35
ATOM     35  C   LIG    1      -34.696  66.538  22.557  0.00  0.00    +0.200 C 
BRANCH  35  38
ATOM     36  C   LIG    1      -32.532  66.804  19.599  0.00  0.00    +0.116 A 
ATOM     37  N   LIG    1      -32.949  66.776  20.877  0.00  0.00    -0.235 NA
ATOM     38  C   LIG    1      -34.280  66.587  21.105  0.00  0.00    +0.065 A 
ATOM     39  C   LIG    1      -35.197  66.375  20.085  0.00  0.00    +0.025 A 
ATOM     40  C   LIG    1      -34.740  66.402  18.773  0.00  0.00    +0.005 A 
ATOM     41  C   LIG    1      -33.390  66.629  18.525  0.00  0.00    +0.043 A 
BRANCH  36  42
ATOM     42  N   LIG    1      -31.180  67.052  19.391  0.00  0.00    -0.343 N 
ATOM     43  H   LIG    1      -30.649  66.613  20.137  0.00  0.00    +0.144 HD
ATOM     44  H   LIG    1      -30.871  66.748  18.476  0.00  0.00    +0.144 HD
ENDBRANCH  36  42
ENDBRANCH  35  38
ENDBRANCH  31  35
ENDBRANCH   1  32
TORSDOF 9
ENDMDL
MODEL 2
REMARK VINA RESULT:      -6.9     16.804     20.478
REMARK  Name = pdb/CHEMBL3898571.pdb
REMARK                            x       y       z     vdW  Elec       q    Type
REMARK                         _______ _______ _______ _____ _____    ______ ____
ROOT
ATOM      1  C   LIG    1      -20.842  81.858  14.022  0.00  0.00    +0.131 C 
ATOM      2  N   LIG    1      -22.154  81.580  14.097  0.00  0.00    -0.141 NA
ATOM      3  N   LIG    1      -22.229  80.276  14.449  0.00  0.00    -0.201 N 
ATOM      4  C   LIG    1      -20.977  79.776  14.842  0.00  0.00    +0.185 C 
ATOM      5  C   LIG    1      -20.076  80.740  14.446  0.00  0.00    +0.056 C 
ENDROOT
BRANCH   3   6
ATOM      6  C   LIG    1      -23.486  79.612  14.424  0.00  0.00    +0.052 A 
ATOM      7  C   LIG    1      -24.387  79.721  15.489  0.00  0.00    +0.025 A 
ATOM      8  C   LIG    1      -25.591  79.013  15.464  0.00  0.00    +0.002 A 
ATOM      9  C   LIG    1      -25.903  78.195  14.379  0.00  0.00    +0.000 A 
ATOM     10  C   LIG    1      -25.013  78.085  13.311  0.00  0.00    +0.002 A 
ATOM     11  C   LIG    1      -23.802  78.780  13.337  0.00  0.00    +0.025 A 
ENDBRANCH   3   6
BRANCH   4  12
ATOM     12  N   LIG    1      -20.730  78.591  15.560  0.00  0.00    -0.282 N 
ATOM     13  H   LIG    1      -20.706  78.645  16.559  0.00  0.00    +0.152 HD
ATOM     14  C   LIG    1      -20.382  77.331  14.944  0.00  0.00    +0.247 C 
ATOM     15  O   LIG    1      -20.315  77.243  13.723  0.00  0.00    -0.270 OA
BRANCH  14  16
ATOM     16  C   LIG    1      -20.009  76.179  15.779  0.00  0.00    +0.056 A 
ATOM     17  C   LIG    1      -18.843  76.135  16.533  0.00  0.00    +0.056 A 
ATOM     18 CL   LIG    1      -17.750  77.460  16.665  0.00  0.00    -0.083 Cl
ATOM     19  C   LIG    1      -18.543  74.990  17.273  0.00  0.00    +0.059 A 
ATOM     20  C   LIG    1      -19.430  73.914  17.295  0.00  0.00    +0.134 A 
ATOM     21  F   LIG    1      -19.034  72.821  17.961  0.00  0.00    -0.205 F 
ATOM     22  C   LIG    1      -20.666  73.950  16.638  0.00  0.00    +0.039 A 
ATOM     23  C   LIG    1      -20.922  75.101  15.851  0.00  0.00    +0.027 A 
BRANCH  22  24
ATOM     24  C   LIG    1      -21.664  72.857  16.748  0.00  0.00    +0.109 A 
ATOM     25  C   LIG    1      -22.700  72.837  17.688  0.00  0.00    +0.149 A 
ATOM     26  F   LIG    1      -22.905  73.847  18.545  0.00  0.00    -0.203 F 
ATOM     27  C   LIG    1      -23.592  71.770  17.726  0.00  0.00    +0.042 A 
ATOM     28  C   LIG    1      -23.458  70.745  16.803  0.00  0.00    +0.023 A 
ATOM     29  C   LIG    1      -22.430  70.834  15.879  0.00  0.00    +0.111 A 
ATOM     30  N   LIG    1      -21.536  71.857  15.829  0.00  0.00    -0.252 NA
ENDBRANCH  22  24
ENDBRANCH  14  16
ENDBRANCH   4  12
BRANCH   1  32
ATOM     31  N   LIG    1      -20.900  83.809  12.650  0.00  0.00    -0.243 NA
ATOM     32  C   LIG    1      -20.340  83.176  13.619  0.00  0.00    +0.233 C 
BRANCH  32  33
ATOM     33  O   LIG    1      -19.264  83.602  14.317  0.00  0.00    -0.491 OA
ATOM     34  H   LIG    1      -19.504  83.895  15.217  0.00  0.00    +0.294 HD
ENDBRANCH  32  33
BRANCH  31  35
ATOM     35  C   LIG    1      -20.479  85.180  12.332  0.00  0.00    +0.200 C 
BRANCH  35  38
ATOM     36  C   LIG    1      -21.483  87.350  15.122  0.00  0.00    +0.116 A 
ATOM     37  N   LIG    1      -20.870  86.389  14.409  0.00  0.00    -0.235 NA
ATOM     38  C   LIG    1      -21.213  86.257  13.096  0.00  0.00    +0.065 A 
ATOM     39  C   LIG    1      -22.120  87.097  12.466  0.00  0.00    +0.025 A 
ATOM     40  C   LIG    1      -22.735  88.087  13.222  0.00  0.00    +0.005 A 
ATOM     41  C   LIG    1      -22.420  88.210  14.572  0.00  0.00    +0.043 A 
BRANCH  36  42
ATOM     42  N   LIG    1      -21.157  87.429  16.471  0.00  0.00    -0.343 N 
ATOM     43  H   LIG    1      -22.004  87.616  17.001  0.00  0.00    +0.144 HD
ATOM     44  H   LIG    1      -20.680  86.598  16.799  0.00  0.00    +0.144 HD
ENDBRANCH  36  42
ENDBRANCH  35  38
ENDBRANCH  31  35
ENDBRANCH   1  32
TORSDOF 9
ENDMDL
MODEL 3
REMARK VINA RESULT:      -6.8      5.329     12.068
REMARK  Name = pdb/CHEMBL3898571.pdb
REMARK                            x       y       z     vdW  Elec       q    Type
REMARK                         _______ _______ _______ _____ _____    ______ ____
ROOT
ATOM      1  C   LIG    1      -37.066  79.784  27.629  0.00  0.00    +0.131 C 
ATOM      2  N   LIG    1      -35.985  78.997  27.758  0.00  0.00    -0.141 NA
ATOM      3  N   LIG    1      -36.436  77.731  27.600  0.00  0.00    -0.201 N 
ATOM      4  C   LIG    1      -37.757  77.712  27.127  0.00  0.00    +0.185 C 
ATOM      5  C   LIG    1      -38.199  79.008  27.270  0.00  0.00    +0.056 C 
ENDROOT
BRANCH   3   6
ATOM      6  C   LIG    1      -35.570  76.637  27.874  0.00  0.00    +0.052 A 
ATOM      7  C   LIG    1      -34.285  76.572  27.323  0.00  0.00    +0.025 A 
ATOM      8  C   LIG    1      -33.476  75.459  27.562  0.00  0.00    +0.002 A 
ATOM      9  C   LIG    1      -33.942  74.407  28.351  0.00  0.00    +0.000 A 
ATOM     10  C   LIG    1      -35.218  74.467  28.907  0.00  0.00    +0.002 A 
ATOM     11  C   LIG    1      -36.037  75.571  28.661  0.00  0.00    +0.025 A 
ENDBRANCH   3   6
BRANCH   4  12
ATOM     12  N   LIG    1      -38.430  76.616  26.553  0.00  0.00    -0.282 N 
ATOM     13  H   LIG    1      -39.099  76.130  27.117  0.00  0.00    +0.152 HD
ATOM     14  C   LIG    1      -38.122  76.071  25.251  0.00  0.00    +0.247 C 
ATOM     15  O   LIG    1      -37.247  76.583  24.563  0.00  0.00    -0.270 OA
BRANCH  14  16
ATOM     16  C   LIG    1      -38.784  74.841  24.790  0.00  0.00    +0.056 A 
ATOM     17  C   LIG    1      -39.982  74.843  24.087  0.00  0.00    +0.056 A 
ATOM     18 CL   LIG    1      -40.777  76.283  23.575  0.00  0.00    -0.083 Cl
ATOM     19  C   LIG    1      -40.565  73.631  23.714  0.00  0.00    +0.059 A 
ATOM     20  C   LIG    1      -39.929  72.424  24.006  0.00  0.00    +0.134 A 
ATOM     21  F   LIG    1      -40.590  71.304  23.690  0.00  0.00    -0.205 F 
ATOM     22  C   LIG    1      -38.672  72.371  24.620  0.00  0.00    +0.039 A 
ATOM     23  C   LIG    1      -38.127  73.613  25.034  0.00  0.00    +0.027 A 
BRANCH  22  24
ATOM     24  C   LIG    1      -37.937  71.100  24.832  0.00  0.00    +0.109 A 
ATOM     25  C   LIG    1      -37.739  70.512  26.087  0.00  0.00    +0.149 A 
ATOM     26  F   LIG    1      -38.252  71.036  27.208  0.00  0.00    -0.203 F 
ATOM     27  C   LIG    1      -37.034  69.319  26.199  0.00  0.00    +0.042 A 
ATOM     28  C   LIG    1      -36.556  68.707  25.050  0.00  0.00    +0.023 A 
ATOM     29  C   LIG    1      -36.807  69.322  23.835  0.00  0.00    +0.111 A 
ATOM     30  N   LIG    1      -37.480  70.494  23.698  0.00  0.00    -0.252 NA
ENDBRANCH  22  24
ENDBRANCH  14  16
ENDBRANCH   4  12
BRANCH   1  32
ATOM     31  N   LIG    1      -36.101  81.913  27.152  0.00  0.00    -0.243 NA
ATOM     32  C   LIG    1      -37.000  81.241  27.781  0.00  0.00    +0.233 C 
BRANCH  32  33
ATOM     33  O   LIG    1      -37.912  81.756  28.634  0.00  0.00    -0.491 OA
ATOM     34  H   LIG    1      -38.627  82.226  28.164  0.00  0.00    +0.294 HD
ENDBRANCH  32  33
BRANCH  31  35
ATOM     35  C   LIG    1      -36.116  83.381  27.206  0.00  0.00    +0.200 C 
BRANCH  35  38
ATOM     36  C   LIG    1      -36.917  85.978  24.732  0.00  0.00    +0.116 A 
ATOM     37  N   LIG    1      -36.400  85.352  25.803  0.00  0.00    -0.235 NA
ATOM     38  C   LIG    1      -36.743  84.047  26.003  0.00  0.00    +0.065 A 
ATOM     39  C   LIG    1      -37.553  83.339  25.126  0.00  0.00    +0.025 A 
ATOM     40  C   LIG    1      -38.070  84.006  24.023  0.00  0.00    +0.005 A 
ATOM     41  C   LIG    1      -37.756  85.347  23.827  0.00  0.00    +0.043 A 
BRANCH  36  42
ATOM     42  N   LIG    1      -36.597  87.322  24.581  0.00  0.00    -0.343 N 
ATOM     43  H   LIG    1      -37.017  87.845  25.344  0.00  0.00    +0.144 HD
ATOM     44  H   LIG    1      -35.598  87.473  24.523  0.00  0.00    +0.144 HD
ENDBRANCH  36  42
ENDBRANCH  35  38
ENDBRANCH  31  35
ENDBRANCH   1  32
TORSDOF 9
ENDMDL
MODEL 4
REMARK VINA RESULT:      -6.8      3.692      5.340
REMARK  Name = pdb/CHEMBL3898571.pdb
REMARK                            x       y       z     vdW  Elec       q    Type
REMARK                         _______ _______ _______ _____ _____    ______ ____
ROOT
ATOM      1  C   LIG    1      -37.566  69.803  25.406  0.00  0.00    +0.131 C 
ATOM      2  N   LIG    1      -37.189  69.045  26.449  0.00  0.00    -0.141 NA
ATOM      3  N   LIG    1      -36.029  69.586  26.889  0.00  0.00    -0.201 N 
ATOM      4  C   LIG    1      -35.783  70.832  26.292  0.00  0.00    +0.185 C 
ATOM      5  C   LIG    1      -36.689  70.908  25.257  0.00  0.00    +0.056 C 
ENDROOT
BRANCH   3   6
ATOM      6  C   LIG    1      -35.260  68.898  27.869  0.00  0.00    +0.052 A 
ATOM      7  C   LIG    1      -35.484  69.095  29.236  0.00  0.00    +0.025 A 
ATOM      8  C   LIG    1      -34.677  68.451  30.177  0.00  0.00    +0.002 A 
ATOM      9  C   LIG    1      -33.646  67.610  29.761  0.00  0.00    +0.000 A 
ATOM     10  C   LIG    1      -33.420  67.405  28.401  0.00  0.00    +0.002 A 
ATOM     11  C   LIG    1      -34.215  68.056  27.455  0.00  0.00    +0.025 A 
ENDBRANCH   3   6
BRANCH   4  12
ATOM     12  N   LIG    1      -34.869  71.810  26.729  0.00  0.00    -0.282 N 
ATOM     13  H   LIG    1      -33.992  71.876  26.252  0.00  0.00    +0.152 HD
ATOM     14  C   LIG    1      -35.064  72.631  27.901  0.00  0.00    +0.247 C 
ATOM     15  O   LIG    1      -36.088  72.519  28.566  0.00  0.00    -0.270 OA
BRANCH  14  16
ATOM     16  C   LIG    1      -33.994  73.531  28.358  0.00  0.00    +0.056 A 
ATOM     17  C   LIG    1      -32.858  73.083  29.020  0.00  0.00    +0.056 A 
ATOM     18 CL   LIG    1      -32.513  71.416  29.287  0.00  0.00    -0.083 Cl
ATOM     19  C   LIG    1      -31.903  74.004  29.452  0.00  0.00    +0.059 A 
ATOM     20  C   LIG    1      -32.064  75.364  29.184  0.00  0.00    +0.134 A 
ATOM     21  F   LIG    1      -31.149  76.192  29.702  0.00  0.00    -0.205 F 
ATOM     22  C   LIG    1      -33.137  75.855  28.431  0.00  0.00    +0.039 A 
ATOM     23  C   LIG    1      -34.119  74.906  28.049  0.00  0.00    +0.027 A 
BRANCH  22  24
ATOM     24  C   LIG    1      -33.258  77.282  28.044  0.00  0.00    +0.109 A 
ATOM     25  C   LIG    1      -32.507  77.882  27.026  0.00  0.00    +0.149 A 
ATOM     26  F   LIG    1      -31.641  77.187  26.275  0.00  0.00    -0.203 F 
ATOM     27  C   LIG    1      -32.679  79.229  26.729  0.00  0.00    +0.042 A 
ATOM     28  C   LIG    1      -33.622  79.961  27.433  0.00  0.00    +0.023 A 
ATOM     29  C   LIG    1      -34.354  79.306  28.410  0.00  0.00    +0.111 A 
ATOM     30  N   LIG    1      -34.196  77.995  28.730  0.00  0.00    -0.252 NA
ENDBRANCH  22  24
ENDBRANCH  14  16
ENDBRANCH   4  12
BRANCH   1  32
ATOM     31  N   LIG    1      -38.792  69.774  23.359  0.00  0.00    -0.243 NA
ATOM     32  C   LIG    1      -38.769  69.511  24.618  0.00  0.00    +0.233 C 
BRANCH  32  33
ATOM     33  O   LIG    1      -39.796  69.001  25.333  0.00  0.00    -0.491 OA
ATOM     34  H   LIG    1      -40.400  68.472  24.779  0.00  0.00    +0.294 HD
ENDBRANCH  32  33
BRANCH  31  35
ATOM     35  C   LIG    1      -39.947  69.365  22.549  0.00  0.00    +0.200 C 
BRANCH  35  38
ATOM     36  C   LIG    1      -42.472  71.325  20.734  0.00  0.00    +0.116 A 
ATOM     37  N   LIG    1      -41.580  70.368  21.046  0.00  0.00    -0.235 NA
ATOM     38  C   LIG    1      -40.919  70.478  22.233  0.00  0.00    +0.065 A 
ATOM     39  C   LIG    1      -41.165  71.500  23.140  0.00  0.00    +0.025 A 
ATOM     40  C   LIG    1      -42.096  72.473  22.799  0.00  0.00    +0.005 A 
ATOM     41  C   LIG    1      -42.752  72.391  21.574  0.00  0.00    +0.043 A 
BRANCH  36  42
ATOM     42  N   LIG    1      -43.091  71.219  19.495  0.00  0.00    -0.343 N 
ATOM     43  H   LIG    1      -43.935  70.662  19.599  0.00  0.00    +0.144 HD
ATOM     44  H   LIG    1      -43.283  72.125  19.084  0.00  0.00    +0.144 HD
ENDBRANCH  36  42
ENDBRANCH  35  38
ENDBRANCH  31  35
ENDBRANCH   1  32
TORSDOF 9
ENDMDL
MODEL 5
REMARK VINA RESULT:      -6.7      9.702     13.957
REMARK  Name = pdb/CHEMBL3898571.pdb
REMARK                            x       y       z     vdW  Elec       q    Type
REMARK                         _______ _______ _______ _____ _____    ______ ____
ROOT
ATOM      1  C   LIG    1      -27.308  75.848  32.184  0.00  0.00    +0.131 C 
ATOM      2  N   LIG    1      -26.228  75.442  31.496  0.00  0.00    -0.141 NA
ATOM      3  N   LIG    1      -25.288  76.394  31.702  0.00  0.00    -0.201 N 
ATOM      4  C   LIG    1      -25.673  77.286  32.716  0.00  0.00    +0.185 C 
ATOM      5  C   LIG    1      -27.007  77.018  32.929  0.00  0.00    +0.056 C 
ENDROOT
BRANCH   3   6
ATOM      6  C   LIG    1      -24.081  76.365  30.949  0.00  0.00    +0.052 A 
ATOM      7  C   LIG    1      -23.139  75.346  31.127  0.00  0.00    +0.025 A 
ATOM      8  C   LIG    1      -21.936  75.373  30.417  0.00  0.00    +0.002 A 
ATOM      9  C   LIG    1      -21.669  76.412  29.526  0.00  0.00    +0.000 A 
ATOM     10  C   LIG    1      -22.605  77.427  29.339  0.00  0.00    +0.002 A 
ATOM     11  C   LIG    1      -23.803  77.414  30.057  0.00  0.00    +0.025 A 
ENDBRANCH   3   6
BRANCH   4  12
ATOM     12  N   LIG    1      -24.838  78.184  33.408  0.00  0.00    -0.282 N 
ATOM     13  H   LIG    1      -24.938  79.160  33.214  0.00  0.00    +0.152 HD
ATOM     14  C   LIG    1      -23.762  77.776  34.282  0.00  0.00    +0.247 C 
ATOM     15  O   LIG    1      -23.548  76.585  34.478  0.00  0.00    -0.270 OA
BRANCH  14  16
ATOM     16  C   LIG    1      -22.856  78.782  34.856  0.00  0.00    +0.056 A 
ATOM     17  C   LIG    1      -21.598  79.056  34.335  0.00  0.00    +0.056 A 
ATOM     18 CL   LIG    1      -20.991  78.331  32.895  0.00  0.00    -0.083 Cl
ATOM     19  C   LIG    1      -20.784  80.003  34.960  0.00  0.00    +0.059 A 
ATOM     20  C   LIG    1      -21.247  80.704  36.073  0.00  0.00    +0.134 A 
ATOM     21  F   LIG    1      -20.378  81.534  36.665  0.00  0.00    -0.205 F 
ATOM     22  C   LIG    1      -22.543  80.541  36.574  0.00  0.00    +0.039 A 
ATOM     23  C   LIG    1      -23.330  79.537  35.955  0.00  0.00    +0.027 A 
BRANCH  22  24
ATOM     24  C   LIG    1      -23.082  81.363  37.686  0.00  0.00    +0.109 A 
ATOM     25  C   LIG    1      -23.741  82.585  37.506  0.00  0.00    +0.149 A 
ATOM     26  F   LIG    1      -23.983  83.092  36.290  0.00  0.00    -0.203 F 
ATOM     27  C   LIG    1      -24.213  83.295  38.605  0.00  0.00    +0.042 A 
ATOM     28  C   LIG    1      -24.049  82.763  39.874  0.00  0.00    +0.023 A 
ATOM     29  C   LIG    1      -23.415  81.536  39.986  0.00  0.00    +0.111 A 
ATOM     30  N   LIG    1      -22.931  80.829  38.932  0.00  0.00    -0.252 NA
ENDBRANCH  22  24
ENDBRANCH  14  16
ENDBRANCH   4  12
BRANCH   1  32
ATOM     31  N   LIG    1      -29.519  75.446  31.383  0.00  0.00    -0.243 NA
ATOM     32  C   LIG    1      -28.569  75.099  32.178  0.00  0.00    +0.233 C 
BRANCH  32  33
ATOM     33  O   LIG    1      -28.625  74.091  33.076  0.00  0.00    -0.491 OA
ATOM     34  H   LIG    1      -29.406  73.522  32.938  0.00  0.00    +0.294 HD
ENDBRANCH  32  33
BRANCH  31  35
ATOM     35  C   LIG    1      -30.730  74.620  31.289  0.00  0.00    +0.200 C 
BRANCH  35  38
ATOM     36  C   LIG    1      -32.341  76.666  28.695  0.00  0.00    +0.116 A 
ATOM     37  N   LIG    1      -31.538  76.284  29.704  0.00  0.00    -0.235 NA
ATOM     38  C   LIG    1      -31.671  75.010  30.173  0.00  0.00    +0.065 A 
ATOM     39  C   LIG    1      -32.557  74.094  29.623  0.00  0.00    +0.025 A 
ATOM     40  C   LIG    1      -33.371  74.511  28.577  0.00  0.00    +0.005 A 
ATOM     41  C   LIG    1      -33.269  75.819  28.112  0.00  0.00    +0.043 A 
BRANCH  36  42
ATOM     42  N   LIG    1      -32.223  77.985  28.272  0.00  0.00    -0.343 N 
ATOM     43  H   LIG    1      -33.154  78.366  28.128  0.00  0.00    +0.144 HD
ATOM     44  H   LIG    1      -31.679  78.546  28.915  0.00  0.00    +0.144 HD
ENDBRANCH  36  42
ENDBRANCH  35  38
ENDBRANCH  31  35
ENDBRANCH   1  32
TORSDOF 9
ENDMDL
MODEL 6
REMARK VINA RESULT:      -6.7     16.425     18.825
REMARK  Name = pdb/CHEMBL3898571.pdb
REMARK                            x       y       z     vdW  Elec       q    Type
REMARK                         _______ _______ _______ _____ _____    ______ ____
ROOT
ATOM      1  C   LIG    1      -26.256  77.775  13.820  0.00  0.00    +0.131 C 
ATOM      2  N   LIG    1      -25.237  77.809  14.694  0.00  0.00    -0.141 NA
ATOM      3  N   LIG    1      -24.590  78.973  14.452  0.00  0.00    -0.201 N 
ATOM      4  C   LIG    1      -25.329  79.804  13.596  0.00  0.00    +0.185 C 
ATOM      5  C   LIG    1      -26.321  78.992  13.092  0.00  0.00    +0.056 C 
ENDROOT
BRANCH   3   6
ATOM      6  C   LIG    1      -23.338  79.225  15.080  0.00  0.00    +0.052 A 
ATOM      7  C   LIG    1      -23.201  80.224  16.050  0.00  0.00    +0.025 A 
ATOM      8  C   LIG    1      -21.949  80.490  16.609  0.00  0.00    +0.002 A 
ATOM      9  C   LIG    1      -20.830  79.762  16.206  0.00  0.00    +0.000 A 
ATOM     10  C   LIG    1      -20.960  78.762  15.244  0.00  0.00    +0.002 A 
ATOM     11  C   LIG    1      -22.206  78.501  14.672  0.00  0.00    +0.025 A 
ENDBRANCH   3   6
BRANCH   4  12
ATOM     12  N   LIG    1      -25.134  81.182  13.385  0.00  0.00    -0.282 N 
ATOM     13  H   LIG    1      -25.672  81.821  13.937  0.00  0.00    +0.152 HD
ATOM     14  C   LIG    1      -24.307  81.729  12.334  0.00  0.00    +0.247 C 
ATOM     15  O   LIG    1      -23.699  80.979  11.579  0.00  0.00    -0.270 OA
BRANCH  14  16
ATOM     16  C   LIG    1      -24.270  83.181  12.104  0.00  0.00    +0.056 A 
ATOM     17  C   LIG    1      -25.213  83.851  11.335  0.00  0.00    +0.056 A 
ATOM     18 CL   LIG    1      -26.595  83.083  10.650  0.00  0.00    -0.083 Cl
ATOM     19  C   LIG    1      -25.089  85.227  11.136  0.00  0.00    +0.059 A 
ATOM     20  C   LIG    1      -24.052  85.935  11.742  0.00  0.00    +0.134 A 
ATOM     21  F   LIG    1      -23.952  87.236  11.436  0.00  0.00    -0.205 F 
ATOM     22  C   LIG    1      -23.137  85.327  12.609  0.00  0.00    +0.039 A 
ATOM     23  C   LIG    1      -23.253  83.921  12.752  0.00  0.00    +0.027 A 
BRANCH  22  24
ATOM     24  C   LIG    1      -22.100  86.091  13.346  0.00  0.00    +0.109 A 
ATOM     25  C   LIG    1      -20.806  86.317  12.863  0.00  0.00    +0.149 A 
ATOM     26  F   LIG    1      -20.413  85.895  11.654  0.00  0.00    -0.203 F 
ATOM     27  C   LIG    1      -19.892  87.042  13.620  0.00  0.00    +0.042 A 
ATOM     28  C   LIG    1      -20.289  87.560  14.843  0.00  0.00    +0.023 A 
ATOM     29  C   LIG    1      -21.591  87.328  15.255  0.00  0.00    +0.111 A 
ATOM     30  N   LIG    1      -22.500  86.611  14.542  0.00  0.00    -0.252 NA
ENDBRANCH  22  24
ENDBRANCH  14  16
ENDBRANCH   4  12
BRANCH   1  32
ATOM     31  N   LIG    1      -27.228  75.932  12.659  0.00  0.00    -0.243 NA
ATOM     32  C   LIG    1      -27.178  76.638  13.732  0.00  0.00    +0.233 C 
BRANCH  32  33
ATOM     33  O   LIG    1      -27.946  76.456  14.829  0.00  0.00    -0.491 OA
ATOM     34  H   LIG    1      -28.713  77.059  14.843  0.00  0.00    +0.294 HD
ENDBRANCH  32  33
BRANCH  31  35
ATOM     35  C   LIG    1      -28.058  74.720  12.620  0.00  0.00    +0.200 C 
BRANCH  35  38
ATOM     36  C   LIG    1      -30.715  76.209  10.562  0.00  0.00    +0.116 A 
ATOM     37  N   LIG    1      -29.540  76.019  11.188  0.00  0.00    -0.235 NA
ATOM     38  C   LIG    1      -29.404  74.902  11.958  0.00  0.00    +0.065 A 
ATOM     39  C   LIG    1      -30.402  73.943  12.077  0.00  0.00    +0.025 A 
ATOM     40  C   LIG    1      -31.604  74.158  11.415  0.00  0.00    +0.005 A 
ATOM     41  C   LIG    1      -31.767  75.312  10.655  0.00  0.00    +0.043 A 
BRANCH  36  42
ATOM     42  N   LIG    1      -30.848  77.382   9.829  0.00  0.00    -0.343 N 
ATOM     43  H   LIG    1      -31.833  77.625   9.777  0.00  0.00    +0.144 HD
ATOM     44  H   LIG    1      -30.291  78.137  10.210  0.00  0.00    +0.144 HD
ENDBRANCH  36  42
ENDBRANCH  35  38
ENDBRANCH  31  35
ENDBRANCH   1  32
TORSDOF 9
ENDMDL
MODEL 7
REMARK VINA RESULT:      -6.6      2.031      2.932
REMARK  Name = pdb/CHEMBL3898571.pdb
REMARK                            x       y       z     vdW  Elec       q    Type
REMARK                         _______ _______ _______ _____ _____    ______ ____
ROOT
ATOM      1  C   LIG    1      -36.710  68.158  22.912  0.00  0.00    +0.131 C 
ATOM      2  N   LIG    1      -37.314  69.343  22.726  0.00  0.00    -0.141 NA
ATOM      3  N   LIG    1      -37.320  69.941  23.941  0.00  0.00    -0.201 N 
ATOM      4  C   LIG    1      -36.506  69.256  24.855  0.00  0.00    +0.185 C 
ATOM      5  C   LIG    1      -36.225  68.055  24.242  0.00  0.00    +0.056 C 
ENDROOT
BRANCH   3   6
ATOM      6  C   LIG    1      -38.067  71.137  24.131  0.00  0.00    +0.052 A 
ATOM      7  C   LIG    1      -37.483  72.274  24.700  0.00  0.00    +0.025 A 
ATOM      8  C   LIG    1      -38.254  73.417  24.929  0.00  0.00    +0.002 A 
ATOM      9  C   LIG    1      -39.607  73.431  24.592  0.00  0.00    +0.000 A 
ATOM     10  C   LIG    1      -40.194  72.304  24.020  0.00  0.00    +0.002 A 
ATOM     11  C   LIG    1      -39.432  71.155  23.801  0.00  0.00    +0.025 A 
ENDBRANCH   3   6
BRANCH   4  12
ATOM     12  N   LIG    1      -36.023  69.745  26.084  0.00  0.00    -0.282 N 
ATOM     13  H   LIG    1      -36.647  69.744  26.867  0.00  0.00    +0.152 HD
ATOM     14  C   LIG    1      -34.730  70.367  26.253  0.00  0.00    +0.247 C 
ATOM     15  O   LIG    1      -33.968  70.468  25.299  0.00  0.00    -0.270 OA
BRANCH  14  16
ATOM     16  C   LIG    1      -34.365  70.971  27.544  0.00  0.00    +0.056 A 
ATOM     17  C   LIG    1      -34.083  70.221  28.679  0.00  0.00    +0.056 A 
ATOM     18 CL   LIG    1      -34.020  68.499  28.685  0.00  0.00    -0.083 Cl
ATOM     19  C   LIG    1      -33.778  70.870  29.876  0.00  0.00    +0.059 A 
ATOM     20  C   LIG    1      -33.711  72.263  29.925  0.00  0.00    +0.134 A 
ATOM     21  F   LIG    1      -33.495  72.813  31.126  0.00  0.00    -0.205 F 
ATOM     22  C   LIG    1      -33.884  73.060  28.787  0.00  0.00    +0.039 A 
ATOM     23  C   LIG    1      -34.244  72.379  27.597  0.00  0.00    +0.027 A 
BRANCH  22  24
ATOM     24  C   LIG    1      -33.704  74.533  28.805  0.00  0.00    +0.109 A 
ATOM     25  C   LIG    1      -32.487  75.168  29.083  0.00  0.00    +0.149 A 
ATOM     26  F   LIG    1      -31.360  74.479  29.308  0.00  0.00    -0.203 F 
ATOM     27  C   LIG    1      -32.405  76.556  29.084  0.00  0.00    +0.042 A 
ATOM     28  C   LIG    1      -33.534  77.299  28.778  0.00  0.00    +0.023 A 
ATOM     29  C   LIG    1      -34.702  76.614  28.484  0.00  0.00    +0.111 A 
ATOM     30  N   LIG    1      -34.814  75.260  28.491  0.00  0.00    -0.252 NA
ENDBRANCH  22  24
ENDBRANCH  14  16
ENDBRANCH   4  12
BRANCH   1  32
ATOM     31  N   LIG    1      -36.599  67.567  20.603  0.00  0.00    -0.243 NA
ATOM     32  C   LIG    1      -36.546  67.182  21.829  0.00  0.00    +0.233 C 
BRANCH  32  33
ATOM     33  O   LIG    1      -36.381  65.907  22.246  0.00  0.00    -0.491 OA
ATOM     34  H   LIG    1      -35.596  65.490  21.844  0.00  0.00    +0.294 HD
ENDBRANCH  32  33
BRANCH  31  35
ATOM     35  C   LIG    1      -36.308  66.612  19.525  0.00  0.00    +0.200 C 
BRANCH  35  38
ATOM     36  C   LIG    1      -32.669  66.757  19.028  0.00  0.00    +0.116 A 
ATOM     37  N   LIG    1      -33.874  66.601  19.605  0.00  0.00    -0.235 NA
ATOM     38  C   LIG    1      -34.979  66.825  18.838  0.00  0.00    +0.065 A 
ATOM     39  C   LIG    1      -34.907  67.154  17.491  0.00  0.00    +0.025 A 
ATOM     40  C   LIG    1      -33.652  67.302  16.916  0.00  0.00    +0.005 A 
ATOM     41  C   LIG    1      -32.516  67.111  17.698  0.00  0.00    +0.043 A 
BRANCH  36  42
ATOM     42  N   LIG    1      -31.559  66.576  19.845  0.00  0.00    -0.343 N 
ATOM     43  H   LIG    1      -30.793  66.221  19.280  0.00  0.00    +0.144 HD
ATOM     44  H   LIG    1      -31.306  67.423  20.338  0.00  0.00    +0.144 HD
ENDBRANCH  36  42
ENDBRANCH  35  38
ENDBRANCH  31  35
ENDBRANCH   1  32
TORSDOF 9
ENDMDL
MODEL 8
REMARK VINA RESULT:      -6.6     13.912     17.695
REMARK  Name = pdb/CHEMBL3898571.pdb
REMARK                            x       y       z     vdW  Elec       q    Type
REMARK                         _______ _______ _______ _____ _____    ______ ____
ROOT
ATOM      1  C   LIG    1      -32.365  86.069  30.471  0.00  0.00    +0.131 C 
ATOM      2  N   LIG    1      -32.948  87.279  30.494  0.00  0.00    -0.141 NA
ATOM      3  N   LIG    1      -33.501  87.438  29.268  0.00  0.00    -0.201 N 
ATOM      4  C   LIG    1      -33.489  86.239  28.539  0.00  0.00    +0.185 C 
ATOM      5  C   LIG    1      -32.653  85.406  29.249  0.00  0.00    +0.056 C 
ENDROOT
BRANCH   3   6
ATOM      6  C   LIG    1      -34.031  88.705  28.896  0.00  0.00    +0.052 A 
ATOM      7  C   LIG    1      -33.195  89.752  28.494  0.00  0.00    +0.025 A 
ATOM      8  C   LIG    1      -33.737  91.003  28.188  0.00  0.00    +0.002 A 
ATOM      9  C   LIG    1      -35.111  91.215  28.282  0.00  0.00    +0.000 A 
ATOM     10  C   LIG    1      -35.951  90.176  28.677  0.00  0.00    +0.002 A 
ATOM     11  C   LIG    1      -35.414  88.927  28.997  0.00  0.00    +0.025 A 
ENDBRANCH   3   6
BRANCH   4  12
ATOM     12  N   LIG    1      -34.245  85.946  27.388  0.00  0.00    -0.282 N 
ATOM     13  H   LIG    1      -33.821  86.107  26.496  0.00  0.00    +0.152 HD
ATOM     14  C   LIG    1      -35.636  85.555  27.413  0.00  0.00    +0.247 C 
ATOM     15  O   LIG    1      -36.220  85.432  28.484  0.00  0.00    -0.270 OA
BRANCH  14  16
ATOM     16  C   LIG    1      -36.382  85.401  26.155  0.00  0.00    +0.056 A 
ATOM     17  C   LIG    1      -36.833  84.173  25.686  0.00  0.00    +0.056 A 
ATOM     18 CL   LIG    1      -36.669  82.704  26.570  0.00  0.00    -0.083 Cl
ATOM     19  C   LIG    1      -37.504  84.106  24.464  0.00  0.00    +0.059 A 
ATOM     20  C   LIG    1      -37.762  85.269  23.738  0.00  0.00    +0.134 A 
ATOM     21  F   LIG    1      -38.337  85.114  22.538  0.00  0.00    -0.205 F 
ATOM     22  C   LIG    1      -37.422  86.540  24.216  0.00  0.00    +0.039 A 
ATOM     23  C   LIG    1      -36.695  86.576  25.432  0.00  0.00    +0.027 A 
BRANCH  22  24
ATOM     24  C   LIG    1      -37.793  87.789  23.505  0.00  0.00    +0.109 A 
ATOM     25  C   LIG    1      -39.066  88.368  23.555  0.00  0.00    +0.149 A 
ATOM     26  F   LIG    1      -40.053  87.856  24.303  0.00  0.00    -0.203 F 
ATOM     27  C   LIG    1      -39.332  89.540  22.855  0.00  0.00    +0.042 A 
ATOM     28  C   LIG    1      -38.312  90.140  22.133  0.00  0.00    +0.023 A 
ATOM     29  C   LIG    1      -37.066  89.536  22.144  0.00  0.00    +0.111 A 
ATOM     30  N   LIG    1      -36.783  88.384  22.807  0.00  0.00    -0.252 NA
ENDBRANCH  22  24
ENDBRANCH  14  16
ENDBRANCH   4  12
BRANCH   1  32
ATOM     31  N   LIG    1      -31.741  86.074  32.774  0.00  0.00    -0.243 NA
ATOM     32  C   LIG    1      -31.611  85.539  31.612  0.00  0.00    +0.233 C 
BRANCH  32  33
ATOM     33  O   LIG    1      -30.787  84.512  31.308  0.00  0.00    -0.491 OA
ATOM     34  H   LIG    1      -30.299  84.191  32.090  0.00  0.00    +0.294 HD
ENDBRANCH  32  33
BRANCH  31  35
ATOM     35  C   LIG    1      -31.084  85.464  33.937  0.00  0.00    +0.200 C 
BRANCH  35  38
ATOM     36  C   LIG    1      -27.705  85.788  35.347  0.00  0.00    +0.116 A 
ATOM     37  N   LIG    1      -28.908  85.286  35.017  0.00  0.00    -0.235 NA
ATOM     38  C   LIG    1      -29.755  86.082  34.304  0.00  0.00    +0.065 A 
ATOM     39  C   LIG    1      -29.407  87.354  33.871  0.00  0.00    +0.025 A 
ATOM     40  C   LIG    1      -28.156  87.848  34.218  0.00  0.00    +0.005 A 
ATOM     41  C   LIG    1      -27.296  87.058  34.976  0.00  0.00    +0.043 A 
BRANCH  36  42
ATOM     42  N   LIG    1      -26.883  84.977  36.120  0.00  0.00    -0.343 N 
ATOM     43  H   LIG    1      -27.408  84.656  36.928  0.00  0.00    +0.144 HD
ATOM     44  H   LIG    1      -26.496  84.207  35.589  0.00  0.00    +0.144 HD
ENDBRANCH  36  42
ENDBRANCH  35  38
ENDBRANCH  31  35
ENDBRANCH   1  32
TORSDOF 9
ENDMDL
MODEL 9
REMARK VINA RESULT:      -6.6      2.856      3.848
REMARK  Name = pdb/CHEMBL3898571.pdb
REMARK                            x       y       z     vdW  Elec       q    Type
REMARK                         _______ _______ _______ _____ _____    ______ ____
ROOT
ATOM      1  C   LIG    1      -37.733  69.950  24.018  0.00  0.00    +0.131 C 
ATOM      2  N   LIG    1      -38.840  70.472  23.465  0.00  0.00    -0.141 NA
ATOM      3  N   LIG    1      -38.982  71.697  24.023  0.00  0.00    -0.201 N 
ATOM      4  C   LIG    1      -37.838  72.066  24.748  0.00  0.00    +0.185 C 
ATOM      5  C   LIG    1      -37.101  70.907  24.854  0.00  0.00    +0.056 C 
ENDROOT
BRANCH   3   6
ATOM      6  C   LIG    1      -40.174  72.439  23.797  0.00  0.00    +0.052 A 
ATOM      7  C   LIG    1      -41.367  71.803  23.438  0.00  0.00    +0.025 A 
ATOM      8  C   LIG    1      -42.510  72.561  23.165  0.00  0.00    +0.002 A 
ATOM      9  C   LIG    1      -42.467  73.952  23.249  0.00  0.00    +0.000 A 
ATOM     10  C   LIG    1      -41.283  74.592  23.611  0.00  0.00    +0.002 A 
ATOM     11  C   LIG    1      -40.135  73.841  23.872  0.00  0.00    +0.025 A 
ENDBRANCH   3   6
BRANCH   4  12
ATOM     12  N   LIG    1      -37.498  73.362  25.182  0.00  0.00    -0.282 N 
ATOM     13  H   LIG    1      -36.949  73.932  24.570  0.00  0.00    +0.152 HD
ATOM     14  C   LIG    1      -37.781  73.870  26.505  0.00  0.00    +0.247 C 
ATOM     15  O   LIG    1      -38.376  73.170  27.317  0.00  0.00    -0.270 OA
BRANCH  14  16
ATOM     16  C   LIG    1      -37.269  75.186  26.915  0.00  0.00    +0.056 A 
ATOM     17  C   LIG    1      -38.040  76.342  26.888  0.00  0.00    +0.056 A 
ATOM     18 CL   LIG    1      -39.713  76.354  26.478  0.00  0.00    -0.083 Cl
ATOM     19  C   LIG    1      -37.470  77.560  27.260  0.00  0.00    +0.059 A 
ATOM     20  C   LIG    1      -36.147  77.613  27.700  0.00  0.00    +0.134 A 
ATOM     21  F   LIG    1      -35.647  78.828  27.960  0.00  0.00    -0.205 F 
ATOM     22  C   LIG    1      -35.361  76.464  27.845  0.00  0.00    +0.039 A 
ATOM     23  C   LIG    1      -35.946  75.248  27.411  0.00  0.00    +0.027 A 
BRANCH  22  24
ATOM     24  C   LIG    1      -33.992  76.497  28.419  0.00  0.00    +0.109 A 
ATOM     25  C   LIG    1      -32.869  76.973  27.732  0.00  0.00    +0.149 A 
ATOM     26  F   LIG    1      -32.954  77.492  26.500  0.00  0.00    -0.203 F 
ATOM     27  C   LIG    1      -31.619  76.965  28.342  0.00  0.00    +0.042 A 
ATOM     28  C   LIG    1      -31.507  76.507  29.646  0.00  0.00    +0.023 A 
ATOM     29  C   LIG    1      -32.659  76.075  30.283  0.00  0.00    +0.111 A 
ATOM     30  N   LIG    1      -33.889  76.058  29.706  0.00  0.00    -0.252 NA
ENDBRANCH  22  24
ENDBRANCH  14  16
ENDBRANCH   4  12
BRANCH   1  32
ATOM     31  N   LIG    1      -36.017  68.395  23.444  0.00  0.00    -0.243 NA
ATOM     32  C   LIG    1      -37.260  68.597  23.703  0.00  0.00    +0.233 C 
BRANCH  32  33
ATOM     33  O   LIG    1      -38.231  67.657  23.681  0.00  0.00    -0.491 OA
ATOM     34  H   LIG    1      -39.119  68.046  23.798  0.00  0.00    +0.294 HD
ENDBRANCH  32  33
BRANCH  31  35
ATOM     35  C   LIG    1      -35.525  67.024  23.254  0.00  0.00    +0.200 C 
BRANCH  35  38
ATOM     36  C   LIG    1      -33.334  66.514  20.347  0.00  0.00    +0.116 A 
ATOM     37  N   LIG    1      -33.763  66.815  21.586  0.00  0.00    -0.235 NA
ATOM     38  C   LIG    1      -35.097  66.699  21.842  0.00  0.00    +0.065 A 
ATOM     39  C   LIG    1      -36.008  66.242  20.899  0.00  0.00    +0.025 A 
ATOM     40  C   LIG    1      -35.540  65.931  19.628  0.00  0.00    +0.005 A 
ATOM     41  C   LIG    1      -34.185  66.078  19.345  0.00  0.00    +0.043 A 
BRANCH  36  42
ATOM     42  N   LIG    1      -31.979  66.693  20.097  0.00  0.00    -0.343 N 
ATOM     43  H   LIG    1      -31.451  66.060  20.692  0.00  0.00    +0.144 HD
ATOM     44  H   LIG    1      -31.751  66.570  19.118  0.00  0.00    +0.144 HD
ENDBRANCH  36  42
ENDBRANCH  35  38
ENDBRANCH  31  35
ENDBRANCH   1  32
TORSDOF 9
ENDMDL
