MODEL 1
REMARK VINA RESULT:      -6.2      0.000      0.000
REMARK  Name = pdb/CHEMBL3673436.pdb
REMARK                            x       y       z     vdW  Elec       q    Type
REMARK                         _______ _______ _______ _____ _____    ______ ____
ROOT
ATOM      1  C   LIG    1      -39.169  68.906  24.555  0.00  0.00    +0.160 C 
ENDROOT
BRANCH   1   2
ATOM      2  N   LIG    1      -39.757  70.107  23.948  0.00  0.00    -0.308 N 
ATOM      3  C   LIG    1      -39.321  71.387  24.209  0.00  0.00    +0.070 A 
ATOM      4  C   LIG    1      -38.171  71.873  24.802  0.00  0.00    +0.028 A 
ATOM      5  C   LIG    1      -38.043  73.246  24.946  0.00  0.00    +0.011 A 
ATOM      6  C   LIG    1      -39.060  74.106  24.529  0.00  0.00    -0.013 A 
ATOM      7  C   LIG    1      -40.222  73.598  23.922  0.00  0.00    +0.038 A 
ATOM      8  C   LIG    1      -40.335  72.200  23.739  0.00  0.00    +0.091 A 
ATOM      9  N   LIG    1      -41.296  71.488  23.112  0.00  0.00    -0.215 NA
ATOM     10  C   LIG    1      -40.891  70.206  23.172  0.00  0.00    +0.194 A 
BRANCH   6  11
ATOM     11  C   LIG    1      -38.890  75.529  24.713  0.00  0.00    +0.020 A 
ATOM     12  C   LIG    1      -39.778  76.483  24.265  0.00  0.00    +0.116 A 
ATOM     13  N   LIG    1      -39.252  77.686  24.623  0.00  0.00    -0.274 N 
ATOM     14  C   LIG    1      -39.827  78.977  24.344  0.00  0.00    +0.172 C 
ATOM     15  N   LIG    1      -38.078  77.589  25.270  0.00  0.00    -0.179 NA
ATOM     16  C   LIG    1      -37.862  76.272  25.329  0.00  0.00    +0.142 A 
ENDBRANCH   6  11
BRANCH  10  17
ATOM     17  N   LIG    1      -41.512  69.249  22.532  0.00  0.00    -0.329 N 
ATOM     18  H   LIG    1      -42.310  68.808  22.979  0.00  0.00    +0.145 HD
ATOM     19  H   LIG    1      -41.180  68.776  21.694  0.00  0.00    +0.145 HD
ENDBRANCH  10  17
ENDBRANCH   1   2
BRANCH   1  23
ATOM     20  C   LIG    1      -35.303  67.516  22.929  0.00  0.00    +0.162 A 
ATOM     21  C   LIG    1      -35.464  68.235  24.119  0.00  0.00    +0.162 A 
ATOM     22  C   LIG    1      -36.737  68.597  24.595  0.00  0.00    +0.054 A 
ATOM     23  C   LIG    1      -37.897  68.428  23.864  0.00  0.00    -0.024 A 
ATOM     24  C   LIG    1      -37.714  67.951  22.561  0.00  0.00    +0.009 A 
ATOM     25  C   LIG    1      -36.447  67.460  22.112  0.00  0.00    +0.050 A 
BRANCH  21  26
ATOM     26  O   LIG    1      -34.359  68.817  24.679  0.00  0.00    -0.491 OA
ATOM     27  C   LIG    1      -34.602  69.681  25.777  0.00  0.00    +0.277 C 
ENDBRANCH  21  26
BRANCH  20  28
ATOM     28  O   LIG    1      -34.088  67.002  22.456  0.00  0.00    -0.484 OA
BRANCH  28  29
ATOM     29  C   LIG    1      -34.192  66.103  21.303  0.00  0.00    +0.264 C 
BRANCH  29  33
ATOM     30  C   LIG    1      -32.582  67.840  17.571  0.00  0.00    +0.120 A 
ATOM     31  C   LIG    1      -31.773  67.469  18.633  0.00  0.00    +0.046 A 
ATOM     32  C   LIG    1      -32.309  66.797  19.747  0.00  0.00    +0.010 A 
ATOM     33  C   LIG    1      -33.690  66.528  19.889  0.00  0.00    -0.010 A 
ATOM     34  C   LIG    1      -34.464  66.742  18.743  0.00  0.00    +0.010 A 
ATOM     35  C   LIG    1      -33.915  67.400  17.599  0.00  0.00    +0.046 A 
BRANCH  30  37
ATOM     36  C   LIG    1      -31.926  68.026  15.271  0.00  0.00    +0.277 C 
ATOM     37  O   LIG    1      -32.173  68.652  16.539  0.00  0.00    -0.495 OA
ENDBRANCH  30  37
ENDBRANCH  29  33
ENDBRANCH  28  29
ENDBRANCH  20  28
ENDBRANCH   1  23
TORSDOF 9
ENDMDL
MODEL 2
REMARK VINA RESULT:      -6.2     10.418     13.806
REMARK  Name = pdb/CHEMBL3673436.pdb
REMARK                            x       y       z     vdW  Elec       q    Type
REMARK                         _______ _______ _______ _____ _____    ______ ____
ROOT
ATOM      1  C   LIG    1      -28.550  74.270  32.770  0.00  0.00    +0.160 C 
ENDROOT
BRANCH   1   2
ATOM      2  N   LIG    1      -27.821  75.367  32.118  0.00  0.00    -0.308 N 
ATOM      3  C   LIG    1      -26.507  75.279  31.714  0.00  0.00    +0.070 A 
ATOM      4  C   LIG    1      -25.661  74.200  31.541  0.00  0.00    +0.028 A 
ATOM      5  C   LIG    1      -24.357  74.454  31.144  0.00  0.00    +0.011 A 
ATOM      6  C   LIG    1      -23.910  75.762  30.953  0.00  0.00    -0.013 A 
ATOM      7  C   LIG    1      -24.784  76.849  31.127  0.00  0.00    +0.038 A 
ATOM      8  C   LIG    1      -26.126  76.588  31.493  0.00  0.00    +0.091 A 
ATOM      9  N   LIG    1      -27.163  77.441  31.631  0.00  0.00    -0.215 NA
ATOM     10  C   LIG    1      -28.225  76.672  31.935  0.00  0.00    +0.194 A 
BRANCH   6  11
ATOM     11  C   LIG    1      -22.538  75.980  30.554  0.00  0.00    +0.020 A 
ATOM     12  C   LIG    1      -21.443  75.501  31.241  0.00  0.00    +0.116 A 
ATOM     13  N   LIG    1      -20.350  75.932  30.555  0.00  0.00    -0.274 N 
ATOM     14  C   LIG    1      -18.976  75.689  30.914  0.00  0.00    +0.172 C 
ATOM     15  N   LIG    1      -20.649  76.665  29.468  0.00  0.00    -0.179 NA
ATOM     16  C   LIG    1      -21.985  76.687  29.466  0.00  0.00    +0.142 A 
ENDBRANCH   6  11
BRANCH  10  17
ATOM     17  N   LIG    1      -29.439  77.153  31.994  0.00  0.00    -0.329 N 
ATOM     18  H   LIG    1      -29.669  77.955  31.415  0.00  0.00    +0.145 HD
ATOM     19  H   LIG    1      -30.144  76.914  32.688  0.00  0.00    +0.145 HD
ENDBRANCH  10  17
ENDBRANCH   1   2
BRANCH   1  23
ATOM     20  C   LIG    1      -30.490  71.320  30.115  0.00  0.00    +0.162 A 
ATOM     21  C   LIG    1      -29.232  71.162  30.711  0.00  0.00    +0.162 A 
ATOM     22  C   LIG    1      -28.706  72.129  31.586  0.00  0.00    +0.054 A 
ATOM     23  C   LIG    1      -29.292  73.362  31.796  0.00  0.00    -0.024 A 
ATOM     24  C   LIG    1      -30.412  73.631  31.000  0.00  0.00    +0.009 A 
ATOM     25  C   LIG    1      -31.029  72.615  30.204  0.00  0.00    +0.050 A 
BRANCH  21  26
ATOM     26  O   LIG    1      -28.403  70.188  30.226  0.00  0.00    -0.491 OA
ATOM     27  C   LIG    1      -28.252  69.038  31.043  0.00  0.00    +0.277 C 
ENDBRANCH  21  26
BRANCH  20  28
ATOM     28  O   LIG    1      -31.142  70.349  29.342  0.00  0.00    -0.484 OA
BRANCH  28  29
ATOM     29  C   LIG    1      -32.606  70.372  29.408  0.00  0.00    +0.264 C 
BRANCH  29  33
ATOM     30  C   LIG    1      -34.569  69.197  25.626  0.00  0.00    +0.120 A 
ATOM     31  C   LIG    1      -34.075  68.272  26.531  0.00  0.00    +0.046 A 
ATOM     32  C   LIG    1      -33.578  68.681  27.783  0.00  0.00    +0.010 A 
ATOM     33  C   LIG    1      -33.484  70.040  28.163  0.00  0.00    -0.010 A 
ATOM     34  C   LIG    1      -34.146  70.945  27.326  0.00  0.00    +0.010 A 
ATOM     35  C   LIG    1      -34.676  70.526  26.066  0.00  0.00    +0.046 A 
BRANCH  30  37
ATOM     36  C   LIG    1      -34.922  67.514  23.954  0.00  0.00    +0.277 C 
ATOM     37  O   LIG    1      -34.899  68.901  24.325  0.00  0.00    -0.495 OA
ENDBRANCH  30  37
ENDBRANCH  29  33
ENDBRANCH  28  29
ENDBRANCH  20  28
ENDBRANCH   1  23
TORSDOF 9
ENDMDL
MODEL 3
REMARK VINA RESULT:      -6.0      1.550      2.029
REMARK  Name = pdb/CHEMBL3673436.pdb
REMARK                            x       y       z     vdW  Elec       q    Type
REMARK                         _______ _______ _______ _____ _____    ______ ____
ROOT
ATOM      1  C   LIG    1      -40.935  70.389  23.951  0.00  0.00    +0.160 C 
ENDROOT
BRANCH   1   2
ATOM      2  N   LIG    1      -41.355  71.662  23.349  0.00  0.00    -0.308 N 
ATOM      3  C   LIG    1      -40.799  72.880  23.672  0.00  0.00    +0.070 A 
ATOM      4  C   LIG    1      -39.638  73.222  24.340  0.00  0.00    +0.028 A 
ATOM      5  C   LIG    1      -39.371  74.569  24.532  0.00  0.00    +0.011 A 
ATOM      6  C   LIG    1      -40.264  75.545  24.087  0.00  0.00    -0.013 A 
ATOM      7  C   LIG    1      -41.437  75.183  23.404  0.00  0.00    +0.038 A 
ATOM      8  C   LIG    1      -41.691  73.810  23.173  0.00  0.00    +0.091 A 
ATOM      9  N   LIG    1      -42.686  73.223  22.474  0.00  0.00    -0.215 NA
ATOM     10  C   LIG    1      -42.427  71.903  22.517  0.00  0.00    +0.194 A 
BRANCH   6  11
ATOM     11  C   LIG    1      -39.952  76.937  24.323  0.00  0.00    +0.020 A 
ATOM     12  C   LIG    1      -40.016  77.922  23.362  0.00  0.00    +0.116 A 
ATOM     13  N   LIG    1      -39.636  79.075  23.978  0.00  0.00    -0.274 N 
ATOM     14  C   LIG    1      -39.530  80.370  23.357  0.00  0.00    +0.172 C 
ATOM     15  N   LIG    1      -39.322  78.914  25.275  0.00  0.00    -0.179 NA
ATOM     16  C   LIG    1      -39.521  77.610  25.485  0.00  0.00    +0.142 A 
ENDBRANCH   6  11
BRANCH  10  17
ATOM     17  N   LIG    1      -43.110  71.036  21.816  0.00  0.00    -0.329 N 
ATOM     18  H   LIG    1      -44.029  71.306  21.479  0.00  0.00    +0.145 HD
ATOM     19  H   LIG    1      -42.890  70.048  21.708  0.00  0.00    +0.145 HD
ENDBRANCH  10  17
ENDBRANCH   1   2
BRANCH   1  23
ATOM     20  C   LIG    1      -37.022  68.768  22.697  0.00  0.00    +0.162 A 
ATOM     21  C   LIG    1      -37.265  69.448  23.898  0.00  0.00    +0.162 A 
ATOM     22  C   LIG    1      -38.553  69.889  24.246  0.00  0.00    +0.054 A 
ATOM     23  C   LIG    1      -39.631  69.843  23.383  0.00  0.00    -0.024 A 
ATOM     24  C   LIG    1      -39.335  69.407  22.085  0.00  0.00    +0.009 A 
ATOM     25  C   LIG    1      -38.064  68.837  21.756  0.00  0.00    +0.050 A 
BRANCH  21  26
ATOM     26  O   LIG    1      -36.192  69.916  24.606  0.00  0.00    -0.491 OA
ATOM     27  C   LIG    1      -35.856  69.190  25.777  0.00  0.00    +0.277 C 
ENDBRANCH  21  26
BRANCH  20  28
ATOM     28  O   LIG    1      -35.801  68.181  22.338  0.00  0.00    -0.484 OA
BRANCH  28  29
ATOM     29  C   LIG    1      -35.903  66.985  21.496  0.00  0.00    +0.264 C 
BRANCH  29  33
ATOM     30  C   LIG    1      -32.645  66.646  18.528  0.00  0.00    +0.120 A 
ATOM     31  C   LIG    1      -32.437  66.484  19.888  0.00  0.00    +0.046 A 
ATOM     32  C   LIG    1      -33.521  66.466  20.786  0.00  0.00    +0.010 A 
ATOM     33  C   LIG    1      -34.858  66.682  20.379  0.00  0.00    -0.010 A 
ATOM     34  C   LIG    1      -35.075  66.664  18.997  0.00  0.00    +0.010 A 
ATOM     35  C   LIG    1      -33.976  66.654  18.082  0.00  0.00    +0.046 A 
BRANCH  30  37
ATOM     36  C   LIG    1      -30.321  67.089  18.134  0.00  0.00    +0.277 C 
ATOM     37  O   LIG    1      -31.639  66.854  17.615  0.00  0.00    -0.495 OA
ENDBRANCH  30  37
ENDBRANCH  29  33
ENDBRANCH  28  29
ENDBRANCH  20  28
ENDBRANCH   1  23
TORSDOF 9
ENDMDL
MODEL 4
REMARK VINA RESULT:      -6.0     16.668     19.866
REMARK  Name = pdb/CHEMBL3673436.pdb
REMARK                            x       y       z     vdW  Elec       q    Type
REMARK                         _______ _______ _______ _____ _____    ______ ____
ROOT
ATOM      1  C   LIG    1      -21.061  78.908  36.131  0.00  0.00    +0.160 C 
ENDROOT
BRANCH   1   2
ATOM      2  N   LIG    1      -22.496  79.126  35.900  0.00  0.00    -0.308 N 
ATOM      3  C   LIG    1      -23.314  78.218  35.265  0.00  0.00    +0.070 A 
ATOM      4  C   LIG    1      -23.150  76.881  34.953  0.00  0.00    +0.028 A 
ATOM      5  C   LIG    1      -24.174  76.243  34.270  0.00  0.00    +0.011 A 
ATOM      6  C   LIG    1      -25.320  76.940  33.884  0.00  0.00    -0.013 A 
ATOM      7  C   LIG    1      -25.475  78.298  34.213  0.00  0.00    +0.038 A 
ATOM      8  C   LIG    1      -24.448  78.939  34.947  0.00  0.00    +0.091 A 
ATOM      9  N   LIG    1      -24.403  80.191  35.452  0.00  0.00    -0.215 NA
ATOM     10  C   LIG    1      -23.232  80.272  36.109  0.00  0.00    +0.194 A 
BRANCH   6  11
ATOM     11  C   LIG    1      -26.354  76.238  33.159  0.00  0.00    +0.020 A 
ATOM     12  C   LIG    1      -27.519  76.820  32.707  0.00  0.00    +0.116 A 
ATOM     13  N   LIG    1      -28.222  75.829  32.094  0.00  0.00    -0.274 N 
ATOM     14  C   LIG    1      -29.520  75.966  31.484  0.00  0.00    +0.172 C 
ATOM     15  N   LIG    1      -27.602  74.636  32.115  0.00  0.00    -0.179 NA
ATOM     16  C   LIG    1      -26.459  74.890  32.760  0.00  0.00    +0.142 A 
ENDBRANCH   6  11
BRANCH  10  17
ATOM     17  N   LIG    1      -22.919  81.302  36.851  0.00  0.00    -0.329 N 
ATOM     18  H   LIG    1      -23.333  82.201  36.626  0.00  0.00    +0.145 HD
ATOM     19  H   LIG    1      -22.169  81.340  37.537  0.00  0.00    +0.145 HD
ENDBRANCH  10  17
ENDBRANCH   1   2
BRANCH   1  23
ATOM     20  C   LIG    1      -18.631  77.934  32.573  0.00  0.00    +0.162 A 
ATOM     21  C   LIG    1      -18.455  77.376  33.846  0.00  0.00    +0.162 A 
ATOM     22  C   LIG    1      -19.305  77.703  34.917  0.00  0.00    +0.054 A 
ATOM     23  C   LIG    1      -20.257  78.702  34.853  0.00  0.00    -0.024 A 
ATOM     24  C   LIG    1      -20.261  79.445  33.666  0.00  0.00    +0.009 A 
ATOM     25  C   LIG    1      -19.493  79.043  32.527  0.00  0.00    +0.050 A 
BRANCH  21  26
ATOM     26  O   LIG    1      -17.285  76.717  34.108  0.00  0.00    -0.491 OA
ATOM     27  C   LIG    1      -17.351  75.300  34.080  0.00  0.00    +0.277 C 
ENDBRANCH  21  26
BRANCH  20  28
ATOM     28  O   LIG    1      -17.916  77.563  31.426  0.00  0.00    -0.484 OA
BRANCH  28  29
ATOM     29  C   LIG    1      -18.425  76.383  30.722  0.00  0.00    +0.264 C 
BRANCH  29  33
ATOM     30  C   LIG    1      -22.830  76.264  30.384  0.00  0.00    +0.120 A 
ATOM     31  C   LIG    1      -22.028  76.919  29.464  0.00  0.00    +0.046 A 
ATOM     32  C   LIG    1      -20.625  76.820  29.532  0.00  0.00    +0.010 A 
ATOM     33  C   LIG    1      -19.954  76.124  30.565  0.00  0.00    -0.010 A 
ATOM     34  C   LIG    1      -20.767  75.324  31.375  0.00  0.00    +0.010 A 
ATOM     35  C   LIG    1      -22.192  75.401  31.289  0.00  0.00    +0.046 A 
BRANCH  30  37
ATOM     36  C   LIG    1      -24.678  77.793  30.317  0.00  0.00    +0.277 C 
ATOM     37  O   LIG    1      -24.187  76.455  30.494  0.00  0.00    -0.495 OA
ENDBRANCH  30  37
ENDBRANCH  29  33
ENDBRANCH  28  29
ENDBRANCH  20  28
ENDBRANCH   1  23
TORSDOF 9
ENDMDL
MODEL 5
REMARK VINA RESULT:      -5.9      2.332      3.483
REMARK  Name = pdb/CHEMBL3673436.pdb
REMARK                            x       y       z     vdW  Elec       q    Type
REMARK                         _______ _______ _______ _____ _____    ______ ____
ROOT
ATOM      1  C   LIG    1      -39.541  69.401  23.933  0.00  0.00    +0.160 C 
ENDROOT
BRANCH   1   2
ATOM      2  N   LIG    1      -38.928  70.536  24.636  0.00  0.00    -0.308 N 
ATOM      3  C   LIG    1      -39.319  71.845  24.462  0.00  0.00    +0.070 A 
ATOM      4  C   LIG    1      -40.442  72.408  23.886  0.00  0.00    +0.028 A 
ATOM      5  C   LIG    1      -40.525  73.792  23.840  0.00  0.00    +0.011 A 
ATOM      6  C   LIG    1      -39.490  74.586  24.336  0.00  0.00    -0.013 A 
ATOM      7  C   LIG    1      -38.357  73.999  24.924  0.00  0.00    +0.038 A 
ATOM      8  C   LIG    1      -38.290  72.588  25.007  0.00  0.00    +0.091 A 
ATOM      9  N   LIG    1      -37.364  71.803  25.597  0.00  0.00    -0.215 NA
ATOM     10  C   LIG    1      -37.806  70.542  25.437  0.00  0.00    +0.194 A 
BRANCH   6  11
ATOM     11  C   LIG    1      -39.612  76.024  24.252  0.00  0.00    +0.020 A 
ATOM     12  C   LIG    1      -40.812  76.703  24.230  0.00  0.00    +0.116 A 
ATOM     13  N   LIG    1      -40.497  78.023  24.132  0.00  0.00    -0.274 N 
ATOM     14  C   LIG    1      -41.435  79.113  24.055  0.00  0.00    +0.172 C 
ATOM     15  N   LIG    1      -39.174  78.259  24.084  0.00  0.00    -0.179 NA
ATOM     16  C   LIG    1      -38.636  77.038  24.164  0.00  0.00    +0.142 A 
ENDBRANCH   6  11
BRANCH  10  17
ATOM     17  N   LIG    1      -37.228  69.522  26.016  0.00  0.00    -0.329 N 
ATOM     18  H   LIG    1      -37.595  69.203  26.908  0.00  0.00    +0.145 HD
ATOM     19  H   LIG    1      -36.337  69.108  25.750  0.00  0.00    +0.145 HD
ENDBRANCH  10  17
ENDBRANCH   1   2
BRANCH   1  23
ATOM     20  C   LIG    1      -37.935  68.335  19.958  0.00  0.00    +0.162 A 
ATOM     21  C   LIG    1      -39.183  67.939  20.455  0.00  0.00    +0.162 A 
ATOM     22  C   LIG    1      -39.643  68.364  21.714  0.00  0.00    +0.054 A 
ATOM     23  C   LIG    1      -38.856  69.051  22.618  0.00  0.00    -0.024 A 
ATOM     24  C   LIG    1      -37.520  69.220  22.234  0.00  0.00    +0.009 A 
ATOM     25  C   LIG    1      -37.074  68.908  20.910  0.00  0.00    +0.050 A 
BRANCH  21  26
ATOM     26  O   LIG    1      -39.839  66.919  19.822  0.00  0.00    -0.491 OA
ATOM     27  C   LIG    1      -40.208  65.818  20.637  0.00  0.00    +0.277 C 
ENDBRANCH  21  26
BRANCH  20  28
ATOM     28  O   LIG    1      -37.461  68.068  18.666  0.00  0.00    -0.484 OA
BRANCH  28  29
ATOM     29  C   LIG    1      -36.787  66.777  18.499  0.00  0.00    +0.264 C 
BRANCH  29  33
ATOM     30  C   LIG    1      -32.518  65.809  19.109  0.00  0.00    +0.120 A 
ATOM     31  C   LIG    1      -32.982  66.459  17.978  0.00  0.00    +0.046 A 
ATOM     32  C   LIG    1      -34.326  66.869  17.882  0.00  0.00    +0.010 A 
ATOM     33  C   LIG    1      -35.288  66.584  18.879  0.00  0.00    -0.010 A 
ATOM     34  C   LIG    1      -34.774  66.092  20.084  0.00  0.00    +0.010 A 
ATOM     35  C   LIG    1      -33.403  65.701  20.193  0.00  0.00    +0.046 A 
BRANCH  30  37
ATOM     36  C   LIG    1      -30.160  66.086  19.456  0.00  0.00    +0.277 C 
ATOM     37  O   LIG    1      -31.279  65.221  19.205  0.00  0.00    -0.495 OA
ENDBRANCH  30  37
ENDBRANCH  29  33
ENDBRANCH  28  29
ENDBRANCH  20  28
ENDBRANCH   1  23
TORSDOF 9
ENDMDL
MODEL 6
REMARK VINA RESULT:      -5.8      2.103      3.417
REMARK  Name = pdb/CHEMBL3673436.pdb
REMARK                            x       y       z     vdW  Elec       q    Type
REMARK                         _______ _______ _______ _____ _____    ______ ____
ROOT
ATOM      1  C   LIG    1      -38.657  67.956  22.805  0.00  0.00    +0.160 C 
ENDROOT
BRANCH   1   2
ATOM      2  N   LIG    1      -38.062  69.032  23.610  0.00  0.00    -0.308 N 
ATOM      3  C   LIG    1      -38.652  70.262  23.798  0.00  0.00    +0.070 A 
ATOM      4  C   LIG    1      -39.939  70.716  23.577  0.00  0.00    +0.028 A 
ATOM      5  C   LIG    1      -40.213  72.048  23.848  0.00  0.00    +0.011 A 
ATOM      6  C   LIG    1      -39.211  72.907  24.302  0.00  0.00    -0.013 A 
ATOM      7  C   LIG    1      -37.908  72.429  24.528  0.00  0.00    +0.038 A 
ATOM      8  C   LIG    1      -37.638  71.060  24.290  0.00  0.00    +0.091 A 
ATOM      9  N   LIG    1      -36.509  70.353  24.513  0.00  0.00    -0.215 NA
ATOM     10  C   LIG    1      -36.804  69.086  24.170  0.00  0.00    +0.194 A 
BRANCH   6  11
ATOM     11  C   LIG    1      -39.539  74.291  24.556  0.00  0.00    +0.020 A 
ATOM     12  C   LIG    1      -38.626  75.248  24.946  0.00  0.00    +0.116 A 
ATOM     13  N   LIG    1      -39.330  76.403  25.091  0.00  0.00    -0.274 N 
ATOM     14  C   LIG    1      -38.794  77.673  25.510  0.00  0.00    +0.172 C 
ATOM     15  N   LIG    1      -40.642  76.271  24.828  0.00  0.00    -0.179 NA
ATOM     16  C   LIG    1      -40.766  74.983  24.495  0.00  0.00    +0.142 A 
ENDBRANCH   6  11
BRANCH  10  17
ATOM     17  N   LIG    1      -35.983  68.094  24.397  0.00  0.00    -0.329 N 
ATOM     18  H   LIG    1      -36.284  67.353  25.024  0.00  0.00    +0.145 HD
ATOM     19  H   LIG    1      -34.998  68.061  24.143  0.00  0.00    +0.145 HD
ENDBRANCH  10  17
ENDBRANCH   1   2
BRANCH   1  23
ATOM     20  C   LIG    1      -36.507  66.710  19.152  0.00  0.00    +0.162 A 
ATOM     21  C   LIG    1      -36.601  65.955  20.329  0.00  0.00    +0.162 A 
ATOM     22  C   LIG    1      -37.349  66.402  21.432  0.00  0.00    +0.054 A 
ATOM     23  C   LIG    1      -37.901  67.665  21.514  0.00  0.00    -0.024 A 
ATOM     24  C   LIG    1      -37.586  68.521  20.451  0.00  0.00    +0.009 A 
ATOM     25  C   LIG    1      -36.938  68.043  19.268  0.00  0.00    +0.050 A 
BRANCH  21  26
ATOM     26  O   LIG    1      -35.741  64.905  20.495  0.00  0.00    -0.491 OA
ATOM     27  C   LIG    1      -35.104  64.818  21.759  0.00  0.00    +0.277 C 
ENDBRANCH  21  26
BRANCH  20  28
ATOM     28  O   LIG    1      -35.898  66.279  17.966  0.00  0.00    -0.484 OA
BRANCH  28  29
ATOM     29  C   LIG    1      -34.856  67.164  17.438  0.00  0.00    +0.264 C 
BRANCH  29  33
ATOM     30  C   LIG    1      -30.624  67.200  18.711  0.00  0.00    +0.120 A 
ATOM     31  C   LIG    1      -31.139  68.111  17.804  0.00  0.00    +0.046 A 
ATOM     32  C   LIG    1      -32.519  68.152  17.527  0.00  0.00    +0.010 A 
ATOM     33  C   LIG    1      -33.440  67.235  18.086  0.00  0.00    -0.010 A 
ATOM     34  C   LIG    1      -32.943  66.445  19.128  0.00  0.00    +0.010 A 
ATOM     35  C   LIG    1      -31.545  66.422  19.430  0.00  0.00    +0.046 A 
BRANCH  30  37
ATOM     36  C   LIG    1      -28.374  67.973  18.401  0.00  0.00    +0.277 C 
ATOM     37  O   LIG    1      -29.280  66.977  18.899  0.00  0.00    -0.495 OA
ENDBRANCH  30  37
ENDBRANCH  29  33
ENDBRANCH  28  29
ENDBRANCH  20  28
ENDBRANCH   1  23
TORSDOF 9
ENDMDL
MODEL 7
REMARK VINA RESULT:      -5.7      7.079     10.109
REMARK  Name = pdb/CHEMBL3673436.pdb
REMARK                            x       y       z     vdW  Elec       q    Type
REMARK                         _______ _______ _______ _____ _____    ______ ____
ROOT
ATOM      1  C   LIG    1      -33.485  76.271  28.508  0.00  0.00    +0.160 C 
ENDROOT
BRANCH   1   2
ATOM      2  N   LIG    1      -33.333  77.671  28.088  0.00  0.00    -0.308 N 
ATOM      3  C   LIG    1      -33.941  78.730  28.724  0.00  0.00    +0.070 A 
ATOM      4  C   LIG    1      -34.556  78.842  29.957  0.00  0.00    +0.028 A 
ATOM      5  C   LIG    1      -35.108  80.067  30.299  0.00  0.00    +0.011 A 
ATOM      6  C   LIG    1      -35.067  81.143  29.410  0.00  0.00    -0.013 A 
ATOM      7  C   LIG    1      -34.433  81.015  28.162  0.00  0.00    +0.038 A 
ATOM      8  C   LIG    1      -33.834  79.777  27.830  0.00  0.00    +0.091 A 
ATOM      9  N   LIG    1      -33.100  79.438  26.748  0.00  0.00    -0.215 NA
ATOM     10  C   LIG    1      -32.724  78.162  26.953  0.00  0.00    +0.194 A 
BRANCH   6  11
ATOM     11  C   LIG    1      -35.670  82.396  29.803  0.00  0.00    +0.020 A 
ATOM     12  C   LIG    1      -36.401  83.206  28.960  0.00  0.00    +0.116 A 
ATOM     13  N   LIG    1      -36.775  84.283  29.702  0.00  0.00    -0.274 N 
ATOM     14  C   LIG    1      -37.541  85.409  29.232  0.00  0.00    +0.172 C 
ATOM     15  N   LIG    1      -36.337  84.240  30.973  0.00  0.00    -0.179 NA
ATOM     16  C   LIG    1      -35.668  83.085  31.033  0.00  0.00    +0.142 A 
ENDBRANCH   6  11
BRANCH  10  17
ATOM     17  N   LIG    1      -31.873  77.552  26.170  0.00  0.00    -0.329 N 
ATOM     18  H   LIG    1      -31.821  76.539  26.212  0.00  0.00    +0.145 HD
ATOM     19  H   LIG    1      -31.130  77.994  25.634  0.00  0.00    +0.145 HD
ENDBRANCH  10  17
ENDBRANCH   1   2
BRANCH   1  23
ATOM     20  C   LIG    1      -37.099  74.054  27.267  0.00  0.00    +0.162 A 
ATOM     21  C   LIG    1      -36.014  73.502  27.960  0.00  0.00    +0.162 A 
ATOM     22  C   LIG    1      -34.921  74.289  28.363  0.00  0.00    +0.054 A 
ATOM     23  C   LIG    1      -34.747  75.603  27.975  0.00  0.00    -0.024 A 
ATOM     24  C   LIG    1      -35.695  76.084  27.063  0.00  0.00    +0.009 A 
ATOM     25  C   LIG    1      -36.876  75.341  26.746  0.00  0.00    +0.050 A 
BRANCH  21  26
ATOM     26  O   LIG    1      -35.900  72.140  28.006  0.00  0.00    -0.491 OA
ATOM     27  C   LIG    1      -34.937  71.567  27.137  0.00  0.00    +0.277 C 
ENDBRANCH  21  26
BRANCH  20  28
ATOM     28  O   LIG    1      -38.281  73.372  26.947  0.00  0.00    -0.484 OA
BRANCH  28  29
ATOM     29  C   LIG    1      -38.354  72.847  25.581  0.00  0.00    +0.264 C 
BRANCH  29  33
ATOM     30  C   LIG    1      -41.798  74.389  23.279  0.00  0.00    +0.120 A 
ATOM     31  C   LIG    1      -40.846  75.220  23.847  0.00  0.00    +0.046 A 
ATOM     32  C   LIG    1      -39.694  74.687  24.456  0.00  0.00    +0.010 A 
ATOM     33  C   LIG    1      -39.473  73.297  24.593  0.00  0.00    -0.010 A 
ATOM     34  C   LIG    1      -40.341  72.477  23.863  0.00  0.00    +0.010 A 
ATOM     35  C   LIG    1      -41.497  73.019  23.220  0.00  0.00    +0.046 A 
BRANCH  30  37
ATOM     36  C   LIG    1      -43.345  76.205  23.021  0.00  0.00    +0.277 C 
ATOM     37  O   LIG    1      -43.025  74.818  22.832  0.00  0.00    -0.495 OA
ENDBRANCH  30  37
ENDBRANCH  29  33
ENDBRANCH  28  29
ENDBRANCH  20  28
ENDBRANCH   1  23
TORSDOF 9
ENDMDL
MODEL 8
REMARK VINA RESULT:      -5.7     11.676     14.394
REMARK  Name = pdb/CHEMBL3673436.pdb
REMARK                            x       y       z     vdW  Elec       q    Type
REMARK                         _______ _______ _______ _____ _____    ______ ____
ROOT
ATOM      1  C   LIG    1      -29.100  73.255  32.439  0.00  0.00    +0.160 C 
ENDROOT
BRANCH   1   2
ATOM      2  N   LIG    1      -29.922  72.931  31.265  0.00  0.00    -0.308 N 
ATOM      3  C   LIG    1      -30.701  73.852  30.600  0.00  0.00    +0.070 A 
ATOM      4  C   LIG    1      -30.730  75.234  30.626  0.00  0.00    +0.028 A 
ATOM      5  C   LIG    1      -31.674  75.879  29.843  0.00  0.00    +0.011 A 
ATOM      6  C   LIG    1      -32.584  75.151  29.075  0.00  0.00    -0.013 A 
ATOM      7  C   LIG    1      -32.539  73.746  29.053  0.00  0.00    +0.038 A 
ATOM      8  C   LIG    1      -31.549  73.089  29.821  0.00  0.00    +0.091 A 
ATOM      9  N   LIG    1      -31.248  71.774  29.896  0.00  0.00    -0.215 NA
ATOM     10  C   LIG    1      -30.190  71.693  30.723  0.00  0.00    +0.194 A 
BRANCH   6  11
ATOM     11  C   LIG    1      -33.562  75.866  28.286  0.00  0.00    +0.020 A 
ATOM     12  C   LIG    1      -34.770  75.340  27.881  0.00  0.00    +0.116 A 
ATOM     13  N   LIG    1      -35.382  76.315  27.156  0.00  0.00    -0.274 N 
ATOM     14  C   LIG    1      -36.666  76.210  26.511  0.00  0.00    +0.172 C 
ATOM     15  N   LIG    1      -34.658  77.444  27.053  0.00  0.00    -0.179 NA
ATOM     16  C   LIG    1      -33.551  77.170  27.748  0.00  0.00    +0.142 A 
ENDBRANCH   6  11
BRANCH  10  17
ATOM     17  N   LIG    1      -29.536  70.576  30.911  0.00  0.00    -0.329 N 
ATOM     18  H   LIG    1      -30.063  69.748  31.172  0.00  0.00    +0.145 HD
ATOM     19  H   LIG    1      -28.527  70.479  30.987  0.00  0.00    +0.145 HD
ENDBRANCH  10  17
ENDBRANCH   1   2
BRANCH   1  23
ATOM     20  C   LIG    1      -25.045  74.518  31.224  0.00  0.00    +0.162 A 
ATOM     21  C   LIG    1      -25.469  73.190  31.354  0.00  0.00    +0.162 A 
ATOM     22  C   LIG    1      -26.795  72.871  31.697  0.00  0.00    +0.054 A 
ATOM     23  C   LIG    1      -27.725  73.813  32.091  0.00  0.00    -0.024 A 
ATOM     24  C   LIG    1      -27.232  75.117  32.219  0.00  0.00    +0.009 A 
ATOM     25  C   LIG    1      -25.928  75.476  31.753  0.00  0.00    +0.050 A 
BRANCH  21  26
ATOM     26  O   LIG    1      -24.519  72.208  31.408  0.00  0.00    -0.491 OA
ATOM     27  C   LIG    1      -24.580  71.228  30.384  0.00  0.00    +0.277 C 
ENDBRANCH  21  26
BRANCH  20  28
ATOM     28  O   LIG    1      -23.785  74.919  30.758  0.00  0.00    -0.484 OA
BRANCH  28  29
ATOM     29  C   LIG    1      -23.547  76.365  30.755  0.00  0.00    +0.264 C 
BRANCH  29  33
ATOM     30  C   LIG    1      -19.268  77.441  30.999  0.00  0.00    +0.120 A 
ATOM     31  C   LIG    1      -19.833  76.879  29.866  0.00  0.00    +0.046 A 
ATOM     32  C   LIG    1      -21.224  76.676  29.780  0.00  0.00    +0.010 A 
ATOM     33  C   LIG    1      -22.107  76.955  30.848  0.00  0.00    -0.010 A 
ATOM     34  C   LIG    1      -21.556  77.684  31.908  0.00  0.00    +0.010 A 
ATOM     35  C   LIG    1      -20.147  77.916  31.984  0.00  0.00    +0.046 A 
BRANCH  30  37
ATOM     36  C   LIG    1      -17.422  76.863  32.419  0.00  0.00    +0.277 C 
ATOM     37  O   LIG    1      -17.914  77.505  31.232  0.00  0.00    -0.495 OA
ENDBRANCH  30  37
ENDBRANCH  29  33
ENDBRANCH  28  29
ENDBRANCH  20  28
ENDBRANCH   1  23
TORSDOF 9
ENDMDL
MODEL 9
REMARK VINA RESULT:      -5.7      6.470     11.079
REMARK  Name = pdb/CHEMBL3673436.pdb
REMARK                            x       y       z     vdW  Elec       q    Type
REMARK                         _______ _______ _______ _____ _____    ______ ____
ROOT
ATOM      1  C   LIG    1      -38.443  80.649  28.114  0.00  0.00    +0.160 C 
ENDROOT
BRANCH   1   2
ATOM      2  N   LIG    1      -37.017  80.528  27.782  0.00  0.00    -0.308 N 
ATOM      3  C   LIG    1      -36.265  79.403  28.040  0.00  0.00    +0.070 A 
ATOM      4  C   LIG    1      -36.616  78.108  28.370  0.00  0.00    +0.028 A 
ATOM      5  C   LIG    1      -35.598  77.196  28.599  0.00  0.00    +0.011 A 
ATOM      6  C   LIG    1      -34.259  77.586  28.526  0.00  0.00    -0.013 A 
ATOM      7  C   LIG    1      -33.917  78.906  28.184  0.00  0.00    +0.038 A 
ATOM      8  C   LIG    1      -34.956  79.826  27.911  0.00  0.00    +0.091 A 
ATOM      9  N   LIG    1      -34.884  81.104  27.481  0.00  0.00    -0.215 NA
ATOM     10  C   LIG    1      -36.159  81.504  27.324  0.00  0.00    +0.194 A 
BRANCH   6  11
ATOM     11  C   LIG    1      -33.231  76.606  28.790  0.00  0.00    +0.020 A 
ATOM     12  C   LIG    1      -33.467  75.259  28.969  0.00  0.00    +0.116 A 
ATOM     13  N   LIG    1      -32.253  74.692  29.204  0.00  0.00    -0.274 N 
ATOM     14  C   LIG    1      -32.009  73.297  29.471  0.00  0.00    +0.172 C 
ATOM     15  N   LIG    1      -31.236  75.572  29.197  0.00  0.00    -0.179 NA
ATOM     16  C   LIG    1      -31.834  76.738  28.938  0.00  0.00    +0.142 A 
ENDBRANCH   6  11
BRANCH  10  17
ATOM     17  N   LIG    1      -36.468  82.650  26.775  0.00  0.00    -0.329 N 
ATOM     18  H   LIG    1      -36.181  82.817  25.815  0.00  0.00    +0.145 HD
ATOM     19  H   LIG    1      -36.824  83.470  27.261  0.00  0.00    +0.145 HD
ENDBRANCH  10  17
ENDBRANCH   1   2
BRANCH   1  23
ATOM     20  C   LIG    1      -40.848  78.550  25.059  0.00  0.00    +0.162 A 
ATOM     21  C   LIG    1      -40.012  79.647  24.813  0.00  0.00    +0.162 A 
ATOM     22  C   LIG    1      -39.240  80.228  25.834  0.00  0.00    +0.054 A 
ATOM     23  C   LIG    1      -39.361  79.886  27.166  0.00  0.00    -0.024 A 
ATOM     24  C   LIG    1      -40.385  78.975  27.455  0.00  0.00    +0.009 A 
ATOM     25  C   LIG    1      -41.089  78.283  26.419  0.00  0.00    +0.050 A 
BRANCH  21  26
ATOM     26  O   LIG    1      -40.157  80.319  23.630  0.00  0.00    -0.491 OA
ATOM     27  C   LIG    1      -40.882  81.536  23.692  0.00  0.00    +0.277 C 
ENDBRANCH  21  26
BRANCH  20  28
ATOM     28  O   LIG    1      -41.545  77.833  24.077  0.00  0.00    -0.484 OA
BRANCH  28  29
ATOM     29  C   LIG    1      -40.735  76.899  23.289  0.00  0.00    +0.264 C 
BRANCH  29  33
ATOM     30  C   LIG    1      -38.450  73.401  24.727  0.00  0.00    +0.120 A 
ATOM     31  C   LIG    1      -38.054  74.705  24.975  0.00  0.00    +0.046 A 
ATOM     32  C   LIG    1      -38.879  75.789  24.617  0.00  0.00    +0.010 A 
ATOM     33  C   LIG    1      -40.103  75.626  23.928  0.00  0.00    -0.010 A 
ATOM     34  C   LIG    1      -40.574  74.311  23.845  0.00  0.00    +0.010 A 
ATOM     35  C   LIG    1      -39.750  73.210  24.234  0.00  0.00    +0.046 A 
BRANCH  30  37
ATOM     36  C   LIG    1      -38.265  71.043  25.132  0.00  0.00    +0.277 C 
ATOM     37  O   LIG    1      -37.631  72.306  24.879  0.00  0.00    -0.495 OA
ENDBRANCH  30  37
ENDBRANCH  29  33
ENDBRANCH  28  29
ENDBRANCH  20  28
ENDBRANCH   1  23
TORSDOF 9
ENDMDL
