MODEL 1
REMARK VINA RESULT:      -6.3      0.000      0.000
REMARK  Name = pdb/CHEMBL3956535.pdb
REMARK                            x       y       z     vdW  Elec       q    Type
REMARK                         _______ _______ _______ _____ _____    ______ ____
ROOT
ATOM      1  C   LIG    1      -36.524  76.688  26.964  0.00  0.00    +0.149 A 
ATOM      2  N   LIG    1      -37.445  77.513  26.447  0.00  0.00    -0.160 NA
ATOM      3  N   LIG    1      -38.268  76.729  25.713  0.00  0.00    -0.218 N 
ATOM      4  C   LIG    1      -37.804  75.404  25.663  0.00  0.00    +0.129 A 
ATOM      5  C   LIG    1      -36.719  75.368  26.507  0.00  0.00    +0.078 A 
ENDROOT
BRANCH   3   6
ATOM      6  C   LIG    1      -39.417  77.315  25.108  0.00  0.00    +0.067 A 
ATOM      7  C   LIG    1      -39.298  78.210  24.044  0.00  0.00    +0.028 A 
ATOM      8  C   LIG    1      -40.433  78.810  23.491  0.00  0.00    +0.002 A 
ATOM      9  C   LIG    1      -41.698  78.499  23.981  0.00  0.00    +0.000 A 
ATOM     10  C   LIG    1      -41.835  77.562  25.002  0.00  0.00    +0.002 A 
ATOM     11  C   LIG    1      -40.701  76.959  25.558  0.00  0.00    +0.028 A 
ENDBRANCH   3   6
BRANCH   4  12
ATOM     12  N   LIG    1      -38.271  74.342  24.869  0.00  0.00    -0.266 N 
ATOM     13  H   LIG    1      -37.806  74.173  23.990  0.00  0.00    +0.157 HD
ATOM     14  C   LIG    1      -39.345  73.461  25.274  0.00  0.00    +0.251 C 
ATOM     15  O   LIG    1      -39.915  73.593  26.338  0.00  0.00    -0.270 OA
BRANCH  14  16
ATOM     16  C   LIG    1      -39.696  72.336  24.372  0.00  0.00    +0.056 A 
ATOM     17  C   LIG    1      -40.881  72.261  23.651  0.00  0.00    +0.056 A 
ATOM     18 CL   LIG    1      -42.174  73.383  23.811  0.00  0.00    -0.083 Cl
ATOM     19  C   LIG    1      -41.090  71.203  22.773  0.00  0.00    +0.059 A 
ATOM     20  C   LIG    1      -40.155  70.176  22.682  0.00  0.00    +0.134 A 
ATOM     21  F   LIG    1      -40.393  69.222  21.772  0.00  0.00    -0.205 F 
ATOM     22  C   LIG    1      -39.008  70.135  23.484  0.00  0.00    +0.039 A 
ATOM     23  C   LIG    1      -38.778  71.259  24.309  0.00  0.00    +0.027 A 
BRANCH  22  24
ATOM     24  C   LIG    1      -38.081  68.983  23.486  0.00  0.00    +0.109 A 
ATOM     25  C   LIG    1      -37.173  68.720  22.455  0.00  0.00    +0.149 A 
ATOM     26  F   LIG    1      -37.112  69.485  21.356  0.00  0.00    -0.203 F 
ATOM     27  C   LIG    1      -36.338  67.612  22.527  0.00  0.00    +0.042 A 
ATOM     28  C   LIG    1      -36.436  66.762  23.619  0.00  0.00    +0.023 A 
ATOM     29  C   LIG    1      -37.377  67.059  24.592  0.00  0.00    +0.111 A 
ATOM     30  N   LIG    1      -38.196  68.142  24.553  0.00  0.00    -0.252 NA
ENDBRANCH  22  24
ENDBRANCH  14  16
ENDBRANCH   4  12
BRANCH   1  32
ATOM     31  N   LIG    1      -34.684  78.113  27.443  0.00  0.00    -0.249 NA
ATOM     32  C   LIG    1      -35.458  77.169  27.837  0.00  0.00    +0.236 C 
BRANCH  32  33
ATOM     33  O   LIG    1      -35.383  76.535  29.024  0.00  0.00    -0.491 OA
ATOM     34  H   LIG    1      -34.867  77.028  29.673  0.00  0.00    +0.294 HD
ENDBRANCH  32  33
BRANCH  31  35
ATOM     35  C   LIG    1      -33.644  78.667  28.308  0.00  0.00    +0.147 C 
BRANCH  35  36
ATOM     36  C   LIG    1      -32.293  78.057  27.938  0.00  0.00    +0.051 C 
BRANCH  36  37
ATOM     37  C   LIG    1      -32.201  77.690  26.463  0.00  0.00    +0.157 C 
BRANCH  37  38
ATOM     38  O   LIG    1      -32.327  78.859  25.666  0.00  0.00    -0.395 OA
ATOM     39  H   LIG    1      -32.294  79.621  26.274  0.00  0.00    +0.209 HD
ENDBRANCH  37  38
ENDBRANCH  36  37
ENDBRANCH  35  36
ENDBRANCH  31  35
ENDBRANCH   1  32
TORSDOF 10
ENDMDL
MODEL 2
REMARK VINA RESULT:      -6.1      3.841      6.500
REMARK  Name = pdb/CHEMBL3956535.pdb
REMARK                            x       y       z     vdW  Elec       q    Type
REMARK                         _______ _______ _______ _____ _____    ______ ____
ROOT
ATOM      1  C   LIG    1      -37.268  76.416  25.984  0.00  0.00    +0.149 A 
ATOM      2  N   LIG    1      -37.536  75.109  25.862  0.00  0.00    -0.160 NA
ATOM      3  N   LIG    1      -38.559  75.026  24.979  0.00  0.00    -0.218 N 
ATOM      4  C   LIG    1      -39.029  76.299  24.618  0.00  0.00    +0.129 A 
ATOM      5  C   LIG    1      -38.168  77.188  25.219  0.00  0.00    +0.078 A 
ENDROOT
BRANCH   3   6
ATOM      6  C   LIG    1      -39.010  73.738  24.570  0.00  0.00    +0.067 A 
ATOM      7  C   LIG    1      -40.251  73.567  23.957  0.00  0.00    +0.028 A 
ATOM      8  C   LIG    1      -40.697  72.291  23.601  0.00  0.00    +0.002 A 
ATOM      9  C   LIG    1      -39.892  71.178  23.832  0.00  0.00    +0.000 A 
ATOM     10  C   LIG    1      -38.625  71.342  24.386  0.00  0.00    +0.002 A 
ATOM     11  C   LIG    1      -38.176  72.619  24.744  0.00  0.00    +0.028 A 
ENDBRANCH   3   6
BRANCH   4  12
ATOM     12  N   LIG    1      -40.175  76.631  23.875  0.00  0.00    -0.266 N 
ATOM     13  H   LIG    1      -40.085  76.686  22.871  0.00  0.00    +0.157 HD
ATOM     14  C   LIG    1      -41.474  76.846  24.474  0.00  0.00    +0.251 C 
ATOM     15  O   LIG    1      -41.650  76.754  25.673  0.00  0.00    -0.270 OA
BRANCH  14  16
ATOM     16  C   LIG    1      -42.618  77.124  23.570  0.00  0.00    +0.056 A 
ATOM     17  C   LIG    1      -43.224  78.368  23.447  0.00  0.00    +0.056 A 
ATOM     18 CL   LIG    1      -42.837  79.725  24.428  0.00  0.00    -0.083 Cl
ATOM     19  C   LIG    1      -44.242  78.550  22.517  0.00  0.00    +0.059 A 
ATOM     20  C   LIG    1      -44.713  77.471  21.775  0.00  0.00    +0.134 A 
ATOM     21  F   LIG    1      -45.653  77.734  20.858  0.00  0.00    -0.205 F 
ATOM     22  C   LIG    1      -44.229  76.170  21.957  0.00  0.00    +0.039 A 
ATOM     23  C   LIG    1      -43.142  76.024  22.848  0.00  0.00    +0.027 A 
BRANCH  22  24
ATOM     24  C   LIG    1      -44.816  75.001  21.269  0.00  0.00    +0.109 A 
ATOM     25  C   LIG    1      -44.685  74.767  19.896  0.00  0.00    +0.149 A 
ATOM     26  F   LIG    1      -44.044  75.625  19.091  0.00  0.00    -0.203 F 
ATOM     27  C   LIG    1      -45.272  73.646  19.321  0.00  0.00    +0.042 A 
ATOM     28  C   LIG    1      -46.006  72.782  20.121  0.00  0.00    +0.023 A 
ATOM     29  C   LIG    1      -46.124  73.086  21.468  0.00  0.00    +0.111 A 
ATOM     30  N   LIG    1      -45.551  74.166  22.057  0.00  0.00    -0.252 NA
ENDBRANCH  22  24
ENDBRANCH  14  16
ENDBRANCH   4  12
BRANCH   1  32
ATOM     31  N   LIG    1      -35.211  76.150  27.144  0.00  0.00    -0.249 NA
ATOM     32  C   LIG    1      -36.202  76.910  26.850  0.00  0.00    +0.236 C 
BRANCH  32  33
ATOM     33  O   LIG    1      -36.379  78.174  27.284  0.00  0.00    -0.491 OA
ATOM     34  H   LIG    1      -35.717  78.780  26.931  0.00  0.00    +0.294 HD
ENDBRANCH  32  33
BRANCH  31  35
ATOM     35  C   LIG    1      -34.092  76.624  27.956  0.00  0.00    +0.147 C 
BRANCH  35  36
ATOM     36  C   LIG    1      -32.895  76.919  27.054  0.00  0.00    +0.051 C 
BRANCH  36  37
ATOM     37  C   LIG    1      -32.563  78.404  26.989  0.00  0.00    +0.157 C 
BRANCH  37  38
ATOM     38  O   LIG    1      -32.339  78.789  25.639  0.00  0.00    -0.395 OA
ATOM     39  H   LIG    1      -31.781  79.588  25.664  0.00  0.00    +0.209 HD
ENDBRANCH  37  38
ENDBRANCH  36  37
ENDBRANCH  35  36
ENDBRANCH  31  35
ENDBRANCH   1  32
TORSDOF 10
ENDMDL
MODEL 3
REMARK VINA RESULT:      -6.0     16.293     18.653
REMARK  Name = pdb/CHEMBL3956535.pdb
REMARK                            x       y       z     vdW  Elec       q    Type
REMARK                         _______ _______ _______ _____ _____    ______ ____
ROOT
ATOM      1  C   LIG    1      -22.976  81.464  15.341  0.00  0.00    +0.149 A 
ATOM      2  N   LIG    1      -22.270  80.350  15.577  0.00  0.00    -0.160 NA
ATOM      3  N   LIG    1      -22.872  79.376  14.857  0.00  0.00    -0.218 N 
ATOM      4  C   LIG    1      -24.045  79.843  14.242  0.00  0.00    +0.129 A 
ATOM      5  C   LIG    1      -24.082  81.192  14.508  0.00  0.00    +0.078 A 
ENDROOT
BRANCH   3   6
ATOM      6  C   LIG    1      -22.284  78.078  14.831  0.00  0.00    +0.067 A 
ATOM      7  C   LIG    1      -22.929  76.980  15.401  0.00  0.00    +0.028 A 
ATOM      8  C   LIG    1      -22.319  75.722  15.406  0.00  0.00    +0.002 A 
ATOM      9  C   LIG    1      -21.070  75.549  14.816  0.00  0.00    +0.000 A 
ATOM     10  C   LIG    1      -20.444  76.623  14.189  0.00  0.00    +0.002 A 
ATOM     11  C   LIG    1      -21.052  77.883  14.183  0.00  0.00    +0.028 A 
ENDBRANCH   3   6
BRANCH   4  12
ATOM     12  N   LIG    1      -25.033  79.106  13.566  0.00  0.00    -0.266 N 
ATOM     13  H   LIG    1      -24.988  79.073  12.558  0.00  0.00    +0.157 HD
ATOM     14  C   LIG    1      -26.071  78.361  14.245  0.00  0.00    +0.251 C 
ATOM     15  O   LIG    1      -26.151  78.333  15.457  0.00  0.00    -0.270 OA
BRANCH  14  16
ATOM     16  C   LIG    1      -27.012  77.569  13.415  0.00  0.00    +0.056 A 
ATOM     17  C   LIG    1      -26.924  76.194  13.239  0.00  0.00    +0.056 A 
ATOM     18 CL   LIG    1      -25.629  75.233  13.834  0.00  0.00    -0.083 Cl
ATOM     19  C   LIG    1      -27.897  75.527  12.503  0.00  0.00    +0.059 A 
ATOM     20  C   LIG    1      -28.908  76.245  11.871  0.00  0.00    +0.134 A 
ATOM     21  F   LIG    1      -29.844  75.532  11.230  0.00  0.00    -0.205 F 
ATOM     22  C   LIG    1      -28.967  77.643  11.905  0.00  0.00    +0.039 A 
ATOM     23  C   LIG    1      -28.016  78.291  12.723  0.00  0.00    +0.027 A 
BRANCH  22  24
ATOM     24  C   LIG    1      -29.959  78.416  11.127  0.00  0.00    +0.109 A 
ATOM     25  C   LIG    1      -29.956  78.491   9.729  0.00  0.00    +0.149 A 
ATOM     26  F   LIG    1      -29.012  77.891   8.992  0.00  0.00    -0.203 F 
ATOM     27  C   LIG    1      -30.920  79.243   9.071  0.00  0.00    +0.042 A 
ATOM     28  C   LIG    1      -31.863  79.936   9.816  0.00  0.00    +0.023 A 
ATOM     29  C   LIG    1      -31.793  79.847  11.197  0.00  0.00    +0.111 A 
ATOM     30  N   LIG    1      -30.871  79.108  11.866  0.00  0.00    -0.252 NA
ENDBRANCH  22  24
ENDBRANCH  14  16
ENDBRANCH   4  12
BRANCH   1  32
ATOM     31  N   LIG    1      -22.789  83.832  15.275  0.00  0.00    -0.249 NA
ATOM     32  C   LIG    1      -22.621  82.747  15.939  0.00  0.00    +0.236 C 
BRANCH  32  33
ATOM     33  O   LIG    1      -22.118  82.659  17.186  0.00  0.00    -0.491 OA
ATOM     34  H   LIG    1      -21.868  83.519  17.544  0.00  0.00    +0.294 HD
ENDBRANCH  32  33
BRANCH  31  35
ATOM     35  C   LIG    1      -22.505  85.143  15.857  0.00  0.00    +0.147 C 
BRANCH  35  36
ATOM     36  C   LIG    1      -22.356  86.176  14.742  0.00  0.00    +0.051 C 
BRANCH  36  37
ATOM     37  C   LIG    1      -22.012  87.562  15.269  0.00  0.00    +0.157 C 
BRANCH  37  38
ATOM     38  O   LIG    1      -21.497  87.463  16.590  0.00  0.00    -0.395 OA
ATOM     39  H   LIG    1      -22.115  86.900  17.092  0.00  0.00    +0.209 HD
ENDBRANCH  37  38
ENDBRANCH  36  37
ENDBRANCH  35  36
ENDBRANCH  31  35
ENDBRANCH   1  32
TORSDOF 10
ENDMDL
MODEL 4
REMARK VINA RESULT:      -6.0      1.962      2.368
REMARK  Name = pdb/CHEMBL3956535.pdb
REMARK                            x       y       z     vdW  Elec       q    Type
REMARK                         _______ _______ _______ _____ _____    ______ ____
ROOT
ATOM      1  C   LIG    1      -36.952  76.384  26.277  0.00  0.00    +0.149 A 
ATOM      2  N   LIG    1      -37.707  77.450  25.979  0.00  0.00    -0.160 NA
ATOM      3  N   LIG    1      -38.754  76.971  25.268  0.00  0.00    -0.218 N 
ATOM      4  C   LIG    1      -38.611  75.598  25.008  0.00  0.00    +0.129 A 
ATOM      5  C   LIG    1      -37.485  75.213  25.699  0.00  0.00    +0.078 A 
ENDROOT
BRANCH   3   6
ATOM      6  C   LIG    1      -39.792  77.868  24.885  0.00  0.00    +0.067 A 
ATOM      7  C   LIG    1      -41.133  77.566  25.122  0.00  0.00    +0.028 A 
ATOM      8  C   LIG    1      -42.142  78.437  24.700  0.00  0.00    +0.002 A 
ATOM      9  C   LIG    1      -41.815  79.630  24.062  0.00  0.00    +0.000 A 
ATOM     10  C   LIG    1      -40.478  79.972  23.874  0.00  0.00    +0.002 A 
ATOM     11  C   LIG    1      -39.466  79.102  24.295  0.00  0.00    +0.028 A 
ENDBRANCH   3   6
BRANCH   4  12
ATOM     12  N   LIG    1      -39.382  74.783  24.162  0.00  0.00    -0.266 N 
ATOM     13  H   LIG    1      -39.161  74.787  23.176  0.00  0.00    +0.157 HD
ATOM     14  C   LIG    1      -40.432  73.911  24.640  0.00  0.00    +0.251 C 
ATOM     15  O   LIG    1      -40.714  73.835  25.819  0.00  0.00    -0.270 OA
BRANCH  14  16
ATOM     16  C   LIG    1      -41.125  73.051  23.649  0.00  0.00    +0.056 A 
ATOM     17  C   LIG    1      -42.278  73.423  22.970  0.00  0.00    +0.056 A 
ATOM     18 CL   LIG    1      -43.151  74.871  23.286  0.00  0.00    -0.083 Cl
ATOM     19  C   LIG    1      -42.815  72.580  22.004  0.00  0.00    +0.059 A 
ATOM     20  C   LIG    1      -42.250  71.327  21.779  0.00  0.00    +0.134 A 
ATOM     21  F   LIG    1      -42.783  70.594  20.793  0.00  0.00    -0.205 F 
ATOM     22  C   LIG    1      -41.170  70.848  22.530  0.00  0.00    +0.039 A 
ATOM     23  C   LIG    1      -40.593  71.753  23.448  0.00  0.00    +0.027 A 
BRANCH  22  24
ATOM     24  C   LIG    1      -40.653  69.470  22.387  0.00  0.00    +0.109 A 
ATOM     25  C   LIG    1      -40.997  68.422  23.248  0.00  0.00    +0.149 A 
ATOM     26  F   LIG    1      -41.800  68.611  24.304  0.00  0.00    -0.203 F 
ATOM     27  C   LIG    1      -40.463  67.155  23.051  0.00  0.00    +0.042 A 
ATOM     28  C   LIG    1      -39.569  66.952  22.010  0.00  0.00    +0.023 A 
ATOM     29  C   LIG    1      -39.244  68.038  21.212  0.00  0.00    +0.111 A 
ATOM     30  N   LIG    1      -39.760  69.283  21.373  0.00  0.00    -0.252 NA
ENDBRANCH  22  24
ENDBRANCH  14  16
ENDBRANCH   4  12
BRANCH   1  32
ATOM     31  N   LIG    1      -35.407  77.622  27.591  0.00  0.00    -0.249 NA
ATOM     32  C   LIG    1      -35.725  76.499  27.059  0.00  0.00    +0.236 C 
BRANCH  32  33
ATOM     33  O   LIG    1      -35.009  75.360  27.141  0.00  0.00    -0.491 OA
ATOM     34  H   LIG    1      -34.591  75.127  26.304  0.00  0.00    +0.294 HD
ENDBRANCH  32  33
BRANCH  31  35
ATOM     35  C   LIG    1      -34.220  77.766  28.434  0.00  0.00    +0.147 C 
BRANCH  35  36
ATOM     36  C   LIG    1      -33.220  78.697  27.751  0.00  0.00    +0.051 C 
BRANCH  36  37
ATOM     37  C   LIG    1      -32.375  77.982  26.705  0.00  0.00    +0.157 C 
BRANCH  37  38
ATOM     38  O   LIG    1      -32.302  78.769  25.524  0.00  0.00    -0.395 OA
ATOM     39  H   LIG    1      -31.464  78.537  25.082  0.00  0.00    +0.209 HD
ENDBRANCH  37  38
ENDBRANCH  36  37
ENDBRANCH  35  36
ENDBRANCH  31  35
ENDBRANCH   1  32
TORSDOF 10
ENDMDL
MODEL 5
REMARK VINA RESULT:      -6.0     14.012     16.314
REMARK  Name = pdb/CHEMBL3956535.pdb
REMARK                            x       y       z     vdW  Elec       q    Type
REMARK                         _______ _______ _______ _____ _____    ______ ____
ROOT
ATOM      1  C   LIG    1      -24.046  78.716  34.183  0.00  0.00    +0.149 A 
ATOM      2  N   LIG    1      -23.004  78.710  33.341  0.00  0.00    -0.160 NA
ATOM      3  N   LIG    1      -23.115  77.565  32.629  0.00  0.00    -0.218 N 
ATOM      4  C   LIG    1      -24.175  76.772  33.097  0.00  0.00    +0.129 A 
ATOM      5  C   LIG    1      -24.803  77.533  34.056  0.00  0.00    +0.078 A 
ENDROOT
BRANCH   3   6
ATOM      6  C   LIG    1      -22.190  77.320  31.573  0.00  0.00    +0.067 A 
ATOM      7  C   LIG    1      -20.830  77.590  31.726  0.00  0.00    +0.028 A 
ATOM      8  C   LIG    1      -19.942  77.385  30.666  0.00  0.00    +0.002 A 
ATOM      9  C   LIG    1      -20.405  76.883  29.453  0.00  0.00    +0.000 A 
ATOM     10  C   LIG    1      -21.750  76.552  29.307  0.00  0.00    +0.002 A 
ATOM     11  C   LIG    1      -22.641  76.756  30.367  0.00  0.00    +0.028 A 
ENDBRANCH   3   6
BRANCH   4  12
ATOM     12  N   LIG    1      -24.501  75.450  32.745  0.00  0.00    -0.266 N 
ATOM     13  H   LIG    1      -24.059  74.704  33.262  0.00  0.00    +0.157 HD
ATOM     14  C   LIG    1      -25.467  75.117  31.721  0.00  0.00    +0.251 C 
ATOM     15  O   LIG    1      -26.058  75.973  31.094  0.00  0.00    -0.270 OA
BRANCH  14  16
ATOM     16  C   LIG    1      -25.769  73.682  31.494  0.00  0.00    +0.056 A 
ATOM     17  C   LIG    1      -26.970  73.076  31.845  0.00  0.00    +0.056 A 
ATOM     18 CL   LIG    1      -28.219  73.864  32.724  0.00  0.00    -0.083 Cl
ATOM     19  C   LIG    1      -27.190  71.741  31.524  0.00  0.00    +0.059 A 
ATOM     20  C   LIG    1      -26.180  70.989  30.933  0.00  0.00    +0.134 A 
ATOM     21  F   LIG    1      -26.483  69.728  30.598  0.00  0.00    -0.205 F 
ATOM     22  C   LIG    1      -24.906  71.513  30.681  0.00  0.00    +0.039 A 
ATOM     23  C   LIG    1      -24.732  72.891  30.941  0.00  0.00    +0.027 A 
BRANCH  22  24
ATOM     24  C   LIG    1      -23.791  70.684  30.178  0.00  0.00    +0.109 A 
ATOM     25  C   LIG    1      -23.754  70.138  28.889  0.00  0.00    +0.149 A 
ATOM     26  F   LIG    1      -24.766  70.299  28.025  0.00  0.00    -0.203 F 
ATOM     27  C   LIG    1      -22.672  69.363  28.492  0.00  0.00    +0.042 A 
ATOM     28  C   LIG    1      -21.648  69.118  29.395  0.00  0.00    +0.023 A 
ATOM     29  C   LIG    1      -21.758  69.660  30.665  0.00  0.00    +0.111 A 
ATOM     30  N   LIG    1      -22.797  70.432  31.076  0.00  0.00    -0.252 NA
ENDBRANCH  22  24
ENDBRANCH  14  16
ENDBRANCH   4  12
BRANCH   1  32
ATOM     31  N   LIG    1      -23.352  80.669  35.346  0.00  0.00    -0.249 NA
ATOM     32  C   LIG    1      -24.279  79.812  35.118  0.00  0.00    +0.236 C 
BRANCH  32  33
ATOM     33  O   LIG    1      -25.502  79.810  35.685  0.00  0.00    -0.491 OA
ATOM     34  H   LIG    1      -25.463  79.858  36.647  0.00  0.00    +0.294 HD
ENDBRANCH  32  33
BRANCH  31  35
ATOM     35  C   LIG    1      -23.562  81.817  36.226  0.00  0.00    +0.147 C 
BRANCH  35  36
ATOM     36  C   LIG    1      -22.556  81.772  37.374  0.00  0.00    +0.051 C 
BRANCH  36  37
ATOM     37  C   LIG    1      -21.128  82.032  36.911  0.00  0.00    +0.157 C 
BRANCH  37  38
ATOM     38  O   LIG    1      -21.126  82.420  35.544  0.00  0.00    -0.395 OA
ATOM     39  H   LIG    1      -20.276  82.124  35.169  0.00  0.00    +0.209 HD
ENDBRANCH  37  38
ENDBRANCH  36  37
ENDBRANCH  35  36
ENDBRANCH  31  35
ENDBRANCH   1  32
TORSDOF 10
ENDMDL
MODEL 6
REMARK VINA RESULT:      -5.9      4.042      7.279
REMARK  Name = pdb/CHEMBL3956535.pdb
REMARK                            x       y       z     vdW  Elec       q    Type
REMARK                         _______ _______ _______ _____ _____    ______ ____
ROOT
ATOM      1  C   LIG    1      -31.746  74.297  29.739  0.00  0.00    +0.149 A 
ATOM      2  N   LIG    1      -31.676  75.601  29.441  0.00  0.00    -0.160 NA
ATOM      3  N   LIG    1      -32.761  75.862  28.675  0.00  0.00    -0.218 N 
ATOM      4  C   LIG    1      -33.474  74.688  28.382  0.00  0.00    +0.129 A 
ATOM      5  C   LIG    1      -32.855  73.696  29.106  0.00  0.00    +0.078 A 
ENDROOT
BRANCH   3   6
ATOM      6  C   LIG    1      -33.013  77.206  28.276  0.00  0.00    +0.067 A 
ATOM      7  C   LIG    1      -33.945  77.997  28.948  0.00  0.00    +0.028 A 
ATOM      8  C   LIG    1      -34.213  79.300  28.517  0.00  0.00    +0.002 A 
ATOM      9  C   LIG    1      -33.530  79.830  27.426  0.00  0.00    +0.000 A 
ATOM     10  C   LIG    1      -32.552  79.072  26.785  0.00  0.00    +0.002 A 
ATOM     11  C   LIG    1      -32.283  77.768  27.214  0.00  0.00    +0.028 A 
ENDBRANCH   3   6
BRANCH   4  12
ATOM     12  N   LIG    1      -34.540  74.514  27.483  0.00  0.00    -0.266 N 
ATOM     13  H   LIG    1      -34.316  74.387  26.506  0.00  0.00    +0.157 HD
ATOM     14  C   LIG    1      -35.926  74.458  27.895  0.00  0.00    +0.251 C 
ATOM     15  O   LIG    1      -36.252  74.565  29.060  0.00  0.00    -0.270 OA
BRANCH  14  16
ATOM     16  C   LIG    1      -36.950  74.202  26.852  0.00  0.00    +0.056 A 
ATOM     17  C   LIG    1      -37.176  72.958  26.275  0.00  0.00    +0.056 A 
ATOM     18 CL   LIG    1      -36.206  71.572  26.577  0.00  0.00    -0.083 Cl
ATOM     19  C   LIG    1      -38.210  72.799  25.359  0.00  0.00    +0.059 A 
ATOM     20  C   LIG    1      -38.960  73.899  24.954  0.00  0.00    +0.134 A 
ATOM     21  F   LIG    1      -39.977  73.661  24.115  0.00  0.00    -0.205 F 
ATOM     22  C   LIG    1      -38.687  75.197  25.403  0.00  0.00    +0.039 A 
ATOM     23  C   LIG    1      -37.686  75.322  26.392  0.00  0.00    +0.027 A 
BRANCH  22  24
ATOM     24  C   LIG    1      -39.392  76.385  24.876  0.00  0.00    +0.109 A 
ATOM     25  C   LIG    1      -38.818  77.288  23.974  0.00  0.00    +0.149 A 
ATOM     26  F   LIG    1      -37.552  77.157  23.553  0.00  0.00    -0.203 F 
ATOM     27  C   LIG    1      -39.544  78.385  23.529  0.00  0.00    +0.042 A 
ATOM     28  C   LIG    1      -40.830  78.585  24.009  0.00  0.00    +0.023 A 
ATOM     29  C   LIG    1      -41.331  77.672  24.925  0.00  0.00    +0.111 A 
ATOM     30  N   LIG    1      -40.648  76.585  25.366  0.00  0.00    -0.252 NA
ENDBRANCH  22  24
ENDBRANCH  14  16
ENDBRANCH   4  12
BRANCH   1  32
ATOM     31  N   LIG    1      -30.177  74.284  31.523  0.00  0.00    -0.249 NA
ATOM     32  C   LIG    1      -30.746  73.638  30.572  0.00  0.00    +0.236 C 
BRANCH  32  33
ATOM     33  O   LIG    1      -30.500  72.355  30.237  0.00  0.00    -0.491 OA
ATOM     34  H   LIG    1      -29.564  72.191  30.073  0.00  0.00    +0.294 HD
ENDBRANCH  32  33
BRANCH  31  35
ATOM     35  C   LIG    1      -29.216  73.646  32.421  0.00  0.00    +0.147 C 
BRANCH  35  36
ATOM     36  C   LIG    1      -27.859  74.333  32.288  0.00  0.00    +0.051 C 
BRANCH  36  37
ATOM     37  C   LIG    1      -27.934  75.833  32.539  0.00  0.00    +0.157 C 
BRANCH  37  38
ATOM     38  O   LIG    1      -28.077  76.523  31.305  0.00  0.00    -0.395 OA
ATOM     39  H   LIG    1      -29.029  76.707  31.194  0.00  0.00    +0.209 HD
ENDBRANCH  37  38
ENDBRANCH  36  37
ENDBRANCH  35  36
ENDBRANCH  31  35
ENDBRANCH   1  32
TORSDOF 10
ENDMDL
MODEL 7
REMARK VINA RESULT:      -5.9      3.318      4.893
REMARK  Name = pdb/CHEMBL3956535.pdb
REMARK                            x       y       z     vdW  Elec       q    Type
REMARK                         _______ _______ _______ _____ _____    ______ ____
ROOT
ATOM      1  C   LIG    1      -37.588  80.022  27.643  0.00  0.00    +0.149 A 
ATOM      2  N   LIG    1      -36.533  79.408  28.195  0.00  0.00    -0.160 NA
ATOM      3  N   LIG    1      -36.583  78.128  27.756  0.00  0.00    -0.218 N 
ATOM      4  C   LIG    1      -37.747  77.888  27.008  0.00  0.00    +0.129 A 
ATOM      5  C   LIG    1      -38.362  79.113  26.891  0.00  0.00    +0.078 A 
ENDROOT
BRANCH   3   6
ATOM      6  C   LIG    1      -35.524  77.242  28.104  0.00  0.00    +0.067 A 
ATOM      7  C   LIG    1      -34.755  76.614  27.123  0.00  0.00    +0.028 A 
ATOM      8  C   LIG    1      -33.747  75.712  27.480  0.00  0.00    +0.002 A 
ATOM      9  C   LIG    1      -33.484  75.453  28.822  0.00  0.00    +0.000 A 
ATOM     10  C   LIG    1      -34.202  76.120  29.812  0.00  0.00    +0.002 A 
ATOM     11  C   LIG    1      -35.212  77.023  29.457  0.00  0.00    +0.028 A 
ENDBRANCH   3   6
BRANCH   4  12
ATOM     12  N   LIG    1      -38.249  76.662  26.539  0.00  0.00    -0.266 N 
ATOM     13  H   LIG    1      -38.859  76.139  27.149  0.00  0.00    +0.157 HD
ATOM     14  C   LIG    1      -37.972  76.146  25.216  0.00  0.00    +0.251 C 
ATOM     15  O   LIG    1      -37.276  76.750  24.425  0.00  0.00    -0.270 OA
BRANCH  14  16
ATOM     16  C   LIG    1      -38.619  74.870  24.820  0.00  0.00    +0.056 A 
ATOM     17  C   LIG    1      -39.834  74.791  24.152  0.00  0.00    +0.056 A 
ATOM     18 CL   LIG    1      -40.835  76.148  23.819  0.00  0.00    -0.083 Cl
ATOM     19  C   LIG    1      -40.325  73.552  23.756  0.00  0.00    +0.059 A 
ATOM     20  C   LIG    1      -39.647  72.387  24.104  0.00  0.00    +0.134 A 
ATOM     21  F   LIG    1      -40.146  71.235  23.637  0.00  0.00    -0.205 F 
ATOM     22  C   LIG    1      -38.489  72.403  24.892  0.00  0.00    +0.039 A 
ATOM     23  C   LIG    1      -37.966  73.676  25.213  0.00  0.00    +0.027 A 
BRANCH  22  24
ATOM     24  C   LIG    1      -37.840  71.166  25.375  0.00  0.00    +0.109 A 
ATOM     25  C   LIG    1      -37.242  70.225  24.528  0.00  0.00    +0.149 A 
ATOM     26  F   LIG    1      -37.255  70.366  23.195  0.00  0.00    -0.203 F 
ATOM     27  C   LIG    1      -36.657  69.083  25.059  0.00  0.00    +0.042 A 
ATOM     28  C   LIG    1      -36.699  68.877  26.431  0.00  0.00    +0.023 A 
ATOM     29  C   LIG    1      -37.333  69.829  27.212  0.00  0.00    +0.111 A 
ATOM     30  N   LIG    1      -37.901  70.961  26.721  0.00  0.00    -0.252 NA
ENDBRANCH  22  24
ENDBRANCH  14  16
ENDBRANCH   4  12
BRANCH   1  32
ATOM     31  N   LIG    1      -37.001  82.322  27.545  0.00  0.00    -0.249 NA
ATOM     32  C   LIG    1      -37.868  81.436  27.873  0.00  0.00    +0.236 C 
BRANCH  32  33
ATOM     33  O   LIG    1      -39.065  81.680  28.443  0.00  0.00    -0.491 OA
ATOM     34  H   LIG    1      -39.143  82.587  28.762  0.00  0.00    +0.294 HD
ENDBRANCH  32  33
BRANCH  31  35
ATOM     35  C   LIG    1      -37.265  83.752  27.699  0.00  0.00    +0.147 C 
BRANCH  35  36
ATOM     36  C   LIG    1      -37.385  84.400  26.321  0.00  0.00    +0.051 C 
BRANCH  36  37
ATOM     37  C   LIG    1      -36.647  83.622  25.240  0.00  0.00    +0.157 C 
BRANCH  37  38
ATOM     38  O   LIG    1      -35.245  83.802  25.387  0.00  0.00    -0.395 OA
ATOM     39  H   LIG    1      -35.098  84.755  25.535  0.00  0.00    +0.209 HD
ENDBRANCH  37  38
ENDBRANCH  36  37
ENDBRANCH  35  36
ENDBRANCH  31  35
ENDBRANCH   1  32
TORSDOF 10
ENDMDL
MODEL 8
REMARK VINA RESULT:      -5.8     13.660     16.054
REMARK  Name = pdb/CHEMBL3956535.pdb
REMARK                            x       y       z     vdW  Elec       q    Type
REMARK                         _______ _______ _______ _____ _____    ______ ____
ROOT
ATOM      1  C   LIG    1      -28.521  77.467  12.087  0.00  0.00    +0.149 A 
ATOM      2  N   LIG    1      -27.546  78.212  12.627  0.00  0.00    -0.160 NA
ATOM      3  N   LIG    1      -26.897  77.395  13.489  0.00  0.00    -0.218 N 
ATOM      4  C   LIG    1      -27.532  76.146  13.589  0.00  0.00    +0.129 A 
ATOM      5  C   LIG    1      -28.538  76.175  12.652  0.00  0.00    +0.078 A 
ENDROOT
BRANCH   3   6
ATOM      6  C   LIG    1      -25.736  77.883  14.155  0.00  0.00    +0.067 A 
ATOM      7  C   LIG    1      -25.815  78.927  15.076  0.00  0.00    +0.028 A 
ATOM      8  C   LIG    1      -24.661  79.424  15.689  0.00  0.00    +0.002 A 
ATOM      9  C   LIG    1      -23.420  78.861  15.402  0.00  0.00    +0.000 A 
ATOM     10  C   LIG    1      -23.334  77.778  14.531  0.00  0.00    +0.002 A 
ATOM     11  C   LIG    1      -24.489  77.279  13.917  0.00  0.00    +0.028 A 
ENDBRANCH   3   6
BRANCH   4  12
ATOM     12  N   LIG    1      -27.274  75.104  14.496  0.00  0.00    -0.266 N 
ATOM     13  H   LIG    1      -27.767  75.115  15.377  0.00  0.00    +0.157 HD
ATOM     14  C   LIG    1      -26.383  74.002  14.206  0.00  0.00    +0.251 C 
ATOM     15  O   LIG    1      -25.794  73.915  13.148  0.00  0.00    -0.270 OA
BRANCH  14  16
ATOM     16  C   LIG    1      -26.252  72.930  15.225  0.00  0.00    +0.056 A 
ATOM     17  C   LIG    1      -25.035  72.457  15.701  0.00  0.00    +0.056 A 
ATOM     18 CL   LIG    1      -23.508  72.939  15.076  0.00  0.00    -0.083 Cl
ATOM     19  C   LIG    1      -25.013  71.502  16.711  0.00  0.00    +0.059 A 
ATOM     20  C   LIG    1      -26.203  70.955  17.182  0.00  0.00    +0.134 A 
ATOM     21  F   LIG    1      -26.108  70.085  18.196  0.00  0.00    -0.205 F 
ATOM     22  C   LIG    1      -27.449  71.298  16.643  0.00  0.00    +0.039 A 
ATOM     23  C   LIG    1      -27.452  72.328  15.675  0.00  0.00    +0.027 A 
BRANCH  22  24
ATOM     24  C   LIG    1      -28.702  70.625  17.047  0.00  0.00    +0.109 A 
ATOM     25  C   LIG    1      -29.655  71.208  17.890  0.00  0.00    +0.149 A 
ATOM     26  F   LIG    1      -29.472  72.420  18.431  0.00  0.00    -0.203 F 
ATOM     27  C   LIG    1      -30.806  70.508  18.228  0.00  0.00    +0.042 A 
ATOM     28  C   LIG    1      -30.982  69.220  17.742  0.00  0.00    +0.023 A 
ATOM     29  C   LIG    1      -29.987  68.688  16.938  0.00  0.00    +0.111 A 
ATOM     30  N   LIG    1      -28.860  69.354  16.581  0.00  0.00    -0.252 NA
ENDBRANCH  22  24
ENDBRANCH  14  16
ENDBRANCH   4  12
BRANCH   1  32
ATOM     31  N   LIG    1      -30.470  77.325  10.736  0.00  0.00    -0.249 NA
ATOM     32  C   LIG    1      -29.439  78.002  11.087  0.00  0.00    +0.236 C 
BRANCH  32  33
ATOM     33  O   LIG    1      -29.090  79.210  10.601  0.00  0.00    -0.491 OA
ATOM     34  H   LIG    1      -28.714  79.785  11.277  0.00  0.00    +0.294 HD
ENDBRANCH  32  33
BRANCH  31  35
ATOM     35  C   LIG    1      -31.449  77.849   9.785  0.00  0.00    +0.147 C 
BRANCH  35  36
ATOM     36  C   LIG    1      -32.771  78.109  10.504  0.00  0.00    +0.051 C 
BRANCH  36  37
ATOM     37  C   LIG    1      -32.810  79.470  11.186  0.00  0.00    +0.157 C 
BRANCH  37  38
ATOM     38  O   LIG    1      -32.209  79.384  12.470  0.00  0.00    -0.395 OA
ATOM     39  H   LIG    1      -31.245  79.426  12.334  0.00  0.00    +0.209 HD
ENDBRANCH  37  38
ENDBRANCH  36  37
ENDBRANCH  35  36
ENDBRANCH  31  35
ENDBRANCH   1  32
TORSDOF 10
ENDMDL
MODEL 9
REMARK VINA RESULT:      -5.8     12.870     19.412
REMARK  Name = pdb/CHEMBL3956535.pdb
REMARK                            x       y       z     vdW  Elec       q    Type
REMARK                         _______ _______ _______ _____ _____    ______ ____
ROOT
ATOM      1  C   LIG    1      -26.730  76.118  31.970  0.00  0.00    +0.149 A 
ATOM      2  N   LIG    1      -25.650  75.823  31.234  0.00  0.00    -0.160 NA
ATOM      3  N   LIG    1      -24.654  76.603  31.717  0.00  0.00    -0.218 N 
ATOM      4  C   LIG    1      -25.128  77.490  32.698  0.00  0.00    +0.129 A 
ATOM      5  C   LIG    1      -26.443  77.142  32.897  0.00  0.00    +0.078 A 
ENDROOT
BRANCH   3   6
ATOM      6  C   LIG    1      -23.341  76.444  31.189  0.00  0.00    +0.067 A 
ATOM      7  C   LIG    1      -22.350  75.771  31.905  0.00  0.00    +0.028 A 
ATOM      8  C   LIG    1      -21.054  75.661  31.392  0.00  0.00    +0.002 A 
ATOM      9  C   LIG    1      -20.747  76.202  30.146  0.00  0.00    +0.000 A 
ATOM     10  C   LIG    1      -21.742  76.822  29.395  0.00  0.00    +0.002 A 
ATOM     11  C   LIG    1      -23.040  76.933  29.906  0.00  0.00    +0.028 A 
ENDBRANCH   3   6
BRANCH   4  12
ATOM     12  N   LIG    1      -24.455  78.565  33.303  0.00  0.00    -0.266 N 
ATOM     13  H   LIG    1      -24.626  79.492  32.938  0.00  0.00    +0.157 HD
ATOM     14  C   LIG    1      -23.577  78.413  34.442  0.00  0.00    +0.251 C 
ATOM     15  O   LIG    1      -23.365  77.329  34.947  0.00  0.00    -0.270 OA
BRANCH  14  16
ATOM     16  C   LIG    1      -22.982  79.639  35.029  0.00  0.00    +0.056 A 
ATOM     17  C   LIG    1      -21.629  79.950  34.968  0.00  0.00    +0.056 A 
ATOM     18 CL   LIG    1      -20.430  78.893  34.337  0.00  0.00    -0.083 Cl
ATOM     19  C   LIG    1      -21.175  81.160  35.482  0.00  0.00    +0.059 A 
ATOM     20  C   LIG    1      -22.056  82.018  36.133  0.00  0.00    +0.134 A 
ATOM     21  F   LIG    1      -21.560  83.191  36.549  0.00  0.00    -0.205 F 
ATOM     22  C   LIG    1      -23.402  81.691  36.340  0.00  0.00    +0.039 A 
ATOM     23  C   LIG    1      -23.857  80.496  35.740  0.00  0.00    +0.027 A 
BRANCH  22  24
ATOM     24  C   LIG    1      -24.309  82.536  37.145  0.00  0.00    +0.109 A 
ATOM     25  C   LIG    1      -24.079  82.856  38.488  0.00  0.00    +0.149 A 
ATOM     26  F   LIG    1      -23.023  82.373  39.158  0.00  0.00    -0.203 F 
ATOM     27  C   LIG    1      -24.983  83.652  39.180  0.00  0.00    +0.042 A 
ATOM     28  C   LIG    1      -26.124  84.100  38.530  0.00  0.00    +0.023 A 
ATOM     29  C   LIG    1      -26.311  83.723  37.209  0.00  0.00    +0.111 A 
ATOM     30  N   LIG    1      -25.437  82.958  36.506  0.00  0.00    -0.252 NA
ENDBRANCH  22  24
ENDBRANCH  14  16
ENDBRANCH   4  12
BRANCH   1  32
ATOM     31  N   LIG    1      -28.188  74.249  32.136  0.00  0.00    -0.249 NA
ATOM     32  C   LIG    1      -28.016  75.461  31.755  0.00  0.00    +0.236 C 
BRANCH  32  33
ATOM     33  O   LIG    1      -28.936  76.229  31.139  0.00  0.00    -0.491 OA
ATOM     34  H   LIG    1      -28.987  76.055  30.192  0.00  0.00    +0.294 HD
ENDBRANCH  32  33
BRANCH  31  35
ATOM     35  C   LIG    1      -29.477  73.573  31.997  0.00  0.00    +0.147 C 
BRANCH  35  36
ATOM     36  C   LIG    1      -29.277  72.230  31.298  0.00  0.00    +0.051 C 
BRANCH  36  37
ATOM     37  C   LIG    1      -30.267  72.008  30.163  0.00  0.00    +0.157 C 
BRANCH  37  38
ATOM     38  O   LIG    1      -29.687  71.169  29.173  0.00  0.00    -0.395 OA
ATOM     39  H   LIG    1      -28.961  70.682  29.607  0.00  0.00    +0.209 HD
ENDBRANCH  37  38
ENDBRANCH  36  37
ENDBRANCH  35  36
ENDBRANCH  31  35
ENDBRANCH   1  32
TORSDOF 10
ENDMDL
