MODEL 1
REMARK VINA RESULT:      -7.1      0.000      0.000
REMARK  Name = pdb/CHEMBL3904254.pdb
REMARK                            x       y       z     vdW  Elec       q    Type
REMARK                         _______ _______ _______ _____ _____    ______ ____
ROOT
ATOM      1  C   LIG    1      -31.191  87.092  30.813  0.00  0.00    +0.149 A 
ATOM      2  N   LIG    1      -32.229  87.908  30.567  0.00  0.00    -0.160 NA
ATOM      3  N   LIG    1      -33.108  87.156  29.852  0.00  0.00    -0.218 N 
ATOM      4  C   LIG    1      -32.675  85.822  29.713  0.00  0.00    +0.129 A 
ATOM      5  C   LIG    1      -31.406  85.803  30.265  0.00  0.00    +0.078 A 
ENDROOT
BRANCH   3   6
ATOM      6  C   LIG    1      -34.319  87.745  29.387  0.00  0.00    +0.067 A 
ATOM      7  C   LIG    1      -35.549  87.426  29.984  0.00  0.00    +0.028 A 
ATOM      8  C   LIG    1      -36.734  87.959  29.460  0.00  0.00    +0.002 A 
ATOM      9  C   LIG    1      -36.695  88.839  28.379  0.00  0.00    +0.000 A 
ATOM     10  C   LIG    1      -35.471  89.207  27.831  0.00  0.00    +0.002 A 
ATOM     11  C   LIG    1      -34.291  88.669  28.341  0.00  0.00    +0.028 A 
ENDBRANCH   3   6
BRANCH   4  12
ATOM     12  N   LIG    1      -33.413  84.729  29.195  0.00  0.00    -0.266 N 
ATOM     13  H   LIG    1      -33.362  84.562  28.197  0.00  0.00    +0.157 HD
ATOM     14  C   LIG    1      -34.284  83.881  29.961  0.00  0.00    +0.251 C 
ATOM     15  O   LIG    1      -34.467  84.118  31.153  0.00  0.00    -0.270 OA
BRANCH  14  16
ATOM     16  C   LIG    1      -35.020  82.758  29.311  0.00  0.00    +0.056 A 
ATOM     17  C   LIG    1      -36.357  82.789  28.896  0.00  0.00    +0.056 A 
ATOM     18 CL   LIG    1      -37.322  84.211  28.950  0.00  0.00    -0.083 Cl
ATOM     19  C   LIG    1      -36.938  81.658  28.303  0.00  0.00    +0.059 A 
ATOM     20  C   LIG    1      -36.169  80.525  28.039  0.00  0.00    +0.134 A 
ATOM     21  F   LIG    1      -36.784  79.477  27.470  0.00  0.00    -0.205 F 
ATOM     22  C   LIG    1      -34.802  80.485  28.326  0.00  0.00    +0.036 A 
ATOM     23  C   LIG    1      -34.268  81.605  29.009  0.00  0.00    +0.027 A 
BRANCH  22  24
ATOM     24  C   LIG    1      -33.915  79.379  27.898  0.00  0.00    +0.074 A 
ATOM     25  N   LIG    1      -33.182  79.626  26.782  0.00  0.00    -0.255 NA
ATOM     26  C   LIG    1      -32.416  78.624  26.288  0.00  0.00    +0.111 A 
ATOM     27  C   LIG    1      -32.338  77.363  26.851  0.00  0.00    +0.020 A 
ATOM     28  C   LIG    1      -33.090  77.113  27.989  0.00  0.00    +0.004 A 
ATOM     29  C   LIG    1      -33.889  78.127  28.517  0.00  0.00    +0.028 A 
ENDBRANCH  22  24
ENDBRANCH  14  16
ENDBRANCH   4  12
BRANCH   1  30
ATOM     30  C   LIG    1      -30.078  87.577  31.627  0.00  0.00    +0.236 C 
ATOM     31  N   LIG    1      -30.083  87.485  32.909  0.00  0.00    -0.243 NA
BRANCH  30  32
ATOM     32  O   LIG    1      -29.084  88.158  30.912  0.00  0.00    -0.491 OA
ATOM     33  H   LIG    1      -28.260  87.651  31.049  0.00  0.00    +0.294 HD
ENDBRANCH  30  32
BRANCH  31  34
ATOM     34  C   LIG    1      -28.927  88.055  33.599  0.00  0.00    +0.201 C 
BRANCH  34  35
ATOM     35  C   LIG    1      -28.254  86.986  34.362  0.00  0.00    +0.077 A 
ATOM     36  N   LIG    1      -28.604  85.667  34.301  0.00  0.00    -0.260 N 
ATOM     37  H   LIG    1      -29.327  85.213  33.754  0.00  0.00    +0.190 HD
ATOM     38  N   LIG    1      -27.839  84.920  35.111  0.00  0.00    -0.068 NA
ATOM     39  N   LIG    1      -26.977  85.732  35.708  0.00  0.00    -0.138 NA
ATOM     40  C   LIG    1      -27.216  87.000  35.264  0.00  0.00    +0.161 A 
ENDBRANCH  34  35
ENDBRANCH  31  34
ENDBRANCH   1  30
TORSDOF 8
ENDMDL
MODEL 2
REMARK VINA RESULT:      -7.0      7.441     10.035
REMARK  Name = pdb/CHEMBL3904254.pdb
REMARK                            x       y       z     vdW  Elec       q    Type
REMARK                         _______ _______ _______ _____ _____    ______ ____
ROOT
ATOM      1  C   LIG    1      -32.778  75.683  29.200  0.00  0.00    +0.149 A 
ATOM      2  N   LIG    1      -33.178  76.958  29.335  0.00  0.00    -0.160 NA
ATOM      3  N   LIG    1      -34.153  77.122  28.401  0.00  0.00    -0.218 N 
ATOM      4  C   LIG    1      -34.445  75.923  27.722  0.00  0.00    +0.129 A 
ATOM      5  C   LIG    1      -33.506  75.017  28.183  0.00  0.00    +0.078 A 
ENDROOT
BRANCH   3   6
ATOM      6  C   LIG    1      -34.770  78.397  28.249  0.00  0.00    +0.067 A 
ATOM      7  C   LIG    1      -36.126  78.582  28.562  0.00  0.00    +0.028 A 
ATOM      8  C   LIG    1      -36.730  79.824  28.332  0.00  0.00    +0.002 A 
ATOM      9  C   LIG    1      -35.981  80.891  27.836  0.00  0.00    +0.000 A 
ATOM     10  C   LIG    1      -34.623  80.727  27.589  0.00  0.00    +0.002 A 
ATOM     11  C   LIG    1      -34.022  79.489  27.805  0.00  0.00    +0.028 A 
ENDBRANCH   3   6
BRANCH   4  12
ATOM     12  N   LIG    1      -35.517  75.682  26.827  0.00  0.00    -0.266 N 
ATOM     13  H   LIG    1      -35.366  75.901  25.849  0.00  0.00    +0.157 HD
ATOM     14  C   LIG    1      -36.823  75.217  27.204  0.00  0.00    +0.251 C 
ATOM     15  O   LIG    1      -37.087  75.049  28.392  0.00  0.00    -0.270 OA
BRANCH  14  16
ATOM     16  C   LIG    1      -37.883  75.002  26.176  0.00  0.00    +0.056 A 
ATOM     17  C   LIG    1      -38.617  76.008  25.536  0.00  0.00    +0.056 A 
ATOM     18 CL   LIG    1      -38.293  77.683  25.749  0.00  0.00    -0.083 Cl
ATOM     19  C   LIG    1      -39.597  75.674  24.590  0.00  0.00    +0.059 A 
ATOM     20  C   LIG    1      -39.788  74.344  24.211  0.00  0.00    +0.134 A 
ATOM     21  F   LIG    1      -40.741  74.090  23.302  0.00  0.00    -0.205 F 
ATOM     22  C   LIG    1      -39.001  73.314  24.733  0.00  0.00    +0.036 A 
ATOM     23  C   LIG    1      -38.087  73.673  25.753  0.00  0.00    +0.027 A 
BRANCH  22  24
ATOM     24  C   LIG    1      -39.045  71.923  24.227  0.00  0.00    +0.074 A 
ATOM     25  N   LIG    1      -37.852  71.275  24.214  0.00  0.00    -0.255 NA
ATOM     26  C   LIG    1      -37.809  70.031  23.682  0.00  0.00    +0.111 A 
ATOM     27  C   LIG    1      -38.907  69.381  23.147  0.00  0.00    +0.020 A 
ATOM     28  C   LIG    1      -40.123  70.047  23.158  0.00  0.00    +0.004 A 
ATOM     29  C   LIG    1      -40.194  71.331  23.698  0.00  0.00    +0.028 A 
ENDBRANCH  22  24
ENDBRANCH  14  16
ENDBRANCH   4  12
BRANCH   1  30
ATOM     30  C   LIG    1      -31.763  75.152  30.109  0.00  0.00    +0.236 C 
ATOM     31  N   LIG    1      -31.447  75.754  31.200  0.00  0.00    -0.243 NA
BRANCH  30  32
ATOM     32  O   LIG    1      -31.173  74.012  29.673  0.00  0.00    -0.491 OA
ATOM     33  H   LIG    1      -31.795  73.269  29.797  0.00  0.00    +0.294 HD
ENDBRANCH  30  32
BRANCH  31  34
ATOM     34  C   LIG    1      -30.382  75.137  31.989  0.00  0.00    +0.201 C 
BRANCH  34  35
ATOM     35  C   LIG    1      -29.146  75.925  31.819  0.00  0.00    +0.077 A 
ATOM     36  N   LIG    1      -29.125  77.248  31.480  0.00  0.00    -0.260 N 
ATOM     37  H   LIG    1      -29.894  77.886  31.307  0.00  0.00    +0.190 HD
ATOM     38  N   LIG    1      -27.868  77.706  31.375  0.00  0.00    -0.068 NA
ATOM     39  N   LIG    1      -27.051  76.697  31.647  0.00  0.00    -0.138 NA
ATOM     40  C   LIG    1      -27.814  75.600  31.920  0.00  0.00    +0.161 A 
ENDBRANCH  34  35
ENDBRANCH  31  34
ENDBRANCH   1  30
TORSDOF 8
ENDMDL
MODEL 3
REMARK VINA RESULT:      -7.0      7.317      9.625
REMARK  Name = pdb/CHEMBL3904254.pdb
REMARK                            x       y       z     vdW  Elec       q    Type
REMARK                         _______ _______ _______ _____ _____    ______ ____
ROOT
ATOM      1  C   LIG    1      -33.065  76.031  28.826  0.00  0.00    +0.149 A 
ATOM      2  N   LIG    1      -33.429  77.286  29.134  0.00  0.00    -0.160 NA
ATOM      3  N   LIG    1      -34.392  77.606  28.228  0.00  0.00    -0.218 N 
ATOM      4  C   LIG    1      -34.711  76.522  27.387  0.00  0.00    +0.129 A 
ATOM      5  C   LIG    1      -33.802  75.534  27.724  0.00  0.00    +0.078 A 
ENDROOT
BRANCH   3   6
ATOM      6  C   LIG    1      -34.970  78.908  28.251  0.00  0.00    +0.067 A 
ATOM      7  C   LIG    1      -34.348  79.983  27.597  0.00  0.00    +0.028 A 
ATOM      8  C   LIG    1      -34.895  81.269  27.698  0.00  0.00    +0.002 A 
ATOM      9  C   LIG    1      -36.079  81.478  28.406  0.00  0.00    +0.000 A 
ATOM     10  C   LIG    1      -36.731  80.402  28.997  0.00  0.00    +0.002 A 
ATOM     11  C   LIG    1      -36.183  79.124  28.910  0.00  0.00    +0.028 A 
ENDBRANCH   3   6
BRANCH   4  12
ATOM     12  N   LIG    1      -35.781  76.439  26.462  0.00  0.00    -0.266 N 
ATOM     13  H   LIG    1      -35.570  76.614  25.487  0.00  0.00    +0.157 HD
ATOM     14  C   LIG    1      -37.155  76.193  26.804  0.00  0.00    +0.251 C 
ATOM     15  O   LIG    1      -37.476  76.089  27.986  0.00  0.00    -0.270 OA
BRANCH  14  16
ATOM     16  C   LIG    1      -38.205  76.131  25.746  0.00  0.00    +0.056 A 
ATOM     17  C   LIG    1      -38.843  74.970  25.295  0.00  0.00    +0.056 A 
ATOM     18 CL   LIG    1      -38.600  73.428  26.014  0.00  0.00    -0.083 Cl
ATOM     19  C   LIG    1      -39.812  75.044  24.283  0.00  0.00    +0.059 A 
ATOM     20  C   LIG    1      -40.214  76.282  23.781  0.00  0.00    +0.134 A 
ATOM     21  F   LIG    1      -41.145  76.286  22.815  0.00  0.00    -0.205 F 
ATOM     22  C   LIG    1      -39.694  77.479  24.281  0.00  0.00    +0.036 A 
ATOM     23  C   LIG    1      -38.653  77.366  25.233  0.00  0.00    +0.027 A 
BRANCH  22  24
ATOM     24  C   LIG    1      -40.222  78.812  23.908  0.00  0.00    +0.074 A 
ATOM     25  N   LIG    1      -39.310  79.666  23.377  0.00  0.00    -0.255 NA
ATOM     26  C   LIG    1      -39.708  80.930  23.096  0.00  0.00    +0.111 A 
ATOM     27  C   LIG    1      -40.989  81.403  23.320  0.00  0.00    +0.020 A 
ATOM     28  C   LIG    1      -41.916  80.529  23.866  0.00  0.00    +0.004 A 
ATOM     29  C   LIG    1      -41.531  79.223  24.167  0.00  0.00    +0.028 A 
ENDBRANCH  22  24
ENDBRANCH  14  16
ENDBRANCH   4  12
BRANCH   1  30
ATOM     30  C   LIG    1      -32.074  75.350  29.658  0.00  0.00    +0.236 C 
ATOM     31  N   LIG    1      -31.587  75.893  30.717  0.00  0.00    -0.243 NA
BRANCH  30  32
ATOM     32  O   LIG    1      -31.698  74.136  29.187  0.00  0.00    -0.491 OA
ATOM     33  H   LIG    1      -32.181  73.444  29.680  0.00  0.00    +0.294 HD
ENDBRANCH  30  32
BRANCH  31  34
ATOM     34  C   LIG    1      -30.568  75.120  31.426  0.00  0.00    +0.201 C 
BRANCH  34  35
ATOM     35  C   LIG    1      -29.333  75.922  31.507  0.00  0.00    +0.077 A 
ATOM     36  N   LIG    1      -29.275  77.262  31.251  0.00  0.00    -0.260 N 
ATOM     37  H   LIG    1      -30.013  77.905  30.989  0.00  0.00    +0.190 HD
ATOM     38  N   LIG    1      -28.024  77.731  31.381  0.00  0.00    -0.068 NA
ATOM     39  N   LIG    1      -27.249  76.712  31.727  0.00  0.00    -0.138 NA
ATOM     40  C   LIG    1      -28.031  75.597  31.808  0.00  0.00    +0.161 A 
ENDBRANCH  34  35
ENDBRANCH  31  34
ENDBRANCH   1  30
TORSDOF 8
ENDMDL
MODEL 4
REMARK VINA RESULT:      -6.7      6.001     10.021
REMARK  Name = pdb/CHEMBL3904254.pdb
REMARK                            x       y       z     vdW  Elec       q    Type
REMARK                         _______ _______ _______ _____ _____    ______ ____
ROOT
ATOM      1  C   LIG    1      -36.361  80.076  27.693  0.00  0.00    +0.149 A 
ATOM      2  N   LIG    1      -35.439  79.165  28.045  0.00  0.00    -0.160 NA
ATOM      3  N   LIG    1      -36.023  77.961  27.802  0.00  0.00    -0.218 N 
ATOM      4  C   LIG    1      -37.294  78.097  27.209  0.00  0.00    +0.129 A 
ATOM      5  C   LIG    1      -37.540  79.458  27.210  0.00  0.00    +0.078 A 
ENDROOT
BRANCH   3   6
ATOM      6  C   LIG    1      -35.316  76.764  28.112  0.00  0.00    +0.067 A 
ATOM      7  C   LIG    1      -35.718  75.946  29.180  0.00  0.00    +0.028 A 
ATOM      8  C   LIG    1      -34.962  74.816  29.514  0.00  0.00    +0.002 A 
ATOM      9  C   LIG    1      -33.838  74.472  28.763  0.00  0.00    +0.000 A 
ATOM     10  C   LIG    1      -33.478  75.244  27.664  0.00  0.00    +0.002 A 
ATOM     11  C   LIG    1      -34.220  76.377  27.337  0.00  0.00    +0.028 A 
ENDBRANCH   3   6
BRANCH   4  12
ATOM     12  N   LIG    1      -38.099  77.069  26.658  0.00  0.00    -0.266 N 
ATOM     13  H   LIG    1      -38.870  76.729  27.220  0.00  0.00    +0.157 HD
ATOM     14  C   LIG    1      -37.869  76.423  25.395  0.00  0.00    +0.251 C 
ATOM     15  O   LIG    1      -36.879  76.723  24.732  0.00  0.00    -0.270 OA
BRANCH  14  16
ATOM     16  C   LIG    1      -38.780  75.344  24.913  0.00  0.00    +0.056 A 
ATOM     17  C   LIG    1      -39.927  75.531  24.134  0.00  0.00    +0.056 A 
ATOM     18 CL   LIG    1      -40.382  77.058  23.488  0.00  0.00    -0.083 Cl
ATOM     19  C   LIG    1      -40.708  74.431  23.751  0.00  0.00    +0.059 A 
ATOM     20  C   LIG    1      -40.303  73.134  24.066  0.00  0.00    +0.134 A 
ATOM     21  F   LIG    1      -41.093  72.124  23.672  0.00  0.00    -0.205 F 
ATOM     22  C   LIG    1      -39.104  72.885  24.741  0.00  0.00    +0.036 A 
ATOM     23  C   LIG    1      -38.388  74.019  25.194  0.00  0.00    +0.027 A 
BRANCH  22  24
ATOM     24  C   LIG    1      -38.548  71.526  24.932  0.00  0.00    +0.074 A 
ATOM     25  N   LIG    1      -38.637  71.039  26.197  0.00  0.00    -0.255 NA
ATOM     26  C   LIG    1      -38.069  69.838  26.459  0.00  0.00    +0.111 A 
ATOM     27  C   LIG    1      -37.400  69.078  25.516  0.00  0.00    +0.020 A 
ATOM     28  C   LIG    1      -37.307  69.580  24.226  0.00  0.00    +0.004 A 
ATOM     29  C   LIG    1      -37.882  70.816  23.931  0.00  0.00    +0.028 A 
ENDBRANCH  22  24
ENDBRANCH  14  16
ENDBRANCH   4  12
BRANCH   1  30
ATOM     30  C   LIG    1      -36.027  81.498  27.773  0.00  0.00    +0.236 C 
ATOM     31  N   LIG    1      -36.511  82.258  28.690  0.00  0.00    -0.243 NA
BRANCH  30  32
ATOM     32  O   LIG    1      -35.211  81.930  26.781  0.00  0.00    -0.491 OA
ATOM     33  H   LIG    1      -34.535  81.245  26.609  0.00  0.00    +0.294 HD
ENDBRANCH  30  32
BRANCH  31  34
ATOM     34  C   LIG    1      -36.132  83.669  28.621  0.00  0.00    +0.201 C 
BRANCH  34  35
ATOM     35  C   LIG    1      -34.933  83.880  29.454  0.00  0.00    +0.077 A 
ATOM     36  N   LIG    1      -33.903  84.709  29.113  0.00  0.00    -0.260 N 
ATOM     37  H   LIG    1      -33.784  85.294  28.294  0.00  0.00    +0.190 HD
ATOM     38  N   LIG    1      -32.935  84.695  30.044  0.00  0.00    -0.068 NA
ATOM     39  N   LIG    1      -33.318  83.866  31.006  0.00  0.00    -0.138 NA
ATOM     40  C   LIG    1      -34.537  83.357  30.663  0.00  0.00    +0.161 A 
ENDBRANCH  34  35
ENDBRANCH  31  34
ENDBRANCH   1  30
TORSDOF 8
ENDMDL
MODEL 5
REMARK VINA RESULT:      -6.6     18.536     20.112
REMARK  Name = pdb/CHEMBL3904254.pdb
REMARK                            x       y       z     vdW  Elec       q    Type
REMARK                         _______ _______ _______ _____ _____    ______ ____
ROOT
ATOM      1  C   LIG    1      -22.178  82.564  15.436  0.00  0.00    +0.149 A 
ATOM      2  N   LIG    1      -20.900  82.155  15.380  0.00  0.00    -0.160 NA
ATOM      3  N   LIG    1      -20.953  80.807  15.552  0.00  0.00    -0.218 N 
ATOM      4  C   LIG    1      -22.278  80.334  15.632  0.00  0.00    +0.129 A 
ATOM      5  C   LIG    1      -23.061  81.475  15.635  0.00  0.00    +0.078 A 
ENDROOT
BRANCH   3   6
ATOM      6  C   LIG    1      -19.743  80.056  15.587  0.00  0.00    +0.067 A 
ATOM      7  C   LIG    1      -18.747  80.252  14.616  0.00  0.00    +0.028 A 
ATOM      8  C   LIG    1      -17.600  79.449  14.626  0.00  0.00    +0.002 A 
ATOM      9  C   LIG    1      -17.420  78.488  15.619  0.00  0.00    +0.000 A 
ATOM     10  C   LIG    1      -18.375  78.339  16.619  0.00  0.00    +0.002 A 
ATOM     11  C   LIG    1      -19.524  79.127  16.606  0.00  0.00    +0.028 A 
ENDBRANCH   3   6
BRANCH   4  12
ATOM     12  N   LIG    1      -22.710  78.984  15.627  0.00  0.00    -0.266 N 
ATOM     13  H   LIG    1      -23.101  78.616  16.486  0.00  0.00    +0.157 HD
ATOM     14  C   LIG    1      -22.573  78.075  14.523  0.00  0.00    +0.251 C 
ATOM     15  O   LIG    1      -22.000  78.444  13.501  0.00  0.00    -0.270 OA
BRANCH  14  16
ATOM     16  C   LIG    1      -23.059  76.668  14.629  0.00  0.00    +0.056 A 
ATOM     17  C   LIG    1      -23.863  76.009  13.691  0.00  0.00    +0.056 A 
ATOM     18 CL   LIG    1      -24.299  76.701  12.179  0.00  0.00    -0.083 Cl
ATOM     19  C   LIG    1      -24.262  74.682  13.912  0.00  0.00    +0.059 A 
ATOM     20  C   LIG    1      -23.790  73.978  15.020  0.00  0.00    +0.134 A 
ATOM     21  F   LIG    1      -24.208  72.713  15.175  0.00  0.00    -0.205 F 
ATOM     22  C   LIG    1      -22.891  74.552  15.924  0.00  0.00    +0.036 A 
ATOM     23  C   LIG    1      -22.583  75.920  15.724  0.00  0.00    +0.027 A 
BRANCH  22  24
ATOM     24  C   LIG    1      -22.226  73.788  17.003  0.00  0.00    +0.074 A 
ATOM     25  N   LIG    1      -20.941  73.430  16.751  0.00  0.00    -0.255 NA
ATOM     26  C   LIG    1      -20.305  72.654  17.660  0.00  0.00    +0.111 A 
ATOM     27  C   LIG    1      -20.887  72.202  18.831  0.00  0.00    +0.020 A 
ATOM     28  C   LIG    1      -22.200  72.566  19.084  0.00  0.00    +0.004 A 
ATOM     29  C   LIG    1      -22.879  73.362  18.162  0.00  0.00    +0.028 A 
ENDBRANCH  22  24
ENDBRANCH  14  16
ENDBRANCH   4  12
BRANCH   1  30
ATOM     30  C   LIG    1      -22.486  83.978  15.224  0.00  0.00    +0.236 C 
ATOM     31  N   LIG    1      -22.524  84.495  14.048  0.00  0.00    -0.243 NA
BRANCH  30  32
ATOM     32  O   LIG    1      -22.679  84.678  16.367  0.00  0.00    -0.491 OA
ATOM     33  H   LIG    1      -23.228  85.462  16.168  0.00  0.00    +0.294 HD
ENDBRANCH  30  32
BRANCH  31  34
ATOM     34  C   LIG    1      -22.796  85.930  13.985  0.00  0.00    +0.201 C 
BRANCH  34  35
ATOM     35  C   LIG    1      -21.517  86.651  13.841  0.00  0.00    +0.077 A 
ATOM     36  N   LIG    1      -20.559  86.709  14.813  0.00  0.00    -0.260 N 
ATOM     37  H   LIG    1      -20.546  86.291  15.736  0.00  0.00    +0.190 HD
ATOM     38  N   LIG    1      -19.509  87.446  14.421  0.00  0.00    -0.068 NA
ATOM     39  N   LIG    1      -19.759  87.876  13.191  0.00  0.00    -0.138 NA
ATOM     40  C   LIG    1      -20.982  87.401  12.819  0.00  0.00    +0.161 A 
ENDBRANCH  34  35
ENDBRANCH  31  34
ENDBRANCH   1  30
TORSDOF 8
ENDMDL
MODEL 6
REMARK VINA RESULT:      -6.5      8.884     15.956
REMARK  Name = pdb/CHEMBL3904254.pdb
REMARK                            x       y       z     vdW  Elec       q    Type
REMARK                         _______ _______ _______ _____ _____    ______ ____
ROOT
ATOM      1  C   LIG    1      -36.338  69.492  25.052  0.00  0.00    +0.149 A 
ATOM      2  N   LIG    1      -37.275  70.454  25.065  0.00  0.00    -0.160 NA
ATOM      3  N   LIG    1      -36.731  71.467  25.792  0.00  0.00    -0.218 N 
ATOM      4  C   LIG    1      -35.404  71.191  26.176  0.00  0.00    +0.129 A 
ATOM      5  C   LIG    1      -35.180  69.889  25.765  0.00  0.00    +0.078 A 
ENDROOT
BRANCH   3   6
ATOM      6  C   LIG    1      -37.496  72.644  26.036  0.00  0.00    +0.067 A 
ATOM      7  C   LIG    1      -37.865  73.493  24.981  0.00  0.00    +0.028 A 
ATOM      8  C   LIG    1      -38.551  74.684  25.254  0.00  0.00    +0.002 A 
ATOM      9  C   LIG    1      -38.908  75.007  26.563  0.00  0.00    +0.000 A 
ATOM     10  C   LIG    1      -38.602  74.133  27.600  0.00  0.00    +0.002 A 
ATOM     11  C   LIG    1      -37.908  72.955  27.334  0.00  0.00    +0.028 A 
ENDBRANCH   3   6
BRANCH   4  12
ATOM     12  N   LIG    1      -34.481  72.084  26.776  0.00  0.00    -0.266 N 
ATOM     13  H   LIG    1      -33.828  72.559  26.165  0.00  0.00    +0.157 HD
ATOM     14  C   LIG    1      -34.351  72.316  28.188  0.00  0.00    +0.251 C 
ATOM     15  O   LIG    1      -35.044  71.675  28.974  0.00  0.00    -0.270 OA
BRANCH  14  16
ATOM     16  C   LIG    1      -33.337  73.277  28.713  0.00  0.00    +0.056 A 
ATOM     17  C   LIG    1      -32.177  72.936  29.418  0.00  0.00    +0.056 A 
ATOM     18 CL   LIG    1      -31.672  71.311  29.662  0.00  0.00    -0.083 Cl
ATOM     19  C   LIG    1      -31.304  73.938  29.868  0.00  0.00    +0.059 A 
ATOM     20  C   LIG    1      -31.536  75.275  29.541  0.00  0.00    +0.134 A 
ATOM     21  F   LIG    1      -30.664  76.185  30.001  0.00  0.00    -0.205 F 
ATOM     22  C   LIG    1      -32.615  75.656  28.740  0.00  0.00    +0.036 A 
ATOM     23  C   LIG    1      -33.527  74.634  28.382  0.00  0.00    +0.027 A 
BRANCH  22  24
ATOM     24  C   LIG    1      -32.794  77.031  28.219  0.00  0.00    +0.074 A 
ATOM     25  N   LIG    1      -33.659  77.806  28.923  0.00  0.00    -0.255 NA
ATOM     26  C   LIG    1      -33.934  79.045  28.450  0.00  0.00    +0.111 A 
ATOM     27  C   LIG    1      -33.388  79.567  27.291  0.00  0.00    +0.020 A 
ATOM     28  C   LIG    1      -32.508  78.772  26.573  0.00  0.00    +0.004 A 
ATOM     29  C   LIG    1      -32.210  77.491  27.037  0.00  0.00    +0.028 A 
ENDBRANCH  22  24
ENDBRANCH  14  16
ENDBRANCH   4  12
BRANCH   1  30
ATOM     30  C   LIG    1      -36.581  68.267  24.292  0.00  0.00    +0.236 C 
ATOM     31  N   LIG    1      -36.135  68.110  23.097  0.00  0.00    -0.243 NA
BRANCH  30  32
ATOM     32  O   LIG    1      -37.344  67.356  24.943  0.00  0.00    -0.491 OA
ATOM     33  H   LIG    1      -37.878  66.866  24.287  0.00  0.00    +0.294 HD
ENDBRANCH  30  32
BRANCH  31  34
ATOM     34  C   LIG    1      -36.494  66.856  22.436  0.00  0.00    +0.201 C 
BRANCH  34  35
ATOM     35  C   LIG    1      -35.311  66.336  21.726  0.00  0.00    +0.077 A 
ATOM     36  N   LIG    1      -34.126  67.009  21.621  0.00  0.00    -0.260 N 
ATOM     37  H   LIG    1      -33.859  67.913  21.993  0.00  0.00    +0.190 HD
ATOM     38  N   LIG    1      -33.230  66.312  20.906  0.00  0.00    -0.068 NA
ATOM     39  N   LIG    1      -33.808  65.177  20.537  0.00  0.00    -0.138 NA
ATOM     40  C   LIG    1      -35.081  65.174  21.028  0.00  0.00    +0.161 A 
ENDBRANCH  34  35
ENDBRANCH  31  34
ENDBRANCH   1  30
TORSDOF 8
ENDMDL
MODEL 7
REMARK VINA RESULT:      -6.4      8.405     11.281
REMARK  Name = pdb/CHEMBL3904254.pdb
REMARK                            x       y       z     vdW  Elec       q    Type
REMARK                         _______ _______ _______ _____ _____    ______ ____
ROOT
ATOM      1  C   LIG    1      -32.247  74.166  29.888  0.00  0.00    +0.149 A 
ATOM      2  N   LIG    1      -32.197  75.504  29.786  0.00  0.00    -0.160 NA
ATOM      3  N   LIG    1      -33.057  75.813  28.778  0.00  0.00    -0.218 N 
ATOM      4  C   LIG    1      -33.730  74.677  28.287  0.00  0.00    +0.129 A 
ATOM      5  C   LIG    1      -33.151  73.609  28.950  0.00  0.00    +0.078 A 
ENDROOT
BRANCH   3   6
ATOM      6  C   LIG    1      -33.211  77.172  28.380  0.00  0.00    +0.067 A 
ATOM      7  C   LIG    1      -34.192  77.987  28.966  0.00  0.00    +0.028 A 
ATOM      8  C   LIG    1      -34.375  79.297  28.505  0.00  0.00    +0.002 A 
ATOM      9  C   LIG    1      -33.558  79.810  27.498  0.00  0.00    +0.000 A 
ATOM     10  C   LIG    1      -32.543  79.025  26.963  0.00  0.00    +0.002 A 
ATOM     11  C   LIG    1      -32.366  77.718  27.411  0.00  0.00    +0.028 A 
ENDBRANCH   3   6
BRANCH   4  12
ATOM     12  N   LIG    1      -34.816  74.649  27.378  0.00  0.00    -0.266 N 
ATOM     13  H   LIG    1      -34.598  74.553  26.393  0.00  0.00    +0.157 HD
ATOM     14  C   LIG    1      -36.199  74.814  27.733  0.00  0.00    +0.251 C 
ATOM     15  O   LIG    1      -36.501  75.047  28.900  0.00  0.00    -0.270 OA
BRANCH  14  16
ATOM     16  C   LIG    1      -37.265  74.772  26.689  0.00  0.00    +0.056 A 
ATOM     17  C   LIG    1      -37.917  75.884  26.143  0.00  0.00    +0.056 A 
ATOM     18 CL   LIG    1      -37.471  77.504  26.506  0.00  0.00    -0.083 Cl
ATOM     19  C   LIG    1      -38.913  75.710  25.170  0.00  0.00    +0.059 A 
ATOM     20  C   LIG    1      -39.200  74.439  24.673  0.00  0.00    +0.134 A 
ATOM     21  F   LIG    1      -40.163  74.340  23.744  0.00  0.00    -0.205 F 
ATOM     22  C   LIG    1      -38.496  73.310  25.100  0.00  0.00    +0.036 A 
ATOM     23  C   LIG    1      -37.564  73.506  26.148  0.00  0.00    +0.027 A 
BRANCH  22  24
ATOM     24  C   LIG    1      -38.641  71.977  24.470  0.00  0.00    +0.074 A 
ATOM     25  N   LIG    1      -37.479  71.301  24.276  0.00  0.00    -0.255 NA
ATOM     26  C   LIG    1      -37.534  70.114  23.626  0.00  0.00    +0.111 A 
ATOM     27  C   LIG    1      -38.701  69.551  23.144  0.00  0.00    +0.020 A 
ATOM     28  C   LIG    1      -39.885  70.246  23.340  0.00  0.00    +0.004 A 
ATOM     29  C   LIG    1      -39.857  71.472  24.005  0.00  0.00    +0.028 A 
ENDBRANCH  22  24
ENDBRANCH  14  16
ENDBRANCH   4  12
BRANCH   1  30
ATOM     30  C   LIG    1      -31.473  73.499  30.934  0.00  0.00    +0.236 C 
ATOM     31  N   LIG    1      -30.349  73.965  31.349  0.00  0.00    -0.243 NA
BRANCH  30  32
ATOM     32  O   LIG    1      -32.027  72.346  31.380  0.00  0.00    -0.491 OA
ATOM     33  H   LIG    1      -31.792  72.227  32.321  0.00  0.00    +0.294 HD
ENDBRANCH  30  32
BRANCH  31  34
ATOM     34  C   LIG    1      -29.659  73.171  32.364  0.00  0.00    +0.201 C 
BRANCH  34  35
ATOM     35  C   LIG    1      -28.527  72.468  31.731  0.00  0.00    +0.077 A 
ATOM     36  N   LIG    1      -27.245  72.939  31.722  0.00  0.00    -0.260 N 
ATOM     37  H   LIG    1      -26.862  73.786  32.126  0.00  0.00    +0.190 HD
ATOM     38  N   LIG    1      -26.424  72.109  31.060  0.00  0.00    -0.068 NA
ATOM     39  N   LIG    1      -27.151  71.085  30.632  0.00  0.00    -0.138 NA
ATOM     40  C   LIG    1      -28.439  71.288  31.032  0.00  0.00    +0.161 A 
ENDBRANCH  34  35
ENDBRANCH  31  34
ENDBRANCH   1  30
TORSDOF 8
ENDMDL
MODEL 8
REMARK VINA RESULT:      -6.4     18.506     20.351
REMARK  Name = pdb/CHEMBL3904254.pdb
REMARK                            x       y       z     vdW  Elec       q    Type
REMARK                         _______ _______ _______ _____ _____    ______ ____
ROOT
ATOM      1  C   LIG    1      -20.397  82.139  14.365  0.00  0.00    +0.149 A 
ATOM      2  N   LIG    1      -21.667  81.711  14.272  0.00  0.00    -0.160 NA
ATOM      3  N   LIG    1      -21.635  80.417  14.693  0.00  0.00    -0.218 N 
ATOM      4  C   LIG    1      -20.355  80.037  15.142  0.00  0.00    +0.129 A 
ATOM      5  C   LIG    1      -19.544  81.121  14.859  0.00  0.00    +0.078 A 
ENDROOT
BRANCH   3   6
ATOM      6  C   LIG    1      -22.832  79.646  14.678  0.00  0.00    +0.067 A 
ATOM      7  C   LIG    1      -23.114  78.775  13.614  0.00  0.00    +0.028 A 
ATOM      8  C   LIG    1      -24.333  78.085  13.583  0.00  0.00    +0.002 A 
ATOM      9  C   LIG    1      -25.248  78.224  14.626  0.00  0.00    +0.000 A 
ATOM     10  C   LIG    1      -24.940  79.035  15.713  0.00  0.00    +0.002 A 
ATOM     11  C   LIG    1      -23.735  79.733  15.740  0.00  0.00    +0.028 A 
ENDBRANCH   3   6
BRANCH   4  12
ATOM     12  N   LIG    1      -20.001  78.839  15.812  0.00  0.00    -0.266 N 
ATOM     13  H   LIG    1      -19.870  78.887  16.816  0.00  0.00    +0.157 HD
ATOM     14  C   LIG    1      -19.746  77.577  15.174  0.00  0.00    +0.251 C 
ATOM     15  O   LIG    1      -19.780  77.500  13.948  0.00  0.00    -0.270 OA
BRANCH  14  16
ATOM     16  C   LIG    1      -19.373  76.377  15.978  0.00  0.00    +0.056 A 
ATOM     17  C   LIG    1      -18.203  76.231  16.733  0.00  0.00    +0.056 A 
ATOM     18 CL   LIG    1      -17.068  77.502  16.958  0.00  0.00    -0.083 Cl
ATOM     19  C   LIG    1      -17.965  75.043  17.441  0.00  0.00    +0.059 A 
ATOM     20  C   LIG    1      -18.928  74.035  17.474  0.00  0.00    +0.134 A 
ATOM     21  F   LIG    1      -18.639  72.925  18.169  0.00  0.00    -0.205 F 
ATOM     22  C   LIG    1      -20.162  74.181  16.835  0.00  0.00    +0.036 A 
ATOM     23  C   LIG    1      -20.334  75.348  16.053  0.00  0.00    +0.027 A 
BRANCH  22  24
ATOM     24  C   LIG    1      -21.278  73.220  16.995  0.00  0.00    +0.074 A 
ATOM     25  N   LIG    1      -21.516  72.427  15.918  0.00  0.00    -0.255 NA
ATOM     26  C   LIG    1      -22.577  71.587  15.968  0.00  0.00    +0.111 A 
ATOM     27  C   LIG    1      -23.435  71.491  17.048  0.00  0.00    +0.020 A 
ATOM     28  C   LIG    1      -23.191  72.304  18.144  0.00  0.00    +0.004 A 
ATOM     29  C   LIG    1      -22.106  73.179  18.119  0.00  0.00    +0.028 A 
ENDBRANCH  22  24
ENDBRANCH  14  16
ENDBRANCH   4  12
BRANCH   1  30
ATOM     30  C   LIG    1      -20.086  83.530  14.041  0.00  0.00    +0.236 C 
ATOM     31  N   LIG    1      -20.995  84.439  14.006  0.00  0.00    -0.243 NA
BRANCH  30  32
ATOM     32  O   LIG    1      -18.782  83.749  13.745  0.00  0.00    -0.491 OA
ATOM     33  H   LIG    1      -18.724  84.487  13.106  0.00  0.00    +0.294 HD
ENDBRANCH  30  32
BRANCH  31  34
ATOM     34  C   LIG    1      -20.551  85.777  13.620  0.00  0.00    +0.201 C 
BRANCH  34  35
ATOM     35  C   LIG    1      -21.300  86.773  14.409  0.00  0.00    +0.077 A 
ATOM     36  N   LIG    1      -21.134  86.965  15.751  0.00  0.00    -0.260 N 
ATOM     37  H   LIG    1      -20.508  86.502  16.401  0.00  0.00    +0.190 HD
ATOM     38  N   LIG    1      -21.957  87.919  16.214  0.00  0.00    -0.068 NA
ATOM     39  N   LIG    1      -22.665  88.369  15.187  0.00  0.00    -0.138 NA
ATOM     40  C   LIG    1      -22.278  87.679  14.075  0.00  0.00    +0.161 A 
ENDBRANCH  34  35
ENDBRANCH  31  34
ENDBRANCH   1  30
TORSDOF 8
ENDMDL
MODEL 9
REMARK VINA RESULT:      -6.3      9.150     16.118
REMARK  Name = pdb/CHEMBL3904254.pdb
REMARK                            x       y       z     vdW  Elec       q    Type
REMARK                         _______ _______ _______ _____ _____    ______ ____
ROOT
ATOM      1  C   LIG    1      -38.912  70.543  24.580  0.00  0.00    +0.149 A 
ATOM      2  N   LIG    1      -39.296  71.778  24.221  0.00  0.00    -0.160 NA
ATOM      3  N   LIG    1      -38.448  72.616  24.876  0.00  0.00    -0.218 N 
ATOM      4  C   LIG    1      -37.456  71.915  25.591  0.00  0.00    +0.129 A 
ATOM      5  C   LIG    1      -37.803  70.582  25.462  0.00  0.00    +0.078 A 
ENDROOT
BRANCH   3   6
ATOM      6  C   LIG    1      -38.612  74.024  24.743  0.00  0.00    +0.067 A 
ATOM      7  C   LIG    1      -37.550  74.902  25.014  0.00  0.00    +0.028 A 
ATOM      8  C   LIG    1      -37.757  76.285  24.950  0.00  0.00    +0.002 A 
ATOM      9  C   LIG    1      -39.000  76.796  24.576  0.00  0.00    +0.000 A 
ATOM     10  C   LIG    1      -40.033  75.927  24.242  0.00  0.00    +0.002 A 
ATOM     11  C   LIG    1      -39.834  74.550  24.317  0.00  0.00    +0.028 A 
ENDBRANCH   3   6
BRANCH   4  12
ATOM     12  N   LIG    1      -36.313  72.457  26.229  0.00  0.00    -0.266 N 
ATOM     13  H   LIG    1      -35.469  72.546  25.676  0.00  0.00    +0.157 HD
ATOM     14  C   LIG    1      -36.234  72.826  27.615  0.00  0.00    +0.251 C 
ATOM     15  O   LIG    1      -37.198  72.627  28.351  0.00  0.00    -0.270 OA
BRANCH  14  16
ATOM     16  C   LIG    1      -34.974  73.384  28.186  0.00  0.00    +0.056 A 
ATOM     17  C   LIG    1      -33.955  72.643  28.796  0.00  0.00    +0.056 A 
ATOM     18 CL   LIG    1      -33.949  70.924  28.849  0.00  0.00    -0.083 Cl
ATOM     19  C   LIG    1      -32.818  73.290  29.304  0.00  0.00    +0.059 A 
ATOM     20  C   LIG    1      -32.650  74.663  29.126  0.00  0.00    +0.134 A 
ATOM     21  F   LIG    1      -31.541  75.222  29.634  0.00  0.00    -0.205 F 
ATOM     22  C   LIG    1      -33.581  75.430  28.421  0.00  0.00    +0.036 A 
ATOM     23  C   LIG    1      -34.760  74.765  28.005  0.00  0.00    +0.027 A 
BRANCH  22  24
ATOM     24  C   LIG    1      -33.354  76.846  28.053  0.00  0.00    +0.074 A 
ATOM     25  N   LIG    1      -34.089  77.749  28.753  0.00  0.00    -0.255 NA
ATOM     26  C   LIG    1      -33.993  79.055  28.405  0.00  0.00    +0.111 A 
ATOM     27  C   LIG    1      -33.193  79.523  27.378  0.00  0.00    +0.020 A 
ATOM     28  C   LIG    1      -32.447  78.598  26.664  0.00  0.00    +0.004 A 
ATOM     29  C   LIG    1      -32.530  77.247  26.999  0.00  0.00    +0.028 A 
ENDBRANCH  22  24
ENDBRANCH  14  16
ENDBRANCH   4  12
BRANCH   1  30
ATOM     30  C   LIG    1      -39.589  69.385  23.997  0.00  0.00    +0.236 C 
ATOM     31  N   LIG    1      -39.602  69.174  22.729  0.00  0.00    -0.243 NA
BRANCH  30  32
ATOM     32  O   LIG    1      -40.223  68.602  24.904  0.00  0.00    -0.491 OA
ATOM     33  H   LIG    1      -39.663  68.527  25.700  0.00  0.00    +0.294 HD
ENDBRANCH  30  32
BRANCH  31  34
ATOM     34  C   LIG    1      -40.358  68.006  22.280  0.00  0.00    +0.201 C 
BRANCH  34  35
ATOM     35  C   LIG    1      -41.519  68.464  21.494  0.00  0.00    +0.077 A 
ATOM     36  N   LIG    1      -41.524  69.596  20.729  0.00  0.00    -0.260 N 
ATOM     37  H   LIG    1      -40.786  70.271  20.564  0.00  0.00    +0.190 HD
ATOM     38  N   LIG    1      -42.715  69.782  20.139  0.00  0.00    -0.068 NA
ATOM     39  N   LIG    1      -43.502  68.778  20.501  0.00  0.00    -0.138 NA
ATOM     40  C   LIG    1      -42.789  67.962  21.331  0.00  0.00    +0.161 A 
ENDBRANCH  34  35
ENDBRANCH  31  34
ENDBRANCH   1  30
TORSDOF 8
ENDMDL
