MODEL 1
REMARK VINA RESULT:      -6.6      0.000      0.000
REMARK  Name = pdb/CHEMBL3675933.pdb
REMARK                            x       y       z     vdW  Elec       q    Type
REMARK                         _______ _______ _______ _____ _____    ______ ____
ROOT
ATOM      1  C   LIG    1      -38.298  75.049  25.135  0.00  0.00    +0.100 A 
ATOM      2  C   LIG    1      -38.427  73.721  24.762  0.00  0.00    +0.170 A 
ATOM      3  N   LIG    1      -37.607  72.638  24.933  0.00  0.00    -0.212 NA
ATOM      4  C   LIG    1      -38.063  71.461  24.551  0.00  0.00    +0.126 A 
ATOM      5  C   LIG    1      -39.451  71.308  23.966  0.00  0.00    +0.063 A 
ATOM      6  C   LIG    1      -40.182  72.412  23.794  0.00  0.00    +0.118 A 
ATOM      7  N   LIG    1      -39.678  73.638  24.165  0.00  0.00    -0.221 N 
ATOM      8  N   LIG    1      -40.285  74.840  24.029  0.00  0.00    -0.173 NA
ATOM      9  C   LIG    1      -39.444  75.682  24.607  0.00  0.00    +0.150 A 
ENDROOT
BRANCH   4  10
ATOM     10  N   LIG    1      -37.252  70.337  24.678  0.00  0.00    -0.308 N 
ATOM     11  C   LIG    1      -37.719  68.975  24.342  0.00  0.00    +0.108 C 
ATOM     12  C   LIG    1      -37.398  68.215  25.639  0.00  0.00    +0.029 C 
ATOM     13  C   LIG    1      -36.043  68.779  26.026  0.00  0.00    +0.021 C 
ATOM     14  C   LIG    1      -36.198  70.265  25.709  0.00  0.00    +0.107 C 
BRANCH  11  15
ATOM     15  C   LIG    1      -37.024  68.401  23.111  0.00  0.00    +0.011 A 
ATOM     16  C   LIG    1      -37.617  68.527  21.844  0.00  0.00    +0.129 A 
ATOM     17  F   LIG    1      -38.767  69.206  21.710  0.00  0.00    -0.205 F 
ATOM     18  C   LIG    1      -37.048  67.965  20.697  0.00  0.00    +0.041 A 
ATOM     19  C   LIG    1      -35.845  67.271  20.792  0.00  0.00    +0.041 A 
ATOM     20  C   LIG    1      -35.220  67.176  22.029  0.00  0.00    +0.124 A 
ATOM     21  F   LIG    1      -34.055  66.524  22.125  0.00  0.00    -0.205 F 
ATOM     22  C   LIG    1      -35.788  67.736  23.174  0.00  0.00    +0.046 A 
ENDBRANCH  11  15
ENDBRANCH   4  10
BRANCH   1  25
ATOM     23  N   LIG    1      -36.784  75.041  26.997  0.00  0.00    -0.305 N 
ATOM     24  H   LIG    1      -37.261  74.163  27.221  0.00  0.00    +0.150 HD
ATOM     25  C   LIG    1      -37.289  75.719  25.895  0.00  0.00    +0.250 C 
ATOM     26  O   LIG    1      -36.950  76.819  25.543  0.00  0.00    -0.270 OA
BRANCH  23  28
ATOM     27  C   LIG    1      -35.601  74.466  29.068  0.00  0.00    +0.032 C 
ATOM     28  C   LIG    1      -35.789  75.557  27.980  0.00  0.00    +0.043 C 
ATOM     29  C   LIG    1      -36.322  76.812  28.703  0.00  0.00    +0.032 C 
BRANCH  28  30
ATOM     30  C   LIG    1      -34.371  75.815  27.351  0.00  0.00    +0.130 C 
BRANCH  30  31
ATOM     31  N   LIG    1      -34.186  77.191  26.817  0.00  0.00    -0.193 NA
ATOM     32  H   LIG    1      -34.231  77.169  25.786  0.00  0.00    +0.148 HD
BRANCH  31  33
ATOM     33  S   LIG    1      -32.710  77.935  27.155  0.00  0.00    +0.027 S 
ATOM     34  C   LIG    1      -32.110  76.849  28.429  0.00  0.00    +0.214 C 
ATOM     35  O   LIG    1      -33.000  79.225  27.753  0.00  0.00    -0.158 OA
ATOM     36  O   LIG    1      -31.877  77.804  25.990  0.00  0.00    -0.158 OA
ENDBRANCH  31  33
ENDBRANCH  30  31
ENDBRANCH  28  30
ENDBRANCH  23  28
ENDBRANCH   1  25
TORSDOF 7
ENDMDL
MODEL 2
REMARK VINA RESULT:      -6.6      4.634      8.153
REMARK  Name = pdb/CHEMBL3675933.pdb
REMARK                            x       y       z     vdW  Elec       q    Type
REMARK                         _______ _______ _______ _____ _____    ______ ____
ROOT
ATOM      1  C   LIG    1      -38.677  68.518  21.919  0.00  0.00    +0.100 A 
ATOM      2  C   LIG    1      -39.612  69.458  22.319  0.00  0.00    +0.170 A 
ATOM      3  N   LIG    1      -39.583  70.426  23.287  0.00  0.00    -0.212 NA
ATOM      4  C   LIG    1      -40.610  71.250  23.357  0.00  0.00    +0.126 A 
ATOM      5  C   LIG    1      -41.769  71.145  22.389  0.00  0.00    +0.063 A 
ATOM      6  C   LIG    1      -41.750  70.155  21.494  0.00  0.00    +0.118 A 
ATOM      7  N   LIG    1      -40.686  69.281  21.456  0.00  0.00    -0.221 N 
ATOM      8  N   LIG    1      -40.537  68.219  20.630  0.00  0.00    -0.173 NA
ATOM      9  C   LIG    1      -39.331  67.764  20.922  0.00  0.00    +0.150 A 
ENDROOT
BRANCH   4  10
ATOM     10  N   LIG    1      -40.638  72.230  24.346  0.00  0.00    -0.308 N 
ATOM     11  C   LIG    1      -39.502  73.144  24.593  0.00  0.00    +0.108 C 
ATOM     12  C   LIG    1      -39.269  72.937  26.098  0.00  0.00    +0.029 C 
ATOM     13  C   LIG    1      -40.682  72.870  26.647  0.00  0.00    +0.021 C 
ATOM     14  C   LIG    1      -41.410  72.042  25.589  0.00  0.00    +0.107 C 
BRANCH  11  15
ATOM     15  C   LIG    1      -39.817  74.589  24.218  0.00  0.00    +0.011 A 
ATOM     16  C   LIG    1      -38.871  75.600  24.452  0.00  0.00    +0.129 A 
ATOM     17  F   LIG    1      -37.666  75.285  24.950  0.00  0.00    -0.205 F 
ATOM     18  C   LIG    1      -39.138  76.946  24.182  0.00  0.00    +0.041 A 
ATOM     19  C   LIG    1      -40.369  77.311  23.644  0.00  0.00    +0.041 A 
ATOM     20  C   LIG    1      -41.300  76.320  23.363  0.00  0.00    +0.124 A 
ATOM     21  F   LIG    1      -42.481  76.661  22.832  0.00  0.00    -0.205 F 
ATOM     22  C   LIG    1      -41.035  74.976  23.633  0.00  0.00    +0.046 A 
ENDBRANCH  11  15
ENDBRANCH   4  10
BRANCH   1  25
ATOM     23  N   LIG    1      -36.957  66.978  22.577  0.00  0.00    -0.305 N 
ATOM     24  H   LIG    1      -37.720  66.298  22.527  0.00  0.00    +0.150 HD
ATOM     25  C   LIG    1      -37.329  68.295  22.341  0.00  0.00    +0.250 C 
ATOM     26  O   LIG    1      -36.610  69.252  22.472  0.00  0.00    -0.270 OA
BRANCH  23  28
ATOM     27  C   LIG    1      -34.552  66.965  22.088  0.00  0.00    +0.032 C 
ATOM     28  C   LIG    1      -35.641  66.503  23.094  0.00  0.00    +0.043 C 
ATOM     29  C   LIG    1      -35.582  64.962  23.130  0.00  0.00    +0.032 C 
BRANCH  28  30
ATOM     30  C   LIG    1      -35.261  67.126  24.488  0.00  0.00    +0.130 C 
BRANCH  30  31
ATOM     31  N   LIG    1      -34.534  68.420  24.394  0.00  0.00    -0.193 NA
ATOM     32  H   LIG    1      -33.524  68.241  24.274  0.00  0.00    +0.148 HD
BRANCH  31  33
ATOM     33  S   LIG    1      -34.620  69.428  25.745  0.00  0.00    +0.027 S 
ATOM     34  C   LIG    1      -36.332  69.210  26.174  0.00  0.00    +0.214 C 
ATOM     35  O   LIG    1      -34.435  70.792  25.283  0.00  0.00    -0.158 OA
ATOM     36  O   LIG    1      -33.796  68.852  26.774  0.00  0.00    -0.158 OA
ENDBRANCH  31  33
ENDBRANCH  30  31
ENDBRANCH  28  30
ENDBRANCH  23  28
ENDBRANCH   1  25
TORSDOF 7
ENDMDL
MODEL 3
REMARK VINA RESULT:      -6.4     12.283     18.503
REMARK  Name = pdb/CHEMBL3675933.pdb
REMARK                            x       y       z     vdW  Elec       q    Type
REMARK                         _______ _______ _______ _____ _____    ______ ____
ROOT
ATOM      1  C   LIG    1      -22.996  76.918  30.685  0.00  0.00    +0.100 A 
ATOM      2  C   LIG    1      -22.047  77.452  31.542  0.00  0.00    +0.170 A 
ATOM      3  N   LIG    1      -22.118  77.867  32.844  0.00  0.00    -0.212 NA
ATOM      4  C   LIG    1      -20.996  78.237  33.430  0.00  0.00    +0.126 A 
ATOM      5  C   LIG    1      -19.673  78.184  32.695  0.00  0.00    +0.063 A 
ATOM      6  C   LIG    1      -19.682  77.805  31.415  0.00  0.00    +0.118 A 
ATOM      7  N   LIG    1      -20.867  77.454  30.809  0.00  0.00    -0.221 N 
ATOM      8  N   LIG    1      -21.039  77.077  29.520  0.00  0.00    -0.173 NA
ATOM      9  C   LIG    1      -22.322  76.765  29.455  0.00  0.00    +0.150 A 
ENDROOT
BRANCH   4  10
ATOM     10  N   LIG    1      -21.025  78.696  34.744  0.00  0.00    -0.308 N 
ATOM     11  C   LIG    1      -20.790  80.111  35.099  0.00  0.00    +0.108 C 
ATOM     12  C   LIG    1      -19.670  79.980  36.143  0.00  0.00    +0.029 C 
ATOM     13  C   LIG    1      -20.107  78.769  36.948  0.00  0.00    +0.021 C 
ATOM     14  C   LIG    1      -20.631  77.824  35.868  0.00  0.00    +0.107 C 
BRANCH  11  15
ATOM     15  C   LIG    1      -22.043  80.800  35.632  0.00  0.00    +0.011 A 
ATOM     16  C   LIG    1      -21.952  82.072  36.222  0.00  0.00    +0.129 A 
ATOM     17  F   LIG    1      -20.770  82.705  36.262  0.00  0.00    -0.205 F 
ATOM     18  C   LIG    1      -23.061  82.715  36.779  0.00  0.00    +0.041 A 
ATOM     19  C   LIG    1      -24.309  82.098  36.739  0.00  0.00    +0.041 A 
ATOM     20  C   LIG    1      -24.427  80.861  36.118  0.00  0.00    +0.124 A 
ATOM     21  F   LIG    1      -25.627  80.269  36.062  0.00  0.00    -0.205 F 
ATOM     22  C   LIG    1      -23.321  80.218  35.563  0.00  0.00    +0.046 A 
ENDBRANCH  11  15
ENDBRANCH   4  10
BRANCH   1  25
ATOM     23  N   LIG    1      -24.656  75.940  32.116  0.00  0.00    -0.305 N 
ATOM     24  H   LIG    1      -23.843  75.713  32.696  0.00  0.00    +0.150 HD
ATOM     25  C   LIG    1      -24.361  76.552  30.905  0.00  0.00    +0.250 C 
ATOM     26  O   LIG    1      -25.159  76.788  30.035  0.00  0.00    -0.270 OA
BRANCH  23  28
ATOM     27  C   LIG    1      -25.870  75.034  34.046  0.00  0.00    +0.032 C 
ATOM     28  C   LIG    1      -25.980  75.402  32.542  0.00  0.00    +0.043 C 
ATOM     29  C   LIG    1      -26.316  74.096  31.793  0.00  0.00    +0.032 C 
BRANCH  28  30
ATOM     30  C   LIG    1      -27.145  76.452  32.419  0.00  0.00    +0.130 C 
BRANCH  30  31
ATOM     31  N   LIG    1      -28.121  76.148  31.339  0.00  0.00    -0.193 NA
ATOM     32  H   LIG    1      -28.202  76.961  30.708  0.00  0.00    +0.148 HD
BRANCH  31  33
ATOM     33  S   LIG    1      -29.707  75.841  31.827  0.00  0.00    +0.027 S 
ATOM     34  C   LIG    1      -30.549  76.067  30.276  0.00  0.00    +0.214 C 
ATOM     35  O   LIG    1      -30.103  76.914  32.722  0.00  0.00    -0.158 OA
ATOM     36  O   LIG    1      -29.787  74.458  32.212  0.00  0.00    -0.158 OA
ENDBRANCH  31  33
ENDBRANCH  30  31
ENDBRANCH  28  30
ENDBRANCH  23  28
ENDBRANCH   1  25
TORSDOF 7
ENDMDL
MODEL 4
REMARK VINA RESULT:      -6.4      2.187      3.561
REMARK  Name = pdb/CHEMBL3675933.pdb
REMARK                            x       y       z     vdW  Elec       q    Type
REMARK                         _______ _______ _______ _____ _____    ______ ____
ROOT
ATOM      1  C   LIG    1      -37.955  75.832  25.510  0.00  0.00    +0.100 A 
ATOM      2  C   LIG    1      -38.399  74.583  25.108  0.00  0.00    +0.170 A 
ATOM      3  N   LIG    1      -37.955  73.319  25.390  0.00  0.00    -0.212 NA
ATOM      4  C   LIG    1      -38.666  72.306  24.932  0.00  0.00    +0.126 A 
ATOM      5  C   LIG    1      -39.938  72.533  24.142  0.00  0.00    +0.063 A 
ATOM      6  C   LIG    1      -40.291  73.792  23.872  0.00  0.00    +0.118 A 
ATOM      7  N   LIG    1      -39.520  74.837  24.328  0.00  0.00    -0.221 N 
ATOM      8  N   LIG    1      -39.733  76.157  24.115  0.00  0.00    -0.173 NA
ATOM      9  C   LIG    1      -38.783  76.745  24.821  0.00  0.00    +0.150 A 
ENDROOT
BRANCH   4  10
ATOM     10  N   LIG    1      -38.236  71.004  25.168  0.00  0.00    -0.308 N 
ATOM     11  C   LIG    1      -36.824  70.591  25.018  0.00  0.00    +0.108 C 
ATOM     12  C   LIG    1      -36.958  69.393  24.064  0.00  0.00    +0.029 C 
ATOM     13  C   LIG    1      -38.193  68.685  24.592  0.00  0.00    +0.021 C 
ATOM     14  C   LIG    1      -39.124  69.849  24.928  0.00  0.00    +0.107 C 
BRANCH  11  15
ATOM     15  C   LIG    1      -36.169  70.240  26.350  0.00  0.00    +0.011 A 
ATOM     16  C   LIG    1      -34.815  69.869  26.394  0.00  0.00    +0.129 A 
ATOM     17  F   LIG    1      -34.083  69.881  25.270  0.00  0.00    -0.205 F 
ATOM     18  C   LIG    1      -34.188  69.480  27.582  0.00  0.00    +0.041 A 
ATOM     19  C   LIG    1      -34.909  69.473  28.772  0.00  0.00    +0.041 A 
ATOM     20  C   LIG    1      -36.236  69.882  28.757  0.00  0.00    +0.124 A 
ATOM     21  F   LIG    1      -36.932  69.893  29.901  0.00  0.00    -0.205 F 
ATOM     22  C   LIG    1      -36.863  70.269  27.572  0.00  0.00    +0.046 A 
ENDBRANCH  11  15
ENDBRANCH   4  10
BRANCH   1  25
ATOM     23  N   LIG    1      -36.163  75.189  26.972  0.00  0.00    -0.305 N 
ATOM     24  H   LIG    1      -36.489  74.244  26.751  0.00  0.00    +0.150 HD
ATOM     25  C   LIG    1      -36.921  76.214  26.421  0.00  0.00    +0.250 C 
ATOM     26  O   LIG    1      -36.777  77.386  26.657  0.00  0.00    -0.270 OA
BRANCH  23  28
ATOM     27  C   LIG    1      -34.694  73.898  28.453  0.00  0.00    +0.032 C 
ATOM     28  C   LIG    1      -35.088  75.328  27.995  0.00  0.00    +0.043 C 
ATOM     29  C   LIG    1      -35.606  76.064  29.249  0.00  0.00    +0.032 C 
BRANCH  28  30
ATOM     30  C   LIG    1      -33.780  75.999  27.435  0.00  0.00    +0.130 C 
BRANCH  30  31
ATOM     31  N   LIG    1      -33.990  77.362  26.878  0.00  0.00    -0.193 NA
ATOM     32  H   LIG    1      -33.846  77.343  25.856  0.00  0.00    +0.148 HD
BRANCH  31  33
ATOM     33  S   LIG    1      -32.940  78.565  27.424  0.00  0.00    +0.027 S 
ATOM     34  C   LIG    1      -34.046  79.474  28.478  0.00  0.00    +0.214 C 
ATOM     35  O   LIG    1      -32.605  79.400  26.284  0.00  0.00    -0.158 OA
ATOM     36  O   LIG    1      -31.931  77.932  28.229  0.00  0.00    -0.158 OA
ENDBRANCH  31  33
ENDBRANCH  30  31
ENDBRANCH  28  30
ENDBRANCH  23  28
ENDBRANCH   1  25
TORSDOF 7
ENDMDL
MODEL 5
REMARK VINA RESULT:      -6.3     13.933     18.817
REMARK  Name = pdb/CHEMBL3675933.pdb
REMARK                            x       y       z     vdW  Elec       q    Type
REMARK                         _______ _______ _______ _____ _____    ______ ____
ROOT
ATOM      1  C   LIG    1      -22.985  76.935  30.658  0.00  0.00    +0.100 A 
ATOM      2  C   LIG    1      -22.061  77.462  31.546  0.00  0.00    +0.170 A 
ATOM      3  N   LIG    1      -22.162  77.837  32.859  0.00  0.00    -0.212 NA
ATOM      4  C   LIG    1      -21.057  78.212  33.473  0.00  0.00    +0.126 A 
ATOM      5  C   LIG    1      -19.722  78.208  32.760  0.00  0.00    +0.063 A 
ATOM      6  C   LIG    1      -19.702  77.866  31.470  0.00  0.00    +0.118 A 
ATOM      7  N   LIG    1      -20.870  77.510  30.833  0.00  0.00    -0.221 N 
ATOM      8  N   LIG    1      -21.013  77.167  29.532  0.00  0.00    -0.173 NA
ATOM      9  C   LIG    1      -22.288  76.831  29.435  0.00  0.00    +0.150 A 
ENDROOT
BRANCH   4  10
ATOM     10  N   LIG    1      -21.118  78.632  34.799  0.00  0.00    -0.308 N 
ATOM     11  C   LIG    1      -20.749  80.000  35.220  0.00  0.00    +0.108 C 
ATOM     12  C   LIG    1      -19.718  79.711  36.323  0.00  0.00    +0.029 C 
ATOM     13  C   LIG    1      -20.337  78.534  37.055  0.00  0.00    +0.021 C 
ATOM     14  C   LIG    1      -20.894  77.687  35.912  0.00  0.00    +0.107 C 
BRANCH  11  15
ATOM     15  C   LIG    1      -21.949  80.810  35.703  0.00  0.00    +0.011 A 
ATOM     16  C   LIG    1      -21.762  82.097  36.234  0.00  0.00    +0.129 A 
ATOM     17  F   LIG    1      -20.535  82.637  36.258  0.00  0.00    -0.205 F 
ATOM     18  C   LIG    1      -22.822  82.852  36.745  0.00  0.00    +0.041 A 
ATOM     19  C   LIG    1      -24.114  82.334  36.718  0.00  0.00    +0.041 A 
ATOM     20  C   LIG    1      -24.325  81.082  36.156  0.00  0.00    +0.124 A 
ATOM     21  F   LIG    1      -25.567  80.583  36.112  0.00  0.00    -0.205 F 
ATOM     22  C   LIG    1      -23.267  80.327  35.646  0.00  0.00    +0.046 A 
ENDBRANCH  11  15
ENDBRANCH   4  10
BRANCH   1  25
ATOM     23  N   LIG    1      -24.627  75.788  31.981  0.00  0.00    -0.305 N 
ATOM     24  H   LIG    1      -23.808  75.505  32.527  0.00  0.00    +0.150 HD
ATOM     25  C   LIG    1      -24.345  76.535  30.844  0.00  0.00    +0.250 C 
ATOM     26  O   LIG    1      -25.151  76.859  30.011  0.00  0.00    -0.270 OA
BRANCH  23  28
ATOM     27  C   LIG    1      -26.039  73.806  31.665  0.00  0.00    +0.032 C 
ATOM     28  C   LIG    1      -25.943  75.195  32.352  0.00  0.00    +0.043 C 
ATOM     29  C   LIG    1      -27.110  76.040  31.801  0.00  0.00    +0.032 C 
BRANCH  28  30
ATOM     30  C   LIG    1      -26.096  74.944  33.898  0.00  0.00    +0.130 C 
BRANCH  30  31
ATOM     31  N   LIG    1      -26.825  76.024  34.617  0.00  0.00    -0.193 NA
ATOM     32  H   LIG    1      -27.515  76.456  33.983  0.00  0.00    +0.148 HD
BRANCH  31  33
ATOM     33  S   LIG    1      -25.894  77.320  35.166  0.00  0.00    +0.027 S 
ATOM     34  C   LIG    1      -24.379  76.466  35.539  0.00  0.00    +0.214 C 
ATOM     35  O   LIG    1      -26.478  77.779  36.413  0.00  0.00    -0.158 OA
ATOM     36  O   LIG    1      -25.678  78.205  34.053  0.00  0.00    -0.158 OA
ENDBRANCH  31  33
ENDBRANCH  30  31
ENDBRANCH  28  30
ENDBRANCH  23  28
ENDBRANCH   1  25
TORSDOF 7
ENDMDL
MODEL 6
REMARK VINA RESULT:      -6.3      2.676      5.941
REMARK  Name = pdb/CHEMBL3675933.pdb
REMARK                            x       y       z     vdW  Elec       q    Type
REMARK                         _______ _______ _______ _____ _____    ______ ____
ROOT
ATOM      1  C   LIG    1      -35.461  71.012  26.421  0.00  0.00    +0.100 A 
ATOM      2  C   LIG    1      -36.551  70.976  25.566  0.00  0.00    +0.170 A 
ATOM      3  N   LIG    1      -37.613  71.823  25.400  0.00  0.00    -0.212 NA
ATOM      4  C   LIG    1      -38.449  71.567  24.412  0.00  0.00    +0.126 A 
ATOM      5  C   LIG    1      -38.231  70.393  23.483  0.00  0.00    +0.063 A 
ATOM      6  C   LIG    1      -37.195  69.586  23.726  0.00  0.00    +0.118 A 
ATOM      7  N   LIG    1      -36.351  69.847  24.782  0.00  0.00    -0.221 N 
ATOM      8  N   LIG    1      -35.282  69.112  25.168  0.00  0.00    -0.173 NA
ATOM      9  C   LIG    1      -34.760  69.815  26.158  0.00  0.00    +0.150 A 
ENDROOT
BRANCH   4  10
ATOM     10  N   LIG    1      -39.561  72.384  24.225  0.00  0.00    -0.308 N 
ATOM     11  C   LIG    1      -39.948  73.437  25.188  0.00  0.00    +0.108 C 
ATOM     12  C   LIG    1      -41.415  73.070  25.465  0.00  0.00    +0.029 C 
ATOM     13  C   LIG    1      -41.926  72.688  24.088  0.00  0.00    +0.021 C 
ATOM     14  C   LIG    1      -40.755  71.899  23.505  0.00  0.00    +0.107 C 
BRANCH  11  15
ATOM     15  C   LIG    1      -39.766  74.843  24.627  0.00  0.00    +0.011 A 
ATOM     16  C   LIG    1      -38.504  75.460  24.665  0.00  0.00    +0.129 A 
ATOM     17  F   LIG    1      -37.446  74.786  25.141  0.00  0.00    -0.205 F 
ATOM     18  C   LIG    1      -38.302  76.770  24.219  0.00  0.00    +0.041 A 
ATOM     19  C   LIG    1      -39.371  77.494  23.699  0.00  0.00    +0.041 A 
ATOM     20  C   LIG    1      -40.616  76.885  23.611  0.00  0.00    +0.124 A 
ATOM     21  F   LIG    1      -41.646  77.571  23.098  0.00  0.00    -0.205 F 
ATOM     22  C   LIG    1      -40.819  75.579  24.056  0.00  0.00    +0.046 A 
ENDBRANCH  11  15
ENDBRANCH   4  10
BRANCH   1  25
ATOM     23  N   LIG    1      -35.739  73.198  27.373  0.00  0.00    -0.305 N 
ATOM     24  H   LIG    1      -36.422  73.303  26.617  0.00  0.00    +0.150 HD
ATOM     25  C   LIG    1      -35.044  71.996  27.371  0.00  0.00    +0.250 C 
ATOM     26  O   LIG    1      -34.121  71.729  28.096  0.00  0.00    -0.270 OA
BRANCH  23  28
ATOM     27  C   LIG    1      -35.621  73.981  29.695  0.00  0.00    +0.032 C 
ATOM     28  C   LIG    1      -35.445  74.396  28.209  0.00  0.00    +0.043 C 
ATOM     29  C   LIG    1      -36.463  75.524  27.943  0.00  0.00    +0.032 C 
BRANCH  28  30
ATOM     30  C   LIG    1      -33.965  74.910  28.057  0.00  0.00    +0.130 C 
BRANCH  30  31
ATOM     31  N   LIG    1      -33.743  75.770  26.864  0.00  0.00    -0.193 NA
ATOM     32  H   LIG    1      -33.067  75.314  26.231  0.00  0.00    +0.148 HD
BRANCH  31  33
ATOM     33  S   LIG    1      -33.080  77.294  27.152  0.00  0.00    +0.027 S 
ATOM     34  C   LIG    1      -32.194  76.959  28.656  0.00  0.00    +0.214 C 
ATOM     35  O   LIG    1      -34.177  78.195  27.460  0.00  0.00    -0.158 OA
ATOM     36  O   LIG    1      -32.140  77.569  26.099  0.00  0.00    -0.158 OA
ENDBRANCH  31  33
ENDBRANCH  30  31
ENDBRANCH  28  30
ENDBRANCH  23  28
ENDBRANCH   1  25
TORSDOF 7
ENDMDL
MODEL 7
REMARK VINA RESULT:      -6.2      6.044      9.967
REMARK  Name = pdb/CHEMBL3675933.pdb
REMARK                            x       y       z     vdW  Elec       q    Type
REMARK                         _______ _______ _______ _____ _____    ______ ____
ROOT
ATOM      1  C   LIG    1      -39.769  69.266  21.938  0.00  0.00    +0.100 A 
ATOM      2  C   LIG    1      -39.109  69.920  22.966  0.00  0.00    +0.170 A 
ATOM      3  N   LIG    1      -39.423  71.038  23.691  0.00  0.00    -0.212 NA
ATOM      4  C   LIG    1      -38.627  71.358  24.694  0.00  0.00    +0.126 A 
ATOM      5  C   LIG    1      -37.425  70.509  25.044  0.00  0.00    +0.063 A 
ATOM      6  C   LIG    1      -37.157  69.453  24.272  0.00  0.00    +0.118 A 
ATOM      7  N   LIG    1      -37.977  69.152  23.208  0.00  0.00    -0.221 N 
ATOM      8  N   LIG    1      -37.822  68.138  22.325  0.00  0.00    -0.173 NA
ATOM      9  C   LIG    1      -38.899  68.220  21.562  0.00  0.00    +0.150 A 
ENDROOT
BRANCH   4  10
ATOM     10  N   LIG    1      -38.890  72.504  25.439  0.00  0.00    -0.308 N 
ATOM     11  C   LIG    1      -38.059  73.723  25.347  0.00  0.00    +0.108 C 
ATOM     12  C   LIG    1      -37.703  73.960  26.823  0.00  0.00    +0.029 C 
ATOM     13  C   LIG    1      -39.008  73.648  27.533  0.00  0.00    +0.021 C 
ATOM     14  C   LIG    1      -39.514  72.423  26.775  0.00  0.00    +0.107 C 
BRANCH  11  15
ATOM     15  C   LIG    1      -38.798  74.892  24.702  0.00  0.00    +0.011 A 
ATOM     16  C   LIG    1      -38.187  76.155  24.625  0.00  0.00    +0.129 A 
ATOM     17  F   LIG    1      -36.930  76.317  25.064  0.00  0.00    -0.205 F 
ATOM     18  C   LIG    1      -38.848  77.269  24.099  0.00  0.00    +0.041 A 
ATOM     19  C   LIG    1      -40.146  77.137  23.614  0.00  0.00    +0.041 A 
ATOM     20  C   LIG    1      -40.749  75.886  23.640  0.00  0.00    +0.124 A 
ATOM     21  F   LIG    1      -41.992  75.748  23.161  0.00  0.00    -0.205 F 
ATOM     22  C   LIG    1      -40.091  74.773  24.165  0.00  0.00    +0.046 A 
ENDBRANCH  11  15
ENDBRANCH   4  10
BRANCH   1  25
ATOM     23  N   LIG    1      -41.649  70.722  21.618  0.00  0.00    -0.305 N 
ATOM     24  H   LIG    1      -41.165  71.296  22.314  0.00  0.00    +0.150 HD
ATOM     25  C   LIG    1      -41.046  69.503  21.341  0.00  0.00    +0.250 C 
ATOM     26  O   LIG    1      -41.518  68.638  20.649  0.00  0.00    -0.270 OA
BRANCH  23  28
ATOM     27  C   LIG    1      -43.186  72.635  21.648  0.00  0.00    +0.032 C 
ATOM     28  C   LIG    1      -43.003  71.167  21.178  0.00  0.00    +0.043 C 
ATOM     29  C   LIG    1      -44.110  70.342  21.867  0.00  0.00    +0.032 C 
BRANCH  28  30
ATOM     30  C   LIG    1      -43.177  71.169  19.614  0.00  0.00    +0.130 C 
BRANCH  30  31
ATOM     31  N   LIG    1      -44.076  70.099  19.104  0.00  0.00    -0.193 NA
ATOM     32  H   LIG    1      -43.518  69.263  18.870  0.00  0.00    +0.148 HD
BRANCH  31  33
ATOM     33  S   LIG    1      -44.923  70.445  17.686  0.00  0.00    +0.027 S 
ATOM     34  C   LIG    1      -45.890  68.960  17.543  0.00  0.00    +0.214 C 
ATOM     35  O   LIG    1      -43.960  70.470  16.599  0.00  0.00    -0.158 OA
ATOM     36  O   LIG    1      -45.796  71.555  17.958  0.00  0.00    -0.158 OA
ENDBRANCH  31  33
ENDBRANCH  30  31
ENDBRANCH  28  30
ENDBRANCH  23  28
ENDBRANCH   1  25
TORSDOF 7
ENDMDL
MODEL 8
REMARK VINA RESULT:      -6.2     14.841     18.852
REMARK  Name = pdb/CHEMBL3675933.pdb
REMARK                            x       y       z     vdW  Elec       q    Type
REMARK                         _______ _______ _______ _____ _____    ______ ____
ROOT
ATOM      1  C   LIG    1      -25.011  77.485  32.412  0.00  0.00    +0.100 A 
ATOM      2  C   LIG    1      -23.712  77.333  31.955  0.00  0.00    +0.170 A 
ATOM      3  N   LIG    1      -22.503  77.392  32.595  0.00  0.00    -0.212 NA
ATOM      4  C   LIG    1      -21.426  77.095  31.893  0.00  0.00    +0.126 A 
ATOM      5  C   LIG    1      -21.525  76.684  30.440  0.00  0.00    +0.063 A 
ATOM      6  C   LIG    1      -22.732  76.684  29.869  0.00  0.00    +0.118 A 
ATOM      7  N   LIG    1      -23.842  77.030  30.606  0.00  0.00    -0.221 N 
ATOM      8  N   LIG    1      -25.119  77.103  30.164  0.00  0.00    -0.173 NA
ATOM      9  C   LIG    1      -25.812  77.385  31.254  0.00  0.00    +0.150 A 
ENDROOT
BRANCH   4  10
ATOM     10  N   LIG    1      -20.173  77.171  32.494  0.00  0.00    -0.308 N 
ATOM     11  C   LIG    1      -19.428  78.441  32.627  0.00  0.00    +0.108 C 
ATOM     12  C   LIG    1      -18.080  78.070  31.989  0.00  0.00    +0.029 C 
ATOM     13  C   LIG    1      -17.838  76.668  32.518  0.00  0.00    +0.021 C 
ATOM     14  C   LIG    1      -19.227  76.038  32.439  0.00  0.00    +0.107 C 
BRANCH  11  15
ATOM     15  C   LIG    1      -19.311  78.905  34.076  0.00  0.00    +0.011 A 
ATOM     16  C   LIG    1      -20.391  79.554  34.697  0.00  0.00    +0.129 A 
ATOM     17  F   LIG    1      -21.546  79.711  34.034  0.00  0.00    -0.205 F 
ATOM     18  C   LIG    1      -20.309  80.052  36.001  0.00  0.00    +0.041 A 
ATOM     19  C   LIG    1      -19.133  79.890  36.729  0.00  0.00    +0.041 A 
ATOM     20  C   LIG    1      -18.071  79.210  36.148  0.00  0.00    +0.124 A 
ATOM     21  F   LIG    1      -16.943  79.037  36.848  0.00  0.00    -0.205 F 
ATOM     22  C   LIG    1      -18.152  78.714  34.846  0.00  0.00    +0.046 A 
ENDBRANCH  11  15
ENDBRANCH   4  10
BRANCH   1  25
ATOM     23  N   LIG    1      -24.598  77.907  34.738  0.00  0.00    -0.305 N 
ATOM     24  H   LIG    1      -23.619  77.808  34.454  0.00  0.00    +0.150 HD
ATOM     25  C   LIG    1      -25.527  77.680  33.732  0.00  0.00    +0.250 C 
ATOM     26  O   LIG    1      -26.719  77.629  33.888  0.00  0.00    -0.270 OA
BRANCH  23  28
ATOM     27  C   LIG    1      -23.529  78.325  36.907  0.00  0.00    +0.032 C 
ATOM     28  C   LIG    1      -24.882  78.062  36.194  0.00  0.00    +0.043 C 
ATOM     29  C   LIG    1      -25.448  76.757  36.791  0.00  0.00    +0.032 C 
BRANCH  28  30
ATOM     30  C   LIG    1      -25.809  79.291  36.517  0.00  0.00    +0.130 C 
BRANCH  30  31
ATOM     31  N   LIG    1      -25.282  80.592  36.026  0.00  0.00    -0.193 NA
ATOM     32  H   LIG    1      -24.291  80.485  35.759  0.00  0.00    +0.148 HD
BRANCH  31  33
ATOM     33  S   LIG    1      -25.280  81.866  37.133  0.00  0.00    +0.027 S 
ATOM     34  C   LIG    1      -26.287  81.154  38.414  0.00  0.00    +0.214 C 
ATOM     35  O   LIG    1      -26.014  82.966  36.533  0.00  0.00    -0.158 OA
ATOM     36  O   LIG    1      -23.935  82.021  37.618  0.00  0.00    -0.158 OA
ENDBRANCH  31  33
ENDBRANCH  30  31
ENDBRANCH  28  30
ENDBRANCH  23  28
ENDBRANCH   1  25
TORSDOF 7
ENDMDL
MODEL 9
REMARK VINA RESULT:      -6.2      2.415      3.458
REMARK  Name = pdb/CHEMBL3675933.pdb
REMARK                            x       y       z     vdW  Elec       q    Type
REMARK                         _______ _______ _______ _____ _____    ______ ____
ROOT
ATOM      1  C   LIG    1      -37.478  76.427  26.369  0.00  0.00    +0.100 A 
ATOM      2  C   LIG    1      -38.124  75.480  25.592  0.00  0.00    +0.170 A 
ATOM      3  N   LIG    1      -37.906  74.141  25.408  0.00  0.00    -0.212 NA
ATOM      4  C   LIG    1      -38.774  73.476  24.670  0.00  0.00    +0.126 A 
ATOM      5  C   LIG    1      -39.981  74.164  24.067  0.00  0.00    +0.063 A 
ATOM      6  C   LIG    1      -40.112  75.479  24.256  0.00  0.00    +0.118 A 
ATOM      7  N   LIG    1      -39.178  76.165  25.000  0.00  0.00    -0.221 N 
ATOM      8  N   LIG    1      -39.160  77.494  25.255  0.00  0.00    -0.173 NA
ATOM      9  C   LIG    1      -38.131  77.642  26.071  0.00  0.00    +0.150 A 
ENDROOT
BRANCH   4  10
ATOM     10  N   LIG    1      -38.575  72.119  24.431  0.00  0.00    -0.308 N 
ATOM     11  C   LIG    1      -39.636  71.110  24.634  0.00  0.00    +0.108 C 
ATOM     12  C   LIG    1      -38.929  70.109  25.562  0.00  0.00    +0.029 C 
ATOM     13  C   LIG    1      -37.533  70.038  24.970  0.00  0.00    +0.021 C 
ATOM     14  C   LIG    1      -37.249  71.496  24.614  0.00  0.00    +0.107 C 
BRANCH  11  15
ATOM     15  C   LIG    1      -40.120  70.494  23.325  0.00  0.00    +0.011 A 
ATOM     16  C   LIG    1      -41.351  70.886  22.774  0.00  0.00    +0.129 A 
ATOM     17  F   LIG    1      -42.072  71.848  23.369  0.00  0.00    -0.205 F 
ATOM     18  C   LIG    1      -41.864  70.306  21.610  0.00  0.00    +0.041 A 
ATOM     19  C   LIG    1      -41.135  69.319  20.952  0.00  0.00    +0.041 A 
ATOM     20  C   LIG    1      -39.894  68.951  21.457  0.00  0.00    +0.124 A 
ATOM     21  F   LIG    1      -39.181  68.013  20.821  0.00  0.00    -0.205 F 
ATOM     22  C   LIG    1      -39.382  69.529  22.619  0.00  0.00    +0.046 A 
ENDBRANCH  11  15
ENDBRANCH   4  10
BRANCH   1  25
ATOM     23  N   LIG    1      -35.175  76.824  26.920  0.00  0.00    -0.305 N 
ATOM     24  H   LIG    1      -35.132  77.160  25.954  0.00  0.00    +0.150 HD
ATOM     25  C   LIG    1      -36.403  76.301  27.304  0.00  0.00    +0.250 C 
ATOM     26  O   LIG    1      -36.623  75.748  28.350  0.00  0.00    -0.270 OA
BRANCH  23  28
ATOM     27  C   LIG    1      -32.780  77.336  26.779  0.00  0.00    +0.032 C 
ATOM     28  C   LIG    1      -33.897  76.748  27.683  0.00  0.00    +0.043 C 
ATOM     29  C   LIG    1      -33.507  75.283  27.968  0.00  0.00    +0.032 C 
BRANCH  28  30
ATOM     30  C   LIG    1      -33.909  77.606  29.001  0.00  0.00    +0.130 C 
BRANCH  30  31
ATOM     31  N   LIG    1      -33.521  79.028  28.801  0.00  0.00    -0.193 NA
ATOM     32  H   LIG    1      -33.187  79.424  29.694  0.00  0.00    +0.148 HD
BRANCH  31  33
ATOM     33  S   LIG    1      -34.748  80.078  28.313  0.00  0.00    +0.027 S 
ATOM     34  C   LIG    1      -34.566  81.348  29.545  0.00  0.00    +0.214 C 
ATOM     35  O   LIG    1      -36.014  79.403  28.537  0.00  0.00    -0.158 OA
ATOM     36  O   LIG    1      -34.384  80.610  27.027  0.00  0.00    -0.158 OA
ENDBRANCH  31  33
ENDBRANCH  30  31
ENDBRANCH  28  30
ENDBRANCH  23  28
ENDBRANCH   1  25
TORSDOF 7
ENDMDL
