MODEL 1
REMARK VINA RESULT:      -6.5      0.000      0.000
REMARK  Name = pdb/CHEMBL3673453.pdb
REMARK                            x       y       z     vdW  Elec       q    Type
REMARK                         _______ _______ _______ _____ _____    ______ ____
ROOT
ATOM      1  N   LIG    1      -37.376  82.038  27.049  0.00  0.00    -0.293 N 
ATOM      2  C   LIG    1      -38.134  82.522  26.012  0.00  0.00    +0.162 A 
ATOM      3  N   LIG    1      -39.429  82.315  25.761  0.00  0.00    -0.235 NA
ATOM      4  C   LIG    1      -39.849  82.942  24.624  0.00  0.00    +0.121 A 
ATOM      5  C   LIG    1      -39.067  83.715  23.747  0.00  0.00    +0.004 A 
ATOM      6  C   LIG    1      -37.717  83.893  24.097  0.00  0.00    +0.041 A 
ATOM      7  C   LIG    1      -37.234  83.272  25.255  0.00  0.00    +0.110 A 
ATOM      8  N   LIG    1      -35.985  83.265  25.818  0.00  0.00    -0.213 NA
ATOM      9  C   LIG    1      -36.095  82.511  26.884  0.00  0.00    +0.195 A 
ENDROOT
BRANCH   5  10
ATOM     10  C   LIG    1      -39.631  84.305  22.514  0.00  0.00    +0.002 A 
ATOM     11  C   LIG    1      -39.957  85.658  22.411  0.00  0.00    +0.120 A 
ATOM     12  N   LIG    1      -40.455  86.262  21.304  0.00  0.00    -0.252 NA
ATOM     13  C   LIG    1      -40.699  85.484  20.220  0.00  0.00    +0.100 A 
ATOM     14  C   LIG    1      -40.438  84.120  20.229  0.00  0.00    +0.032 A 
ATOM     15  C   LIG    1      -39.889  83.539  21.371  0.00  0.00    +0.012 A 
BRANCH  13  16
ATOM     16  P   LIG    1      -41.338  86.268  18.760  0.00  0.00    +0.128 P 
ATOM     17  C   LIG    1      -42.266  87.733  19.252  0.00  0.00    +0.087 C 
ATOM     18  C   LIG    1      -42.628  85.219  18.071  0.00  0.00    +0.087 C 
ATOM     19  O   LIG    1      -40.338  86.649  17.696  0.00  0.00    -0.315 OA
ENDBRANCH  13  16
ENDBRANCH   5  10
BRANCH   9  20
ATOM     20  N   LIG    1      -35.099  82.209  27.719  0.00  0.00    -0.329 N 
ATOM     21  H   LIG    1      -34.893  82.921  28.415  0.00  0.00    +0.145 HD
ATOM     22  H   LIG    1      -35.064  81.277  28.139  0.00  0.00    +0.145 HD
ENDBRANCH   9  20
BRANCH   1  23
ATOM     23  C   LIG    1      -37.853  81.098  28.050  0.00  0.00    +0.161 C 
BRANCH  23  27
ATOM     24  C   LIG    1      -37.391  76.948  26.878  0.00  0.00    +0.162 A 
ATOM     25  C   LIG    1      -36.428  77.562  27.703  0.00  0.00    +0.162 A 
ATOM     26  C   LIG    1      -36.605  78.899  28.062  0.00  0.00    +0.054 A 
ATOM     27  C   LIG    1      -37.693  79.657  27.603  0.00  0.00    -0.024 A 
ATOM     28  C   LIG    1      -38.631  79.044  26.766  0.00  0.00    +0.009 A 
ATOM     29  C   LIG    1      -38.474  77.702  26.404  0.00  0.00    +0.050 A 
BRANCH  25  30
ATOM     30  O   LIG    1      -35.326  76.846  28.076  0.00  0.00    -0.491 OA
ATOM     31  C   LIG    1      -34.172  76.871  27.247  0.00  0.00    +0.277 C 
ENDBRANCH  25  30
BRANCH  24  32
ATOM     32  O   LIG    1      -37.375  75.642  26.437  0.00  0.00    -0.484 OA
BRANCH  32  33
ATOM     33  C   LIG    1      -37.609  75.498  25.039  0.00  0.00    +0.264 C 
BRANCH  33  37
ATOM     34  C   LIG    1      -40.362  72.431  23.827  0.00  0.00    +0.120 A 
ATOM     35  C   LIG    1      -40.744  73.773  23.758  0.00  0.00    +0.046 A 
ATOM     36  C   LIG    1      -39.884  74.763  24.232  0.00  0.00    +0.010 A 
ATOM     37  C   LIG    1      -38.621  74.422  24.742  0.00  0.00    -0.010 A 
ATOM     38  C   LIG    1      -38.262  73.079  24.847  0.00  0.00    +0.010 A 
ATOM     39  C   LIG    1      -39.122  72.091  24.375  0.00  0.00    +0.046 A 
BRANCH  34  41
ATOM     40  C   LIG    1      -40.651  70.281  22.928  0.00  0.00    +0.277 C 
ATOM     41  O   LIG    1      -41.241  71.524  23.297  0.00  0.00    -0.495 OA
ENDBRANCH  34  41
ENDBRANCH  33  37
ENDBRANCH  32  33
ENDBRANCH  24  32
ENDBRANCH  23  27
ENDBRANCH   1  23
TORSDOF 10
ENDMDL
MODEL 2
REMARK VINA RESULT:      -6.4     11.457     14.533
REMARK  Name = pdb/CHEMBL3673453.pdb
REMARK                            x       y       z     vdW  Elec       q    Type
REMARK                         _______ _______ _______ _____ _____    ______ ____
ROOT
ATOM      1  N   LIG    1      -31.728  95.279  25.093  0.00  0.00    -0.293 N 
ATOM      2  C   LIG    1      -32.172  94.753  23.905  0.00  0.00    +0.162 A 
ATOM      3  N   LIG    1      -33.411  94.386  23.569  0.00  0.00    -0.235 NA
ATOM      4  C   LIG    1      -33.483  93.884  22.303  0.00  0.00    +0.121 A 
ATOM      5  C   LIG    1      -32.419  93.713  21.399  0.00  0.00    +0.004 A 
ATOM      6  C   LIG    1      -31.151  94.141  21.831  0.00  0.00    +0.041 A 
ATOM      7  C   LIG    1      -31.021  94.666  23.122  0.00  0.00    +0.110 A 
ATOM      8  N   LIG    1      -29.925  95.139  23.795  0.00  0.00    -0.213 NA
ATOM      9  C   LIG    1      -30.374  95.489  24.975  0.00  0.00    +0.195 A 
ENDROOT
BRANCH   5  10
ATOM     10  C   LIG    1      -32.619  93.108  20.065  0.00  0.00    +0.002 A 
ATOM     11  C   LIG    1      -33.577  92.123  19.823  0.00  0.00    +0.120 A 
ATOM     12  N   LIG    1      -33.823  91.548  18.620  0.00  0.00    -0.252 NA
ATOM     13  C   LIG    1      -33.047  91.924  17.573  0.00  0.00    +0.100 A 
ATOM     14  C   LIG    1      -32.045  92.875  17.714  0.00  0.00    +0.032 A 
ATOM     15  C   LIG    1      -31.846  93.476  18.957  0.00  0.00    +0.012 A 
BRANCH  13  16
ATOM     16  P   LIG    1      -33.370  91.186  15.990  0.00  0.00    +0.128 P 
ATOM     17  C   LIG    1      -35.142  91.273  15.666  0.00  0.00    +0.087 C 
ATOM     18  C   LIG    1      -33.098  89.412  16.125  0.00  0.00    +0.087 C 
ATOM     19  O   LIG    1      -32.622  91.752  14.807  0.00  0.00    -0.315 OA
ENDBRANCH  13  16
ENDBRANCH   5  10
BRANCH   9  20
ATOM     20  N   LIG    1      -29.628  95.980  25.967  0.00  0.00    -0.329 N 
ATOM     21  H   LIG    1      -29.178  95.278  26.550  0.00  0.00    +0.145 HD
ATOM     22  H   LIG    1      -28.986  96.752  25.775  0.00  0.00    +0.145 HD
ENDBRANCH   9  20
BRANCH   1  23
ATOM     23  C   LIG    1      -32.553  95.450  26.278  0.00  0.00    +0.161 C 
BRANCH  23  27
ATOM     24  C   LIG    1      -32.371  92.094  29.017  0.00  0.00    +0.162 A 
ATOM     25  C   LIG    1      -31.804  93.331  29.376  0.00  0.00    +0.162 A 
ATOM     26  C   LIG    1      -31.878  94.392  28.473  0.00  0.00    +0.054 A 
ATOM     27  C   LIG    1      -32.472  94.256  27.209  0.00  0.00    -0.024 A 
ATOM     28  C   LIG    1      -33.012  93.015  26.853  0.00  0.00    +0.009 A 
ATOM     29  C   LIG    1      -32.954  91.944  27.751  0.00  0.00    +0.050 A 
BRANCH  25  30
ATOM     30  O   LIG    1      -31.150  93.436  30.572  0.00  0.00    -0.491 OA
ATOM     31  C   LIG    1      -29.894  94.099  30.617  0.00  0.00    +0.277 C 
ENDBRANCH  25  30
BRANCH  24  32
ATOM     32  O   LIG    1      -32.393  90.950  29.788  0.00  0.00    -0.484 OA
BRANCH  32  33
ATOM     33  C   LIG    1      -33.180  89.896  29.241  0.00  0.00    +0.264 C 
BRANCH  33  37
ATOM     34  C   LIG    1      -31.591  86.056  30.326  0.00  0.00    +0.120 A 
ATOM     35  C   LIG    1      -30.826  87.206  30.532  0.00  0.00    +0.046 A 
ATOM     36  C   LIG    1      -31.306  88.442  30.101  0.00  0.00    +0.010 A 
ATOM     37  C   LIG    1      -32.569  88.543  29.497  0.00  0.00    -0.010 A 
ATOM     38  C   LIG    1      -33.309  87.386  29.255  0.00  0.00    +0.010 A 
ATOM     39  C   LIG    1      -32.829  86.152  29.685  0.00  0.00    +0.046 A 
BRANCH  34  41
ATOM     40  C   LIG    1      -31.318  84.678  32.208  0.00  0.00    +0.277 C 
ATOM     41  O   LIG    1      -31.072  84.888  30.821  0.00  0.00    -0.495 OA
ENDBRANCH  34  41
ENDBRANCH  33  37
ENDBRANCH  32  33
ENDBRANCH  24  32
ENDBRANCH  23  27
ENDBRANCH   1  23
TORSDOF 10
ENDMDL
MODEL 3
REMARK VINA RESULT:      -6.2     14.790     16.896
REMARK  Name = pdb/CHEMBL3673453.pdb
REMARK                            x       y       z     vdW  Elec       q    Type
REMARK                         _______ _______ _______ _____ _____    ______ ____
ROOT
ATOM      1  N   LIG    1      -30.130  77.946   9.935  0.00  0.00    -0.293 N 
ATOM      2  C   LIG    1      -31.163  78.790  10.256  0.00  0.00    +0.162 A 
ATOM      3  N   LIG    1      -31.992  78.731  11.302  0.00  0.00    -0.235 NA
ATOM      4  C   LIG    1      -32.919  79.732  11.293  0.00  0.00    +0.121 A 
ATOM      5  C   LIG    1      -33.070  80.736  10.319  0.00  0.00    +0.004 A 
ATOM      6  C   LIG    1      -32.144  80.731   9.261  0.00  0.00    +0.041 A 
ATOM      7  C   LIG    1      -31.170  79.726   9.222  0.00  0.00    +0.110 A 
ATOM      8  N   LIG    1      -30.169  79.477   8.320  0.00  0.00    -0.213 NA
ATOM      9  C   LIG    1      -29.569  78.401   8.765  0.00  0.00    +0.195 A 
ENDROOT
BRANCH   5  10
ATOM     10  C   LIG    1      -34.151  81.741  10.397  0.00  0.00    +0.002 A 
ATOM     11  C   LIG    1      -34.149  82.774  11.336  0.00  0.00    +0.120 A 
ATOM     12  N   LIG    1      -35.097  83.737  11.443  0.00  0.00    -0.252 NA
ATOM     13  C   LIG    1      -36.158  83.671  10.600  0.00  0.00    +0.100 A 
ATOM     14  C   LIG    1      -36.270  82.666   9.649  0.00  0.00    +0.032 A 
ATOM     15  C   LIG    1      -35.257  81.714   9.540  0.00  0.00    +0.012 A 
BRANCH  13  16
ATOM     16  P   LIG    1      -37.399  84.936  10.723  0.00  0.00    +0.128 P 
ATOM     17  C   LIG    1      -38.924  84.190  11.327  0.00  0.00    +0.087 C 
ATOM     18  C   LIG    1      -37.859  85.443   9.059  0.00  0.00    +0.087 C 
ATOM     19  O   LIG    1      -37.066  86.139  11.573  0.00  0.00    -0.315 OA
ENDBRANCH  13  16
ENDBRANCH   5  10
BRANCH   9  20
ATOM     20  N   LIG    1      -28.544  77.789   8.168  0.00  0.00    -0.329 N 
ATOM     21  H   LIG    1      -28.645  76.780   8.073  0.00  0.00    +0.145 HD
ATOM     22  H   LIG    1      -28.151  78.190   7.314  0.00  0.00    +0.145 HD
ENDBRANCH   9  20
BRANCH   1  23
ATOM     23  C   LIG    1      -29.802  76.731  10.664  0.00  0.00    +0.161 C 
BRANCH  23  27
ATOM     24  C   LIG    1      -26.900  77.376  13.821  0.00  0.00    +0.162 A 
ATOM     25  C   LIG    1      -27.504  76.113  13.662  0.00  0.00    +0.162 A 
ATOM     26  C   LIG    1      -28.434  75.937  12.637  0.00  0.00    +0.054 A 
ATOM     27  C   LIG    1      -28.808  76.985  11.781  0.00  0.00    -0.024 A 
ATOM     28  C   LIG    1      -28.220  78.241  11.963  0.00  0.00    +0.009 A 
ATOM     29  C   LIG    1      -27.278  78.432  12.980  0.00  0.00    +0.050 A 
BRANCH  25  30
ATOM     30  O   LIG    1      -27.201  75.120  14.551  0.00  0.00    -0.491 OA
ATOM     31  C   LIG    1      -26.329  74.074  14.147  0.00  0.00    +0.277 C 
ENDBRANCH  25  30
BRANCH  24  32
ATOM     32  O   LIG    1      -25.961  77.719  14.771  0.00  0.00    -0.484 OA
BRANCH  32  33
ATOM     33  C   LIG    1      -24.704  78.113  14.230  0.00  0.00    +0.264 C 
BRANCH  33  37
ATOM     34  C   LIG    1      -22.992  81.771  15.693  0.00  0.00    +0.120 A 
ATOM     35  C   LIG    1      -22.690  80.563  16.324  0.00  0.00    +0.046 A 
ATOM     36  C   LIG    1      -23.312  79.387  15.905  0.00  0.00    +0.010 A 
ATOM     37  C   LIG    1      -24.211  79.405  14.826  0.00  0.00    -0.010 A 
ATOM     38  C   LIG    1      -24.540  80.621  14.227  0.00  0.00    +0.010 A 
ATOM     39  C   LIG    1      -23.919  81.794  14.647  0.00  0.00    +0.046 A 
BRANCH  34  41
ATOM     40  C   LIG    1      -22.551  84.056  15.380  0.00  0.00    +0.277 C 
ATOM     41  O   LIG    1      -22.303  82.871  16.131  0.00  0.00    -0.495 OA
ENDBRANCH  34  41
ENDBRANCH  33  37
ENDBRANCH  32  33
ENDBRANCH  24  32
ENDBRANCH  23  27
ENDBRANCH   1  23
TORSDOF 10
ENDMDL
MODEL 4
REMARK VINA RESULT:      -6.1     15.128     17.108
REMARK  Name = pdb/CHEMBL3673453.pdb
REMARK                            x       y       z     vdW  Elec       q    Type
REMARK                         _______ _______ _______ _____ _____    ______ ____
ROOT
ATOM      1  N   LIG    1      -30.568  76.957  10.297  0.00  0.00    -0.293 N 
ATOM      2  C   LIG    1      -30.967  78.270  10.311  0.00  0.00    +0.162 A 
ATOM      3  N   LIG    1      -30.249  79.362  10.036  0.00  0.00    -0.235 NA
ATOM      4  C   LIG    1      -30.971  80.512  10.169  0.00  0.00    +0.121 A 
ATOM      5  C   LIG    1      -32.314  80.625  10.571  0.00  0.00    +0.004 A 
ATOM      6  C   LIG    1      -32.999  79.423  10.826  0.00  0.00    +0.041 A 
ATOM      7  C   LIG    1      -32.305  78.213  10.703  0.00  0.00    +0.110 A 
ATOM      8  N   LIG    1      -32.711  76.919  10.897  0.00  0.00    -0.213 NA
ATOM      9  C   LIG    1      -31.650  76.189  10.658  0.00  0.00    +0.195 A 
ENDROOT
BRANCH   5  10
ATOM     10  C   LIG    1      -32.973  81.939  10.726  0.00  0.00    +0.002 A 
ATOM     11  C   LIG    1      -34.355  82.072  10.876  0.00  0.00    +0.120 A 
ATOM     12  N   LIG    1      -35.014  83.245  11.044  0.00  0.00    -0.252 NA
ATOM     13  C   LIG    1      -34.283  84.387  11.021  0.00  0.00    +0.100 A 
ATOM     14  C   LIG    1      -32.906  84.365  10.848  0.00  0.00    +0.032 A 
ATOM     15  C   LIG    1      -32.253  83.139  10.718  0.00  0.00    +0.012 A 
BRANCH  13  16
ATOM     16  P   LIG    1      -35.136  85.927  11.255  0.00  0.00    +0.128 P 
ATOM     17  C   LIG    1      -36.846  85.575  11.704  0.00  0.00    +0.087 C 
ATOM     18  C   LIG    1      -35.324  86.721   9.650  0.00  0.00    +0.087 C 
ATOM     19  O   LIG    1      -34.548  86.888  12.259  0.00  0.00    -0.315 OA
ENDBRANCH  13  16
ENDBRANCH   5  10
BRANCH   9  20
ATOM     20  N   LIG    1      -31.592  74.859  10.760  0.00  0.00    -0.329 N 
ATOM     21  H   LIG    1      -30.745  74.500  11.196  0.00  0.00    +0.145 HD
ATOM     22  H   LIG    1      -32.411  74.347  11.094  0.00  0.00    +0.145 HD
ENDBRANCH   9  20
BRANCH   1  23
ATOM     23  C   LIG    1      -29.204  76.513  10.058  0.00  0.00    +0.161 C 
BRANCH  23  27
ATOM     24  C   LIG    1      -26.613  77.428  13.412  0.00  0.00    +0.162 A 
ATOM     25  C   LIG    1      -26.280  77.874  12.118  0.00  0.00    +0.162 A 
ATOM     26  C   LIG    1      -27.133  77.563  11.060  0.00  0.00    +0.054 A 
ATOM     27  C   LIG    1      -28.295  76.796  11.238  0.00  0.00    -0.024 A 
ATOM     28  C   LIG    1      -28.604  76.338  12.523  0.00  0.00    +0.009 A 
ATOM     29  C   LIG    1      -27.764  76.650  13.598  0.00  0.00    +0.050 A 
BRANCH  25  30
ATOM     30  O   LIG    1      -25.104  78.546  11.935  0.00  0.00    -0.491 OA
ATOM     31  C   LIG    1      -25.085  79.685  11.085  0.00  0.00    +0.277 C 
ENDBRANCH  25  30
BRANCH  24  32
ATOM     32  O   LIG    1      -25.890  77.652  14.565  0.00  0.00    -0.484 OA
BRANCH  32  33
ATOM     33  C   LIG    1      -26.074  78.949  15.124  0.00  0.00    +0.264 C 
BRANCH  33  37
ATOM     34  C   LIG    1      -22.545  81.350  15.604  0.00  0.00    +0.120 A 
ATOM     35  C   LIG    1      -23.592  81.809  14.802  0.00  0.00    +0.046 A 
ATOM     36  C   LIG    1      -24.700  80.993  14.577  0.00  0.00    +0.010 A 
ATOM     37  C   LIG    1      -24.787  79.729  15.182  0.00  0.00    -0.010 A 
ATOM     38  C   LIG    1      -23.719  79.259  15.946  0.00  0.00    +0.010 A 
ATOM     39  C   LIG    1      -22.613  80.074  16.170  0.00  0.00    +0.046 A 
BRANCH  34  41
ATOM     40  C   LIG    1      -20.695  82.458  14.674  0.00  0.00    +0.277 C 
ATOM     41  O   LIG    1      -21.515  82.229  15.816  0.00  0.00    -0.495 OA
ENDBRANCH  34  41
ENDBRANCH  33  37
ENDBRANCH  32  33
ENDBRANCH  24  32
ENDBRANCH  23  27
ENDBRANCH   1  23
TORSDOF 10
ENDMDL
MODEL 5
REMARK VINA RESULT:      -6.1     14.932     16.916
REMARK  Name = pdb/CHEMBL3673453.pdb
REMARK                            x       y       z     vdW  Elec       q    Type
REMARK                         _______ _______ _______ _____ _____    ______ ____
ROOT
ATOM      1  N   LIG    1      -30.437  77.581  10.471  0.00  0.00    -0.293 N 
ATOM      2  C   LIG    1      -30.901  78.871  10.399  0.00  0.00    +0.162 A 
ATOM      3  N   LIG    1      -30.228  79.982  10.087  0.00  0.00    -0.235 NA
ATOM      4  C   LIG    1      -31.011  81.098  10.133  0.00  0.00    +0.121 A 
ATOM      5  C   LIG    1      -32.371  81.163  10.483  0.00  0.00    +0.004 A 
ATOM      6  C   LIG    1      -33.004  79.944  10.782  0.00  0.00    +0.041 A 
ATOM      7  C   LIG    1      -32.247  78.766  10.749  0.00  0.00    +0.110 A 
ATOM      8  N   LIG    1      -32.595  77.465  11.002  0.00  0.00    -0.213 NA
ATOM      9  C   LIG    1      -31.491  76.779  10.839  0.00  0.00    +0.195 A 
ENDROOT
BRANCH   5  10
ATOM     10  C   LIG    1      -33.100  82.448  10.543  0.00  0.00    +0.002 A 
ATOM     11  C   LIG    1      -34.390  82.556  11.066  0.00  0.00    +0.120 A 
ATOM     12  N   LIG    1      -35.099  83.706  11.169  0.00  0.00    -0.252 NA
ATOM     13  C   LIG    1      -34.533  84.840  10.685  0.00  0.00    +0.100 A 
ATOM     14  C   LIG    1      -33.266  84.835  10.117  0.00  0.00    +0.032 A 
ATOM     15  C   LIG    1      -32.547  83.642  10.063  0.00  0.00    +0.012 A 
BRANCH  13  16
ATOM     16  P   LIG    1      -35.450  86.355  10.827  0.00  0.00    +0.128 P 
ATOM     17  C   LIG    1      -36.077  86.803   9.198  0.00  0.00    +0.087 C 
ATOM     18  C   LIG    1      -34.291  87.690  11.166  0.00  0.00    +0.087 C 
ATOM     19  O   LIG    1      -36.589  86.373  11.819  0.00  0.00    -0.315 OA
ENDBRANCH  13  16
ENDBRANCH   5  10
BRANCH   9  20
ATOM     20  N   LIG    1      -31.371  75.462  11.016  0.00  0.00    -0.329 N 
ATOM     21  H   LIG    1      -31.349  75.161  11.988  0.00  0.00    +0.145 HD
ATOM     22  H   LIG    1      -31.948  74.828  10.459  0.00  0.00    +0.145 HD
ENDBRANCH   9  20
BRANCH   1  23
ATOM     23  C   LIG    1      -29.045  77.196  10.301  0.00  0.00    +0.161 C 
BRANCH  23  27
ATOM     24  C   LIG    1      -26.714  77.535  13.942  0.00  0.00    +0.162 A 
ATOM     25  C   LIG    1      -27.421  76.350  13.663  0.00  0.00    +0.162 A 
ATOM     26  C   LIG    1      -28.162  76.271  12.483  0.00  0.00    +0.054 A 
ATOM     27  C   LIG    1      -28.249  77.346  11.584  0.00  0.00    -0.024 A 
ATOM     28  C   LIG    1      -27.562  78.526  11.883  0.00  0.00    +0.009 A 
ATOM     29  C   LIG    1      -26.806  78.618  13.057  0.00  0.00    +0.050 A 
BRANCH  25  30
ATOM     30  O   LIG    1      -27.404  75.338  14.582  0.00  0.00    -0.491 OA
ATOM     31  C   LIG    1      -26.961  74.049  14.182  0.00  0.00    +0.277 C 
ENDBRANCH  25  30
BRANCH  24  32
ATOM     32  O   LIG    1      -25.931  77.777  15.051  0.00  0.00    -0.484 OA
BRANCH  32  33
ATOM     33  C   LIG    1      -25.463  79.119  15.150  0.00  0.00    +0.264 C 
BRANCH  33  37
ATOM     34  C   LIG    1      -21.214  79.462  15.684  0.00  0.00    +0.120 A 
ATOM     35  C   LIG    1      -21.753  78.295  15.138  0.00  0.00    +0.046 A 
ATOM     36  C   LIG    1      -23.136  78.148  15.044  0.00  0.00    +0.010 A 
ATOM     37  C   LIG    1      -23.990  79.183  15.460  0.00  0.00    -0.010 A 
ATOM     38  C   LIG    1      -23.448  80.327  16.044  0.00  0.00    +0.010 A 
ATOM     39  C   LIG    1      -22.067  80.472  16.138  0.00  0.00    +0.046 A 
BRANCH  34  41
ATOM     40  C   LIG    1      -19.198  78.737  14.723  0.00  0.00    +0.277 C 
ATOM     41  O   LIG    1      -19.847  79.549  15.697  0.00  0.00    -0.495 OA
ENDBRANCH  34  41
ENDBRANCH  33  37
ENDBRANCH  32  33
ENDBRANCH  24  32
ENDBRANCH  23  27
ENDBRANCH   1  23
TORSDOF 10
ENDMDL
MODEL 6
REMARK VINA RESULT:      -6.1     18.262     22.774
REMARK  Name = pdb/CHEMBL3673453.pdb
REMARK                            x       y       z     vdW  Elec       q    Type
REMARK                         _______ _______ _______ _____ _____    ______ ____
ROOT
ATOM      1  N   LIG    1      -21.886  87.966  12.041  0.00  0.00    -0.293 N 
ATOM      2  C   LIG    1      -22.407  86.704  12.179  0.00  0.00    +0.162 A 
ATOM      3  N   LIG    1      -23.083  85.979  11.282  0.00  0.00    -0.235 NA
ATOM      4  C   LIG    1      -23.468  84.766  11.773  0.00  0.00    +0.121 A 
ATOM      5  C   LIG    1      -23.245  84.268  13.069  0.00  0.00    +0.004 A 
ATOM      6  C   LIG    1      -22.512  85.091  13.942  0.00  0.00    +0.041 A 
ATOM      7  C   LIG    1      -22.090  86.348  13.490  0.00  0.00    +0.110 A 
ATOM      8  N   LIG    1      -21.385  87.340  14.118  0.00  0.00    -0.213 NA
ATOM      9  C   LIG    1      -21.286  88.301  13.232  0.00  0.00    +0.195 A 
ENDROOT
BRANCH   5  10
ATOM     10  C   LIG    1      -23.759  82.950  13.497  0.00  0.00    +0.002 A 
ATOM     11  C   LIG    1      -24.885  82.360  12.922  0.00  0.00    +0.120 A 
ATOM     12  N   LIG    1      -25.391  81.148  13.255  0.00  0.00    -0.252 NA
ATOM     13  C   LIG    1      -24.783  80.467  14.258  0.00  0.00    +0.100 A 
ATOM     14  C   LIG    1      -23.672  80.978  14.916  0.00  0.00    +0.032 A 
ATOM     15  C   LIG    1      -23.154  82.211  14.522  0.00  0.00    +0.012 A 
BRANCH  13  16
ATOM     16  P   LIG    1      -25.429  78.870  14.692  0.00  0.00    +0.128 P 
ATOM     17  C   LIG    1      -24.119  77.647  14.498  0.00  0.00    +0.087 C 
ATOM     18  C   LIG    1      -26.604  78.370  13.424  0.00  0.00    +0.087 C 
ATOM     19  O   LIG    1      -26.038  78.730  16.067  0.00  0.00    -0.315 OA
ENDBRANCH  13  16
ENDBRANCH   5  10
BRANCH   9  20
ATOM     20  N   LIG    1      -20.694  89.479  13.438  0.00  0.00    -0.329 N 
ATOM     21  H   LIG    1      -20.497  90.012  12.593  0.00  0.00    +0.145 HD
ATOM     22  H   LIG    1      -21.046  90.094  14.175  0.00  0.00    +0.145 HD
ENDBRANCH   9  20
BRANCH   1  23
ATOM     23  C   LIG    1      -22.066  88.808  10.869  0.00  0.00    +0.161 C 
BRANCH  23  27
ATOM     24  C   LIG    1      -25.064  91.896  11.398  0.00  0.00    +0.162 A 
ATOM     25  C   LIG    1      -23.812  92.214  10.837  0.00  0.00    +0.162 A 
ATOM     26  C   LIG    1      -22.868  91.199  10.680  0.00  0.00    +0.054 A 
ATOM     27  C   LIG    1      -23.116  89.880  11.091  0.00  0.00    -0.024 A 
ATOM     28  C   LIG    1      -24.354  89.580  11.668  0.00  0.00    +0.009 A 
ATOM     29  C   LIG    1      -25.316  90.585  11.823  0.00  0.00    +0.050 A 
BRANCH  25  30
ATOM     30  O   LIG    1      -23.542  93.516  10.519  0.00  0.00    -0.491 OA
ATOM     31  C   LIG    1      -22.991  93.815   9.244  0.00  0.00    +0.277 C 
ENDBRANCH  25  30
BRANCH  24  32
ATOM     32  O   LIG    1      -26.107  92.771  11.616  0.00  0.00    -0.484 OA
BRANCH  32  33
ATOM     33  C   LIG    1      -27.072  92.302  12.553  0.00  0.00    +0.264 C 
BRANCH  33  37
ATOM     34  C   LIG    1      -27.937  95.317  15.488  0.00  0.00    +0.120 A 
ATOM     35  C   LIG    1      -26.790  95.426  14.699  0.00  0.00    +0.046 A 
ATOM     36  C   LIG    1      -26.463  94.405  13.807  0.00  0.00    +0.010 A 
ATOM     37  C   LIG    1      -27.301  93.286  13.670  0.00  0.00    -0.010 A 
ATOM     38  C   LIG    1      -28.422  93.164  14.491  0.00  0.00    +0.010 A 
ATOM     39  C   LIG    1      -28.747  94.183  15.381  0.00  0.00    +0.046 A 
BRANCH  34  41
ATOM     40  C   LIG    1      -28.867  97.468  15.649  0.00  0.00    +0.277 C 
ATOM     41  O   LIG    1      -28.214  96.384  16.303  0.00  0.00    -0.495 OA
ENDBRANCH  34  41
ENDBRANCH  33  37
ENDBRANCH  32  33
ENDBRANCH  24  32
ENDBRANCH  23  27
ENDBRANCH   1  23
TORSDOF 10
ENDMDL
MODEL 7
REMARK VINA RESULT:      -6.1      4.203      6.997
REMARK  Name = pdb/CHEMBL3673453.pdb
REMARK                            x       y       z     vdW  Elec       q    Type
REMARK                         _______ _______ _______ _____ _____    ______ ____
ROOT
ATOM      1  N   LIG    1      -38.931  82.448  25.068  0.00  0.00    -0.293 N 
ATOM      2  C   LIG    1      -38.031  82.934  25.983  0.00  0.00    +0.162 A 
ATOM      3  N   LIG    1      -37.928  82.644  27.283  0.00  0.00    -0.235 NA
ATOM      4  C   LIG    1      -36.921  83.332  27.895  0.00  0.00    +0.121 A 
ATOM      5  C   LIG    1      -36.062  84.276  27.303  0.00  0.00    +0.004 A 
ATOM      6  C   LIG    1      -36.231  84.507  25.927  0.00  0.00    +0.041 A 
ATOM      7  C   LIG    1      -37.250  83.826  25.249  0.00  0.00    +0.110 A 
ATOM      8  N   LIG    1      -37.641  83.866  23.937  0.00  0.00    -0.213 NA
ATOM      9  C   LIG    1      -38.655  83.041  23.858  0.00  0.00    +0.195 A 
ENDROOT
BRANCH   5  10
ATOM     10  C   LIG    1      -35.036  84.995  28.088  0.00  0.00    +0.002 A 
ATOM     11  C   LIG    1      -34.312  84.386  29.114  0.00  0.00    +0.120 A 
ATOM     12  N   LIG    1      -33.345  84.983  29.853  0.00  0.00    -0.252 NA
ATOM     13  C   LIG    1      -33.087  86.292  29.609  0.00  0.00    +0.100 A 
ATOM     14  C   LIG    1      -33.772  86.999  28.630  0.00  0.00    +0.032 A 
ATOM     15  C   LIG    1      -34.733  86.343  27.861  0.00  0.00    +0.012 A 
BRANCH  13  16
ATOM     16  P   LIG    1      -31.812  87.081  30.562  0.00  0.00    +0.128 P 
ATOM     17  C   LIG    1      -32.258  86.989  32.307  0.00  0.00    +0.087 C 
ATOM     18  C   LIG    1      -31.881  88.852  30.247  0.00  0.00    +0.087 C 
ATOM     19  O   LIG    1      -30.405  86.563  30.382  0.00  0.00    -0.315 OA
ENDBRANCH  13  16
ENDBRANCH   5  10
BRANCH   9  20
ATOM     20  N   LIG    1      -39.364  82.796  22.754  0.00  0.00    -0.329 N 
ATOM     21  H   LIG    1      -40.338  83.087  22.797  0.00  0.00    +0.145 HD
ATOM     22  H   LIG    1      -38.963  83.025  21.841  0.00  0.00    +0.145 HD
ENDBRANCH   9  20
BRANCH   1  23
ATOM     23  C   LIG    1      -40.038  81.561  25.390  0.00  0.00    +0.161 C 
BRANCH  23  27
ATOM     24  C   LIG    1      -39.104  77.372  24.772  0.00  0.00    +0.162 A 
ATOM     25  C   LIG    1      -38.681  78.025  25.946  0.00  0.00    +0.162 A 
ATOM     26  C   LIG    1      -38.997  79.374  26.115  0.00  0.00    +0.054 A 
ATOM     27  C   LIG    1      -39.694  80.105  25.141  0.00  0.00    -0.024 A 
ATOM     28  C   LIG    1      -40.089  79.452  23.969  0.00  0.00    +0.009 A 
ATOM     29  C   LIG    1      -39.789  78.097  23.788  0.00  0.00    +0.050 A 
BRANCH  25  30
ATOM     30  O   LIG    1      -37.928  77.333  26.852  0.00  0.00    -0.491 OA
ATOM     31  C   LIG    1      -37.000  78.040  27.663  0.00  0.00    +0.277 C 
ENDBRANCH  25  30
BRANCH  24  32
ATOM     32  O   LIG    1      -38.885  76.049  24.450  0.00  0.00    -0.484 OA
BRANCH  32  33
ATOM     33  C   LIG    1      -40.060  75.243  24.473  0.00  0.00    +0.264 C 
BRANCH  33  37
ATOM     34  C   LIG    1      -39.344  71.030  24.042  0.00  0.00    +0.120 A 
ATOM     35  C   LIG    1      -38.351  71.850  24.579  0.00  0.00    +0.046 A 
ATOM     36  C   LIG    1      -38.549  73.229  24.639  0.00  0.00    +0.010 A 
ATOM     37  C   LIG    1      -39.758  73.793  24.199  0.00  0.00    -0.010 A 
ATOM     38  C   LIG    1      -40.729  72.973  23.625  0.00  0.00    +0.010 A 
ATOM     39  C   LIG    1      -40.529  71.597  23.565  0.00  0.00    +0.046 A 
BRANCH  34  41
ATOM     40  C   LIG    1      -38.209  69.235  23.041  0.00  0.00    +0.277 C 
ATOM     41  O   LIG    1      -39.093  69.683  24.063  0.00  0.00    -0.495 OA
ENDBRANCH  34  41
ENDBRANCH  33  37
ENDBRANCH  32  33
ENDBRANCH  24  32
ENDBRANCH  23  27
ENDBRANCH   1  23
TORSDOF 10
ENDMDL
MODEL 8
REMARK VINA RESULT:      -6.0      7.471     11.090
REMARK  Name = pdb/CHEMBL3673453.pdb
REMARK                            x       y       z     vdW  Elec       q    Type
REMARK                         _______ _______ _______ _____ _____    ______ ____
ROOT
ATOM      1  N   LIG    1      -39.874  69.728  24.296  0.00  0.00    -0.293 N 
ATOM      2  C   LIG    1      -39.692  71.087  24.350  0.00  0.00    +0.162 A 
ATOM      3  N   LIG    1      -38.728  71.774  24.969  0.00  0.00    -0.235 NA
ATOM      4  C   LIG    1      -38.871  73.123  24.825  0.00  0.00    +0.121 A 
ATOM      5  C   LIG    1      -39.901  73.796  24.143  0.00  0.00    +0.004 A 
ATOM      6  C   LIG    1      -40.865  72.993  23.507  0.00  0.00    +0.041 A 
ATOM      7  C   LIG    1      -40.765  71.601  23.622  0.00  0.00    +0.110 A 
ATOM      8  N   LIG    1      -41.555  70.598  23.126  0.00  0.00    -0.213 NA
ATOM      9  C   LIG    1      -41.006  69.488  23.552  0.00  0.00    +0.195 A 
ENDROOT
BRANCH   5  10
ATOM     10  C   LIG    1      -39.973  75.272  24.100  0.00  0.00    +0.002 A 
ATOM     11  C   LIG    1      -38.982  76.088  24.648  0.00  0.00    +0.120 A 
ATOM     12  N   LIG    1      -38.980  77.443  24.620  0.00  0.00    -0.252 NA
ATOM     13  C   LIG    1      -40.046  78.062  24.055  0.00  0.00    +0.100 A 
ATOM     14  C   LIG    1      -41.099  77.342  23.508  0.00  0.00    +0.032 A 
ATOM     15  C   LIG    1      -41.051  75.949  23.518  0.00  0.00    +0.012 A 
BRANCH  13  16
ATOM     16  P   LIG    1      -40.046  79.838  24.002  0.00  0.00    +0.128 P 
ATOM     17  C   LIG    1      -39.442  80.461  25.582  0.00  0.00    +0.087 C 
ATOM     18  C   LIG    1      -41.754  80.406  23.999  0.00  0.00    +0.087 C 
ATOM     19  O   LIG    1      -39.267  80.487  22.883  0.00  0.00    -0.315 OA
ENDBRANCH  13  16
ENDBRANCH   5  10
BRANCH   9  20
ATOM     20  N   LIG    1      -41.474  68.260  23.322  0.00  0.00    -0.329 N 
ATOM     21  H   LIG    1      -41.562  68.014  22.339  0.00  0.00    +0.145 HD
ATOM     22  H   LIG    1      -41.097  67.473  23.855  0.00  0.00    +0.145 HD
ENDBRANCH   9  20
BRANCH   1  23
ATOM     23  C   LIG    1      -39.061  68.758  25.014  0.00  0.00    +0.161 C 
BRANCH  23  27
ATOM     24  C   LIG    1      -35.425  67.665  22.920  0.00  0.00    +0.162 A 
ATOM     25  C   LIG    1      -35.445  67.710  24.327  0.00  0.00    +0.162 A 
ATOM     26  C   LIG    1      -36.630  68.066  24.972  0.00  0.00    +0.054 A 
ATOM     27  C   LIG    1      -37.791  68.409  24.262  0.00  0.00    -0.024 A 
ATOM     28  C   LIG    1      -37.754  68.383  22.864  0.00  0.00    +0.009 A 
ATOM     29  C   LIG    1      -36.576  68.019  22.202  0.00  0.00    +0.050 A 
BRANCH  25  30
ATOM     30  O   LIG    1      -34.288  67.461  25.012  0.00  0.00    -0.491 OA
ATOM     31  C   LIG    1      -34.352  66.740  26.235  0.00  0.00    +0.277 C 
ENDBRANCH  25  30
BRANCH  24  32
ATOM     32  O   LIG    1      -34.347  67.329  22.128  0.00  0.00    -0.484 OA
BRANCH  32  33
ATOM     33  C   LIG    1      -34.334  65.966  21.714  0.00  0.00    +0.264 C 
BRANCH  33  37
ATOM     34  C   LIG    1      -31.736  65.221  18.375  0.00  0.00    +0.120 A 
ATOM     35  C   LIG    1      -31.652  66.434  19.062  0.00  0.00    +0.046 A 
ATOM     36  C   LIG    1      -32.552  66.711  20.090  0.00  0.00    +0.010 A 
ATOM     37  C   LIG    1      -33.518  65.762  20.464  0.00  0.00    -0.010 A 
ATOM     38  C   LIG    1      -33.624  64.571  19.747  0.00  0.00    +0.010 A 
ATOM     39  C   LIG    1      -32.725  64.296  18.720  0.00  0.00    +0.046 A 
BRANCH  34  41
ATOM     40  C   LIG    1      -29.451  64.951  17.905  0.00  0.00    +0.277 C 
ATOM     41  O   LIG    1      -30.786  65.004  17.411  0.00  0.00    -0.495 OA
ENDBRANCH  34  41
ENDBRANCH  33  37
ENDBRANCH  32  33
ENDBRANCH  24  32
ENDBRANCH  23  27
ENDBRANCH   1  23
TORSDOF 10
ENDMDL
MODEL 9
REMARK VINA RESULT:      -5.9     10.183     15.451
REMARK  Name = pdb/CHEMBL3673453.pdb
REMARK                            x       y       z     vdW  Elec       q    Type
REMARK                         _______ _______ _______ _____ _____    ______ ____
ROOT
ATOM      1  N   LIG    1      -36.856  65.862  20.453  0.00  0.00    -0.293 N 
ATOM      2  C   LIG    1      -35.516  66.132  20.337  0.00  0.00    +0.162 A 
ATOM      3  N   LIG    1      -34.607  66.266  21.306  0.00  0.00    -0.235 NA
ATOM      4  C   LIG    1      -33.364  66.553  20.823  0.00  0.00    +0.121 A 
ATOM      5  C   LIG    1      -33.001  66.731  19.476  0.00  0.00    +0.004 A 
ATOM      6  C   LIG    1      -34.018  66.556  18.521  0.00  0.00    +0.041 A 
ATOM      7  C   LIG    1      -35.313  66.259  18.963  0.00  0.00    +0.110 A 
ATOM      8  N   LIG    1      -36.476  66.052  18.268  0.00  0.00    -0.213 NA
ATOM      9  C   LIG    1      -37.385  65.827  19.184  0.00  0.00    +0.195 A 
ENDROOT
BRANCH   5  10
ATOM     10  C   LIG    1      -31.622  67.091  19.080  0.00  0.00    +0.002 A 
ATOM     11  C   LIG    1      -30.533  66.247  19.303  0.00  0.00    +0.120 A 
ATOM     12  N   LIG    1      -29.253  66.510  18.945  0.00  0.00    -0.252 NA
ATOM     13  C   LIG    1      -28.996  67.707  18.361  0.00  0.00    +0.100 A 
ATOM     14  C   LIG    1      -30.004  68.630  18.122  0.00  0.00    +0.032 A 
ATOM     15  C   LIG    1      -31.317  68.312  18.468  0.00  0.00    +0.012 A 
BRANCH  13  16
ATOM     16  P   LIG    1      -27.323  68.054  17.875  0.00  0.00    +0.128 P 
ATOM     17  C   LIG    1      -26.812  69.605  18.641  0.00  0.00    +0.087 C 
ATOM     18  C   LIG    1      -27.317  68.477  16.126  0.00  0.00    +0.087 C 
ATOM     19  O   LIG    1      -26.291  66.993  18.170  0.00  0.00    -0.315 OA
ENDBRANCH  13  16
ENDBRANCH   5  10
BRANCH   9  20
ATOM     20  N   LIG    1      -38.679  65.604  18.945  0.00  0.00    -0.329 N 
ATOM     21  H   LIG    1      -39.303  66.356  19.230  0.00  0.00    +0.145 HD
ATOM     22  H   LIG    1      -38.962  65.229  18.037  0.00  0.00    +0.145 HD
ENDBRANCH   9  20
BRANCH   1  23
ATOM     23  C   LIG    1      -37.570  65.760  21.716  0.00  0.00    +0.161 C 
BRANCH  23  27
ATOM     24  C   LIG    1      -37.696  69.575  23.774  0.00  0.00    +0.162 A 
ATOM     25  C   LIG    1      -37.001  68.488  24.340  0.00  0.00    +0.162 A 
ATOM     26  C   LIG    1      -36.979  67.274  23.653  0.00  0.00    +0.054 A 
ATOM     27  C   LIG    1      -37.653  67.093  22.435  0.00  0.00    -0.024 A 
ATOM     28  C   LIG    1      -38.359  68.172  21.894  0.00  0.00    +0.009 A 
ATOM     29  C   LIG    1      -38.383  69.400  22.565  0.00  0.00    +0.050 A 
BRANCH  25  30
ATOM     30  O   LIG    1      -36.420  68.643  25.567  0.00  0.00    -0.491 OA
ATOM     31  C   LIG    1      -35.043  68.986  25.641  0.00  0.00    +0.277 C 
ENDBRANCH  25  30
BRANCH  24  32
ATOM     32  O   LIG    1      -37.812  70.839  24.312  0.00  0.00    -0.484 OA
BRANCH  32  33
ATOM     33  C   LIG    1      -39.153  71.312  24.401  0.00  0.00    +0.264 C 
BRANCH  33  37
ATOM     34  C   LIG    1      -39.539  75.588  24.538  0.00  0.00    +0.120 A 
ATOM     35  C   LIG    1      -40.554  74.818  23.965  0.00  0.00    +0.046 A 
ATOM     36  C   LIG    1      -40.390  73.439  23.842  0.00  0.00    +0.010 A 
ATOM     37  C   LIG    1      -39.229  72.815  24.327  0.00  0.00    -0.010 A 
ATOM     38  C   LIG    1      -38.203  73.594  24.859  0.00  0.00    +0.010 A 
ATOM     39  C   LIG    1      -38.366  74.971  24.980  0.00  0.00    +0.046 A 
BRANCH  34  41
ATOM     40  C   LIG    1      -40.330  77.538  23.496  0.00  0.00    +0.277 C 
ATOM     41  O   LIG    1      -39.797  76.928  24.667  0.00  0.00    -0.495 OA
ENDBRANCH  34  41
ENDBRANCH  33  37
ENDBRANCH  32  33
ENDBRANCH  24  32
ENDBRANCH  23  27
ENDBRANCH   1  23
TORSDOF 10
ENDMDL
