MODEL 1
REMARK VINA RESULT:      -6.7      0.000      0.000
REMARK  Name = pdb/CHEMBL3892570.pdb
REMARK                            x       y       z     vdW  Elec       q    Type
REMARK                         _______ _______ _______ _____ _____    ______ ____
ROOT
ATOM      1  C   LIG    1      -22.235  82.686  15.671  0.00  0.00    +0.149 A 
ATOM      2  N   LIG    1      -20.968  82.265  15.819  0.00  0.00    -0.160 NA
ATOM      3  N   LIG    1      -21.028  80.909  15.747  0.00  0.00    -0.218 N 
ATOM      4  C   LIG    1      -22.345  80.456  15.597  0.00  0.00    +0.129 A 
ATOM      5  C   LIG    1      -23.126  81.595  15.609  0.00  0.00    +0.078 A 
ENDROOT
BRANCH   3   6
ATOM      6  C   LIG    1      -19.813  80.168  15.824  0.00  0.00    +0.067 A 
ATOM      7  C   LIG    1      -19.668  79.057  16.660  0.00  0.00    +0.028 A 
ATOM      8  C   LIG    1      -18.438  78.389  16.720  0.00  0.00    +0.002 A 
ATOM      9  C   LIG    1      -17.358  78.823  15.949  0.00  0.00    +0.000 A 
ATOM     10  C   LIG    1      -17.510  79.903  15.086  0.00  0.00    +0.002 A 
ATOM     11  C   LIG    1      -18.736  80.565  15.010  0.00  0.00    +0.028 A 
ENDBRANCH   3   6
BRANCH   4  12
ATOM     12  N   LIG    1      -22.800  79.130  15.548  0.00  0.00    -0.266 N 
ATOM     13  H   LIG    1      -23.317  78.783  16.349  0.00  0.00    +0.157 HD
ATOM     14  C   LIG    1      -22.573  78.252  14.424  0.00  0.00    +0.251 C 
ATOM     15  O   LIG    1      -21.936  78.629  13.462  0.00  0.00    -0.270 OA
BRANCH  14  16
ATOM     16  C   LIG    1      -23.044  76.840  14.521  0.00  0.00    +0.056 A 
ATOM     17  C   LIG    1      -23.902  76.245  13.604  0.00  0.00    +0.054 A 
ATOM     18 CL   LIG    1      -24.500  77.048  12.198  0.00  0.00    -0.083 Cl
ATOM     19  C   LIG    1      -24.298  74.920  13.789  0.00  0.00    +0.041 A 
ATOM     20  C   LIG    1      -23.824  74.159  14.871  0.00  0.00    +0.052 A 
ATOM     21 CL   LIG    1      -24.443  72.542  14.927  0.00  0.00    -0.083 Cl
ATOM     22  C   LIG    1      -22.904  74.696  15.792  0.00  0.00    +0.019 A 
ATOM     23  C   LIG    1      -22.552  76.061  15.595  0.00  0.00    +0.026 A 
BRANCH  22  24
ATOM     24  C   LIG    1      -22.234  73.937  16.887  0.00  0.00    +0.072 A 
ATOM     25  N   LIG    1      -20.893  73.768  16.720  0.00  0.00    -0.255 NA
ATOM     26  C   LIG    1      -20.212  73.053  17.650  0.00  0.00    +0.111 A 
ATOM     27  C   LIG    1      -20.792  72.495  18.773  0.00  0.00    +0.020 A 
ATOM     28  C   LIG    1      -22.152  72.682  18.952  0.00  0.00    +0.004 A 
ATOM     29  C   LIG    1      -22.875  73.412  18.008  0.00  0.00    +0.028 A 
ENDBRANCH  22  24
ENDBRANCH  14  16
ENDBRANCH   4  12
BRANCH   1  31
ATOM     30  N   LIG    1      -22.186  84.834  14.574  0.00  0.00    -0.246 NA
ATOM     31  C   LIG    1      -22.500  84.123  15.599  0.00  0.00    +0.236 C 
BRANCH  30  35
ATOM     32  C   LIG    1      -20.509  87.373  12.730  0.00  0.00    +0.115 C 
ATOM     33  C   LIG    1      -21.798  86.710  12.245  0.00  0.00    +0.033 C 
ATOM     34  C   LIG    1      -22.925  86.779  13.272  0.00  0.00    +0.029 C 
ATOM     35  C   LIG    1      -22.499  86.277  14.656  0.00  0.00    +0.109 C 
ATOM     36  C   LIG    1      -21.272  87.068  15.126  0.00  0.00    +0.029 C 
ATOM     37  C   LIG    1      -20.108  86.957  14.145  0.00  0.00    +0.033 C 
BRANCH  32  38
ATOM     38  O   LIG    1      -19.450  87.049  11.831  0.00  0.00    -0.392 OA
ATOM     39  H   LIG    1      -19.843  86.939  10.948  0.00  0.00    +0.210 HD
ENDBRANCH  32  38
ENDBRANCH  30  35
BRANCH  31  40
ATOM     40  O   LIG    1      -23.073  84.624  16.720  0.00  0.00    -0.491 OA
ATOM     41  H   LIG    1      -23.315  85.556  16.551  0.00  0.00    +0.294 HD
ENDBRANCH  31  40
ENDBRANCH   1  31
TORSDOF 8
ENDMDL
MODEL 2
REMARK VINA RESULT:      -6.7     18.062     19.623
REMARK  Name = pdb/CHEMBL3892570.pdb
REMARK                            x       y       z     vdW  Elec       q    Type
REMARK                         _______ _______ _______ _____ _____    ______ ____
ROOT
ATOM      1  C   LIG    1      -35.270  81.978  29.872  0.00  0.00    +0.149 A 
ATOM      2  N   LIG    1      -34.308  81.060  29.681  0.00  0.00    -0.160 NA
ATOM      3  N   LIG    1      -34.753  80.278  28.663  0.00  0.00    -0.218 N 
ATOM      4  C   LIG    1      -36.027  80.667  28.230  0.00  0.00    +0.129 A 
ATOM      5  C   LIG    1      -36.384  81.722  29.046  0.00  0.00    +0.078 A 
ENDROOT
BRANCH   3   6
ATOM      6  C   LIG    1      -33.913  79.227  28.195  0.00  0.00    +0.067 A 
ATOM      7  C   LIG    1      -33.010  79.406  27.142  0.00  0.00    +0.028 A 
ATOM      8  C   LIG    1      -32.234  78.325  26.702  0.00  0.00    +0.002 A 
ATOM      9  C   LIG    1      -32.354  77.073  27.308  0.00  0.00    +0.000 A 
ATOM     10  C   LIG    1      -33.223  76.901  28.380  0.00  0.00    +0.002 A 
ATOM     11  C   LIG    1      -33.988  77.976  28.835  0.00  0.00    +0.028 A 
ENDBRANCH   3   6
BRANCH   4  12
ATOM     12  N   LIG    1      -36.825  80.061  27.248  0.00  0.00    -0.266 N 
ATOM     13  H   LIG    1      -36.763  80.427  26.303  0.00  0.00    +0.157 HD
ATOM     14  C   LIG    1      -37.714  78.954  27.516  0.00  0.00    +0.251 C 
ATOM     15  O   LIG    1      -37.830  78.512  28.640  0.00  0.00    -0.270 OA
BRANCH  14  16
ATOM     16  C   LIG    1      -38.565  78.444  26.403  0.00  0.00    +0.056 A 
ATOM     17  C   LIG    1      -39.311  79.260  25.561  0.00  0.00    +0.054 A 
ATOM     18 CL   LIG    1      -39.312  80.983  25.660  0.00  0.00    -0.083 Cl
ATOM     19  C   LIG    1      -40.089  78.685  24.555  0.00  0.00    +0.041 A 
ATOM     20  C   LIG    1      -40.114  77.296  24.353  0.00  0.00    +0.052 A 
ATOM     21 CL   LIG    1      -41.149  76.784  23.062  0.00  0.00    -0.083 Cl
ATOM     22  C   LIG    1      -39.327  76.431  25.139  0.00  0.00    +0.019 A 
ATOM     23  C   LIG    1      -38.576  77.047  26.180  0.00  0.00    +0.026 A 
BRANCH  22  24
ATOM     24  C   LIG    1      -39.172  74.964  24.918  0.00  0.00    +0.072 A 
ATOM     25  N   LIG    1      -38.006  74.441  25.389  0.00  0.00    -0.255 NA
ATOM     26  C   LIG    1      -37.766  73.121  25.193  0.00  0.00    +0.111 A 
ATOM     27  C   LIG    1      -38.642  72.261  24.558  0.00  0.00    +0.020 A 
ATOM     28  C   LIG    1      -39.835  72.790  24.095  0.00  0.00    +0.004 A 
ATOM     29  C   LIG    1      -40.105  74.146  24.282  0.00  0.00    +0.028 A 
ENDBRANCH  22  24
ENDBRANCH  14  16
ENDBRANCH   4  12
BRANCH   1  31
ATOM     30  N   LIG    1      -33.940  83.701  30.913  0.00  0.00    -0.246 NA
ATOM     31  C   LIG    1      -35.046  83.048  30.844  0.00  0.00    +0.236 C 
BRANCH  30  35
ATOM     32  C   LIG    1      -31.384  86.167  31.110  0.00  0.00    +0.115 C 
ATOM     33  C   LIG    1      -32.720  86.412  30.409  0.00  0.00    +0.033 C 
ATOM     34  C   LIG    1      -33.922  86.124  31.305  0.00  0.00    +0.029 C 
ATOM     35  C   LIG    1      -33.856  84.741  31.961  0.00  0.00    +0.109 C 
ATOM     36  C   LIG    1      -32.541  84.613  32.741  0.00  0.00    +0.029 C 
ATOM     37  C   LIG    1      -31.322  84.831  31.849  0.00  0.00    +0.033 C 
BRANCH  32  38
ATOM     38  O   LIG    1      -30.334  86.216  30.146  0.00  0.00    -0.392 OA
ATOM     39  H   LIG    1      -30.712  85.940  29.292  0.00  0.00    +0.210 HD
ENDBRANCH  32  38
ENDBRANCH  30  35
BRANCH  31  40
ATOM     40  O   LIG    1      -36.097  83.254  31.674  0.00  0.00    -0.491 OA
ATOM     41  H   LIG    1      -36.921  83.170  31.153  0.00  0.00    +0.294 HD
ENDBRANCH  31  40
ENDBRANCH   1  31
TORSDOF 8
ENDMDL
MODEL 3
REMARK VINA RESULT:      -6.7     17.243     20.200
REMARK  Name = pdb/CHEMBL3892570.pdb
REMARK                            x       y       z     vdW  Elec       q    Type
REMARK                         _______ _______ _______ _____ _____    ______ ____
ROOT
ATOM      1  C   LIG    1      -31.608  74.195  29.908  0.00  0.00    +0.149 A 
ATOM      2  N   LIG    1      -31.542  75.490  29.555  0.00  0.00    -0.160 NA
ATOM      3  N   LIG    1      -32.592  75.688  28.715  0.00  0.00    -0.218 N 
ATOM      4  C   LIG    1      -33.308  74.505  28.492  0.00  0.00    +0.129 A 
ATOM      5  C   LIG    1      -32.640  73.533  29.211  0.00  0.00    +0.078 A 
ENDROOT
BRANCH   3   6
ATOM      6  C   LIG    1      -32.817  76.999  28.204  0.00  0.00    +0.067 A 
ATOM      7  C   LIG    1      -32.183  77.469  27.049  0.00  0.00    +0.028 A 
ATOM      8  C   LIG    1      -32.416  78.780  26.614  0.00  0.00    +0.002 A 
ATOM      9  C   LIG    1      -33.279  79.618  27.322  0.00  0.00    +0.000 A 
ATOM     10  C   LIG    1      -33.942  79.142  28.447  0.00  0.00    +0.002 A 
ATOM     11  C   LIG    1      -33.726  77.833  28.880  0.00  0.00    +0.028 A 
ENDBRANCH   3   6
BRANCH   4  12
ATOM     12  N   LIG    1      -34.408  74.310  27.643  0.00  0.00    -0.266 N 
ATOM     13  H   LIG    1      -34.221  73.970  26.706  0.00  0.00    +0.157 HD
ATOM     14  C   LIG    1      -35.774  74.564  28.039  0.00  0.00    +0.251 C 
ATOM     15  O   LIG    1      -36.028  74.996  29.144  0.00  0.00    -0.270 OA
BRANCH  14  16
ATOM     16  C   LIG    1      -36.850  74.388  27.022  0.00  0.00    +0.056 A 
ATOM     17  C   LIG    1      -37.329  73.150  26.608  0.00  0.00    +0.054 A 
ATOM     18 CL   LIG    1      -36.775  71.649  27.254  0.00  0.00    -0.083 Cl
ATOM     19  C   LIG    1      -38.331  73.088  25.638  0.00  0.00    +0.041 A 
ATOM     20  C   LIG    1      -38.890  74.253  25.088  0.00  0.00    +0.052 A 
ATOM     21 CL   LIG    1      -40.111  73.959  23.895  0.00  0.00    -0.083 Cl
ATOM     22  C   LIG    1      -38.484  75.531  25.520  0.00  0.00    +0.019 A 
ATOM     23  C   LIG    1      -37.434  75.557  26.481  0.00  0.00    +0.026 A 
BRANCH  22  24
ATOM     24  C   LIG    1      -39.108  76.821  25.108  0.00  0.00    +0.072 A 
ATOM     25  N   LIG    1      -39.931  77.375  26.040  0.00  0.00    -0.255 NA
ATOM     26  C   LIG    1      -40.573  78.530  25.730  0.00  0.00    +0.111 A 
ATOM     27  C   LIG    1      -40.429  79.195  24.527  0.00  0.00    +0.020 A 
ATOM     28  C   LIG    1      -39.577  78.640  23.587  0.00  0.00    +0.004 A 
ATOM     29  C   LIG    1      -38.908  77.452  23.881  0.00  0.00    +0.028 A 
ENDBRANCH  22  24
ENDBRANCH  14  16
ENDBRANCH   4  12
BRANCH   1  31
ATOM     30  N   LIG    1      -29.923  74.454  31.615  0.00  0.00    -0.246 NA
ATOM     31  C   LIG    1      -30.664  73.683  30.901  0.00  0.00    +0.236 C 
BRANCH  30  35
ATOM     32  C   LIG    1      -27.293  76.091  33.365  0.00  0.00    +0.115 C 
ATOM     33  C   LIG    1      -28.689  75.897  33.957  0.00  0.00    +0.033 C 
ATOM     34  C   LIG    1      -29.144  74.440  33.942  0.00  0.00    +0.029 C 
ATOM     35  C   LIG    1      -29.004  73.788  32.562  0.00  0.00    +0.109 C 
ATOM     36  C   LIG    1      -27.552  73.921  32.086  0.00  0.00    +0.029 C 
ATOM     37  C   LIG    1      -27.097  75.377  32.029  0.00  0.00    +0.033 C 
BRANCH  32  38
ATOM     38  O   LIG    1      -27.050  77.485  33.188  0.00  0.00    -0.392 OA
ATOM     39  H   LIG    1      -26.374  77.576  32.494  0.00  0.00    +0.210 HD
ENDBRANCH  32  38
ENDBRANCH  30  35
BRANCH  31  40
ATOM     40  O   LIG    1      -30.630  72.330  30.966  0.00  0.00    -0.491 OA
ATOM     41  H   LIG    1      -31.548  71.996  30.917  0.00  0.00    +0.294 HD
ENDBRANCH  31  40
ENDBRANCH   1  31
TORSDOF 8
ENDMDL
MODEL 4
REMARK VINA RESULT:      -6.6     17.544     21.411
REMARK  Name = pdb/CHEMBL3892570.pdb
REMARK                            x       y       z     vdW  Elec       q    Type
REMARK                         _______ _______ _______ _____ _____    ______ ____
ROOT
ATOM      1  C   LIG    1      -36.628  69.320  24.997  0.00  0.00    +0.149 A 
ATOM      2  N   LIG    1      -37.606  70.235  25.104  0.00  0.00    -0.160 NA
ATOM      3  N   LIG    1      -37.020  71.324  25.666  0.00  0.00    -0.218 N 
ATOM      4  C   LIG    1      -35.671  71.092  25.964  0.00  0.00    +0.129 A 
ATOM      5  C   LIG    1      -35.435  69.784  25.589  0.00  0.00    +0.078 A 
ENDROOT
BRANCH   3   6
ATOM      6  C   LIG    1      -37.808  72.495  25.864  0.00  0.00    +0.067 A 
ATOM      7  C   LIG    1      -38.160  72.951  27.139  0.00  0.00    +0.028 A 
ATOM      8  C   LIG    1      -38.966  74.089  27.270  0.00  0.00    +0.002 A 
ATOM      9  C   LIG    1      -39.419  74.771  26.140  0.00  0.00    +0.000 A 
ATOM     10  C   LIG    1      -39.039  74.344  24.873  0.00  0.00    +0.002 A 
ATOM     11  C   LIG    1      -38.224  73.220  24.733  0.00  0.00    +0.028 A 
ENDBRANCH   3   6
BRANCH   4  12
ATOM     12  N   LIG    1      -34.768  71.956  26.601  0.00  0.00    -0.266 N 
ATOM     13  H   LIG    1      -34.128  72.479  26.014  0.00  0.00    +0.157 HD
ATOM     14  C   LIG    1      -34.715  72.136  28.033  0.00  0.00    +0.251 C 
ATOM     15  O   LIG    1      -35.450  71.507  28.765  0.00  0.00    -0.270 OA
BRANCH  14  16
ATOM     16  C   LIG    1      -33.662  73.030  28.596  0.00  0.00    +0.056 A 
ATOM     17  C   LIG    1      -32.592  72.580  29.362  0.00  0.00    +0.054 A 
ATOM     18 CL   LIG    1      -32.312  70.915  29.723  0.00  0.00    -0.083 Cl
ATOM     19  C   LIG    1      -31.664  73.497  29.857  0.00  0.00    +0.041 A 
ATOM     20  C   LIG    1      -31.769  74.868  29.574  0.00  0.00    +0.052 A 
ATOM     21 CL   LIG    1      -30.525  75.838  30.289  0.00  0.00    -0.083 Cl
ATOM     22  C   LIG    1      -32.797  75.366  28.750  0.00  0.00    +0.019 A 
ATOM     23  C   LIG    1      -33.748  74.409  28.296  0.00  0.00    +0.026 A 
BRANCH  22  24
ATOM     24  C   LIG    1      -32.919  76.774  28.274  0.00  0.00    +0.072 A 
ATOM     25  N   LIG    1      -33.781  77.543  28.994  0.00  0.00    -0.255 NA
ATOM     26  C   LIG    1      -33.983  78.826  28.603  0.00  0.00    +0.111 A 
ATOM     27  C   LIG    1      -33.350  79.414  27.524  0.00  0.00    +0.020 A 
ATOM     28  C   LIG    1      -32.459  78.637  26.803  0.00  0.00    +0.004 A 
ATOM     29  C   LIG    1      -32.237  77.314  27.184  0.00  0.00    +0.028 A 
ENDBRANCH  22  24
ENDBRANCH  14  16
ENDBRANCH   4  12
BRANCH   1  31
ATOM     30  N   LIG    1      -37.219  67.982  23.078  0.00  0.00    -0.246 NA
ATOM     31  C   LIG    1      -36.913  68.052  24.326  0.00  0.00    +0.236 C 
BRANCH  30  35
ATOM     32  C   LIG    1      -37.720  67.232  19.637  0.00  0.00    +0.115 C 
ATOM     33  C   LIG    1      -36.358  67.118  20.321  0.00  0.00    +0.033 C 
ATOM     34  C   LIG    1      -36.390  66.235  21.566  0.00  0.00    +0.029 C 
ATOM     35  C   LIG    1      -37.500  66.632  22.546  0.00  0.00    +0.109 C 
ATOM     36  C   LIG    1      -38.850  66.611  21.817  0.00  0.00    +0.029 C 
ATOM     37  C   LIG    1      -38.861  67.540  20.605  0.00  0.00    +0.033 C 
BRANCH  32  38
ATOM     38  O   LIG    1      -37.661  68.256  18.646  0.00  0.00    -0.392 OA
ATOM     39  H   LIG    1      -38.310  68.030  17.956  0.00  0.00    +0.210 HD
ENDBRANCH  32  38
ENDBRANCH  30  35
BRANCH  31  40
ATOM     40  O   LIG    1      -36.855  66.979  25.150  0.00  0.00    -0.491 OA
ATOM     41  H   LIG    1      -36.411  67.250  25.978  0.00  0.00    +0.294 HD
ENDBRANCH  31  40
ENDBRANCH   1  31
TORSDOF 8
ENDMDL
MODEL 5
REMARK VINA RESULT:      -6.6     18.488     20.271
REMARK  Name = pdb/CHEMBL3892570.pdb
REMARK                            x       y       z     vdW  Elec       q    Type
REMARK                         _______ _______ _______ _____ _____    ______ ____
ROOT
ATOM      1  C   LIG    1      -31.245  87.016  30.715  0.00  0.00    +0.149 A 
ATOM      2  N   LIG    1      -32.238  87.830  30.320  0.00  0.00    -0.160 NA
ATOM      3  N   LIG    1      -33.197  87.009  29.815  0.00  0.00    -0.218 N 
ATOM      4  C   LIG    1      -32.797  85.667  29.843  0.00  0.00    +0.129 A 
ATOM      5  C   LIG    1      -31.519  85.677  30.366  0.00  0.00    +0.078 A 
ENDROOT
BRANCH   3   6
ATOM      6  C   LIG    1      -34.414  87.587  29.353  0.00  0.00    +0.067 A 
ATOM      7  C   LIG    1      -35.665  87.152  29.802  0.00  0.00    +0.028 A 
ATOM      8  C   LIG    1      -36.829  87.736  29.284  0.00  0.00    +0.002 A 
ATOM      9  C   LIG    1      -36.749  88.750  28.328  0.00  0.00    +0.000 A 
ATOM     10  C   LIG    1      -35.506  89.212  27.908  0.00  0.00    +0.002 A 
ATOM     11  C   LIG    1      -34.342  88.646  28.429  0.00  0.00    +0.028 A 
ENDBRANCH   3   6
BRANCH   4  12
ATOM     12  N   LIG    1      -33.492  84.550  29.355  0.00  0.00    -0.266 N 
ATOM     13  H   LIG    1      -33.528  84.425  28.349  0.00  0.00    +0.157 HD
ATOM     14  C   LIG    1      -34.144  83.583  30.207  0.00  0.00    +0.251 C 
ATOM     15  O   LIG    1      -34.140  83.718  31.413  0.00  0.00    -0.270 OA
BRANCH  14  16
ATOM     16  C   LIG    1      -34.912  82.478  29.565  0.00  0.00    +0.056 A 
ATOM     17  C   LIG    1      -36.290  82.498  29.381  0.00  0.00    +0.054 A 
ATOM     18 CL   LIG    1      -37.292  83.831  29.825  0.00  0.00    -0.083 Cl
ATOM     19  C   LIG    1      -36.922  81.408  28.781  0.00  0.00    +0.041 A 
ATOM     20  C   LIG    1      -36.191  80.295  28.332  0.00  0.00    +0.052 A 
ATOM     21 CL   LIG    1      -37.162  79.046  27.627  0.00  0.00    -0.083 Cl
ATOM     22  C   LIG    1      -34.787  80.254  28.438  0.00  0.00    +0.019 A 
ATOM     23  C   LIG    1      -34.181  81.365  29.089  0.00  0.00    +0.026 A 
BRANCH  22  24
ATOM     24  C   LIG    1      -33.908  79.193  27.869  0.00  0.00    +0.072 A 
ATOM     25  N   LIG    1      -33.184  79.579  26.783  0.00  0.00    -0.255 NA
ATOM     26  C   LIG    1      -32.388  78.662  26.178  0.00  0.00    +0.111 A 
ATOM     27  C   LIG    1      -32.251  77.356  26.606  0.00  0.00    +0.020 A 
ATOM     28  C   LIG    1      -32.975  76.967  27.720  0.00  0.00    +0.004 A 
ATOM     29  C   LIG    1      -33.802  77.892  28.359  0.00  0.00    +0.028 A 
ENDBRANCH  22  24
ENDBRANCH  14  16
ENDBRANCH   4  12
BRANCH   1  31
ATOM     30  N   LIG    1      -30.011  87.648  32.689  0.00  0.00    -0.246 NA
ATOM     31  C   LIG    1      -30.091  87.591  31.407  0.00  0.00    +0.236 C 
BRANCH  30  35
ATOM     32  C   LIG    1      -29.135  87.662  36.137  0.00  0.00    +0.115 C 
ATOM     33  C   LIG    1      -28.631  86.602  35.158  0.00  0.00    +0.033 C 
ATOM     34  C   LIG    1      -27.943  87.203  33.934  0.00  0.00    +0.029 C 
ATOM     35  C   LIG    1      -28.792  88.275  33.243  0.00  0.00    +0.109 C 
ATOM     36  C   LIG    1      -29.160  89.362  34.260  0.00  0.00    +0.029 C 
ATOM     37  C   LIG    1      -29.910  88.793  35.462  0.00  0.00    +0.033 C 
BRANCH  32  38
ATOM     38  O   LIG    1      -29.971  87.039  37.110  0.00  0.00    -0.392 OA
ATOM     39  H   LIG    1      -29.601  86.156  37.288  0.00  0.00    +0.210 HD
ENDBRANCH  32  38
ENDBRANCH  30  35
BRANCH  31  40
ATOM     40  O   LIG    1      -29.146  88.078  30.568  0.00  0.00    -0.491 OA
ATOM     41  H   LIG    1      -28.775  88.893  30.962  0.00  0.00    +0.294 HD
ENDBRANCH  31  40
ENDBRANCH   1  31
TORSDOF 8
ENDMDL
MODEL 6
REMARK VINA RESULT:      -6.6      2.410      3.907
REMARK  Name = pdb/CHEMBL3892570.pdb
REMARK                            x       y       z     vdW  Elec       q    Type
REMARK                         _______ _______ _______ _____ _____    ______ ____
ROOT
ATOM      1  C   LIG    1      -22.538  83.105  15.415  0.00  0.00    +0.149 A 
ATOM      2  N   LIG    1      -23.628  82.518  14.892  0.00  0.00    -0.160 NA
ATOM      3  N   LIG    1      -23.435  81.184  15.065  0.00  0.00    -0.218 N 
ATOM      4  C   LIG    1      -22.196  80.911  15.659  0.00  0.00    +0.129 A 
ATOM      5  C   LIG    1      -21.594  82.142  15.829  0.00  0.00    +0.078 A 
ENDROOT
BRANCH   3   6
ATOM      6  C   LIG    1      -24.461  80.288  14.646  0.00  0.00    +0.067 A 
ATOM      7  C   LIG    1      -24.998  79.317  15.497  0.00  0.00    +0.028 A 
ATOM      8  C   LIG    1      -25.981  78.442  15.018  0.00  0.00    +0.002 A 
ATOM      9  C   LIG    1      -26.431  78.534  13.700  0.00  0.00    +0.000 A 
ATOM     10  C   LIG    1      -25.929  79.523  12.863  0.00  0.00    +0.002 A 
ATOM     11  C   LIG    1      -24.959  80.409  13.336  0.00  0.00    +0.028 A 
ENDBRANCH   3   6
BRANCH   4  12
ATOM     12  N   LIG    1      -21.630  79.657  15.934  0.00  0.00    -0.266 N 
ATOM     13  H   LIG    1      -21.585  79.368  16.905  0.00  0.00    +0.157 HD
ATOM     14  C   LIG    1      -21.122  78.772  14.912  0.00  0.00    +0.251 C 
ATOM     15  O   LIG    1      -21.138  79.101  13.743  0.00  0.00    -0.270 OA
BRANCH  14  16
ATOM     16  C   LIG    1      -20.477  77.497  15.336  0.00  0.00    +0.056 A 
ATOM     17  C   LIG    1      -19.127  77.376  15.646  0.00  0.00    +0.054 A 
ATOM     18 CL   LIG    1      -18.024  78.703  15.630  0.00  0.00    -0.083 Cl
ATOM     19  C   LIG    1      -18.614  76.134  16.021  0.00  0.00    +0.041 A 
ATOM     20  C   LIG    1      -19.438  75.001  16.120  0.00  0.00    +0.052 A 
ATOM     21 CL   LIG    1      -18.606  73.556  16.588  0.00  0.00    -0.083 Cl
ATOM     22  C   LIG    1      -20.823  75.084  15.878  0.00  0.00    +0.019 A 
ATOM     23  C   LIG    1      -21.306  76.357  15.461  0.00  0.00    +0.026 A 
BRANCH  22  24
ATOM     24  C   LIG    1      -21.806  73.983  16.090  0.00  0.00    +0.072 A 
ATOM     25  N   LIG    1      -21.943  73.135  15.034  0.00  0.00    -0.255 NA
ATOM     26  C   LIG    1      -22.847  72.128  15.128  0.00  0.00    +0.111 A 
ATOM     27  C   LIG    1      -23.631  71.895  16.241  0.00  0.00    +0.020 A 
ATOM     28  C   LIG    1      -23.479  72.747  17.322  0.00  0.00    +0.004 A 
ATOM     29  C   LIG    1      -22.557  73.791  17.249  0.00  0.00    +0.028 A 
ENDBRANCH  22  24
ENDBRANCH  14  16
ENDBRANCH   4  12
BRANCH   1  31
ATOM     30  N   LIG    1      -22.126  85.290  14.479  0.00  0.00    -0.246 NA
ATOM     31  C   LIG    1      -22.482  84.566  15.480  0.00  0.00    +0.236 C 
BRANCH  30  35
ATOM     32  C   LIG    1      -20.418  87.620  12.403  0.00  0.00    +0.115 C 
ATOM     33  C   LIG    1      -21.894  87.270  12.216  0.00  0.00    +0.033 C 
ATOM     34  C   LIG    1      -22.715  87.458  13.489  0.00  0.00    +0.029 C 
ATOM     35  C   LIG    1      -22.100  86.751  14.703  0.00  0.00    +0.109 C 
ATOM     36  C   LIG    1      -20.659  87.240  14.895  0.00  0.00    +0.029 C 
ATOM     37  C   LIG    1      -19.801  87.000  13.656  0.00  0.00    +0.033 C 
BRANCH  32  38
ATOM     38  O   LIG    1      -19.686  87.186  11.258  0.00  0.00    -0.392 OA
ATOM     39  H   LIG    1      -18.877  86.750  11.580  0.00  0.00    +0.210 HD
ENDBRANCH  32  38
ENDBRANCH  30  35
BRANCH  31  40
ATOM     40  O   LIG    1      -22.809  85.066  16.696  0.00  0.00    -0.491 OA
ATOM     41  H   LIG    1      -22.318  84.565  17.377  0.00  0.00    +0.294 HD
ENDBRANCH  31  40
ENDBRANCH   1  31
TORSDOF 8
ENDMDL
MODEL 7
REMARK VINA RESULT:      -6.6     19.911     22.427
REMARK  Name = pdb/CHEMBL3892570.pdb
REMARK                            x       y       z     vdW  Elec       q    Type
REMARK                         _______ _______ _______ _____ _____    ______ ____
ROOT
ATOM      1  C   LIG    1      -21.791  79.628  34.655  0.00  0.00    +0.149 A 
ATOM      2  N   LIG    1      -20.830  80.132  35.446  0.00  0.00    -0.160 NA
ATOM      3  N   LIG    1      -21.434  81.116  36.164  0.00  0.00    -0.218 N 
ATOM      4  C   LIG    1      -22.777  81.274  35.799  0.00  0.00    +0.129 A 
ATOM      5  C   LIG    1      -22.990  80.359  34.787  0.00  0.00    +0.078 A 
ENDROOT
BRANCH   3   6
ATOM      6  C   LIG    1      -20.667  81.814  37.141  0.00  0.00    +0.067 A 
ATOM      7  C   LIG    1      -20.660  83.211  37.226  0.00  0.00    +0.028 A 
ATOM      8  C   LIG    1      -19.859  83.843  38.186  0.00  0.00    +0.002 A 
ATOM      9  C   LIG    1      -19.071  83.091  39.059  0.00  0.00    +0.000 A 
ATOM     10  C   LIG    1      -19.106  81.702  39.003  0.00  0.00    +0.002 A 
ATOM     11  C   LIG    1      -19.912  81.063  38.060  0.00  0.00    +0.028 A 
ENDBRANCH   3   6
BRANCH   4  12
ATOM     12  N   LIG    1      -23.694  82.223  36.276  0.00  0.00    -0.266 N 
ATOM     13  H   LIG    1      -23.562  83.187  35.988  0.00  0.00    +0.157 HD
ATOM     14  C   LIG    1      -24.803  81.894  37.140  0.00  0.00    +0.251 C 
ATOM     15  O   LIG    1      -24.973  80.755  37.523  0.00  0.00    -0.270 OA
BRANCH  14  16
ATOM     16  C   LIG    1      -25.666  83.003  37.639  0.00  0.00    +0.056 A 
ATOM     17  C   LIG    1      -25.795  83.340  38.981  0.00  0.00    +0.054 A 
ATOM     18 CL   LIG    1      -24.932  82.550  40.250  0.00  0.00    -0.083 Cl
ATOM     19  C   LIG    1      -26.641  84.387  39.351  0.00  0.00    +0.041 A 
ATOM     20  C   LIG    1      -27.346  85.131  38.391  0.00  0.00    +0.052 A 
ATOM     21 CL   LIG    1      -28.347  86.379  39.055  0.00  0.00    -0.083 Cl
ATOM     22  C   LIG    1      -27.200  84.870  37.014  0.00  0.00    +0.019 A 
ATOM     23  C   LIG    1      -26.361  83.771  36.676  0.00  0.00    +0.026 A 
BRANCH  22  24
ATOM     24  C   LIG    1      -27.788  85.685  35.913  0.00  0.00    +0.072 A 
ATOM     25  N   LIG    1      -26.953  86.630  35.399  0.00  0.00    -0.255 NA
ATOM     26  C   LIG    1      -27.422  87.444  34.421  0.00  0.00    +0.111 A 
ATOM     27  C   LIG    1      -28.698  87.364  33.895  0.00  0.00    +0.020 A 
ATOM     28  C   LIG    1      -29.541  86.392  34.405  0.00  0.00    +0.004 A 
ATOM     29  C   LIG    1      -29.082  85.544  35.414  0.00  0.00    +0.028 A 
ENDBRANCH  22  24
ENDBRANCH  14  16
ENDBRANCH   4  12
BRANCH   1  31
ATOM     30  N   LIG    1      -22.252  78.078  32.864  0.00  0.00    -0.246 NA
ATOM     31  C   LIG    1      -21.484  78.467  33.820  0.00  0.00    +0.236 C 
BRANCH  30  35
ATOM     32  C   LIG    1      -24.007  76.664  30.111  0.00  0.00    +0.115 C 
ATOM     33  C   LIG    1      -22.871  77.672  29.941  0.00  0.00    +0.033 C 
ATOM     34  C   LIG    1      -21.588  77.248  30.652  0.00  0.00    +0.029 C 
ATOM     35  C   LIG    1      -21.819  76.876  32.121  0.00  0.00    +0.109 C 
ATOM     36  C   LIG    1      -22.887  75.779  32.203  0.00  0.00    +0.029 C 
ATOM     37  C   LIG    1      -24.201  76.208  31.557  0.00  0.00    +0.033 C 
BRANCH  32  38
ATOM     38  O   LIG    1      -25.221  77.244  29.638  0.00  0.00    -0.392 OA
ATOM     39  H   LIG    1      -25.199  77.210  28.666  0.00  0.00    +0.210 HD
ENDBRANCH  32  38
ENDBRANCH  30  35
BRANCH  31  40
ATOM     40  O   LIG    1      -20.340  77.834  34.174  0.00  0.00    -0.491 OA
ATOM     41  H   LIG    1      -19.946  77.437  33.371  0.00  0.00    +0.294 HD
ENDBRANCH  31  40
ENDBRANCH   1  31
TORSDOF 8
ENDMDL
MODEL 8
REMARK VINA RESULT:      -6.5     17.800     20.722
REMARK  Name = pdb/CHEMBL3892570.pdb
REMARK                            x       y       z     vdW  Elec       q    Type
REMARK                         _______ _______ _______ _____ _____    ______ ____
ROOT
ATOM      1  C   LIG    1      -35.710  74.308  28.131  0.00  0.00    +0.149 A 
ATOM      2  N   LIG    1      -35.343  73.018  28.053  0.00  0.00    -0.160 NA
ATOM      3  N   LIG    1      -36.276  72.426  27.261  0.00  0.00    -0.218 N 
ATOM      4  C   LIG    1      -37.271  73.330  26.868  0.00  0.00    +0.129 A 
ATOM      5  C   LIG    1      -36.939  74.525  27.476  0.00  0.00    +0.078 A 
ENDROOT
BRANCH   3   6
ATOM      6  C   LIG    1      -36.127  71.044  26.950  0.00  0.00    +0.067 A 
ATOM      7  C   LIG    1      -35.174  70.583  26.036  0.00  0.00    +0.028 A 
ATOM      8  C   LIG    1      -35.097  69.215  25.745  0.00  0.00    +0.002 A 
ATOM      9  C   LIG    1      -35.961  68.309  26.362  0.00  0.00    +0.000 A 
ATOM     10  C   LIG    1      -36.884  68.758  27.300  0.00  0.00    +0.002 A 
ATOM     11  C   LIG    1      -36.957  70.118  27.608  0.00  0.00    +0.028 A 
ENDBRANCH   3   6
BRANCH   4  12
ATOM     12  N   LIG    1      -38.419  73.070  26.105  0.00  0.00    -0.266 N 
ATOM     13  H   LIG    1      -39.021  72.312  26.410  0.00  0.00    +0.157 HD
ATOM     14  C   LIG    1      -38.780  73.823  24.926  0.00  0.00    +0.251 C 
ATOM     15  O   LIG    1      -38.067  74.718  24.521  0.00  0.00    -0.270 OA
BRANCH  14  16
ATOM     16  C   LIG    1      -39.987  73.403  24.159  0.00  0.00    +0.056 A 
ATOM     17  C   LIG    1      -40.982  74.279  23.741  0.00  0.00    +0.054 A 
ATOM     18 CL   LIG    1      -40.927  75.982  24.010  0.00  0.00    -0.083 Cl
ATOM     19  C   LIG    1      -42.084  73.787  23.039  0.00  0.00    +0.041 A 
ATOM     20  C   LIG    1      -42.198  72.424  22.719  0.00  0.00    +0.052 A 
ATOM     21 CL   LIG    1      -43.642  72.016  21.855  0.00  0.00    -0.083 Cl
ATOM     22  C   LIG    1      -41.186  71.507  23.065  0.00  0.00    +0.019 A 
ATOM     23  C   LIG    1      -40.097  72.036  23.813  0.00  0.00    +0.026 A 
BRANCH  22  24
ATOM     24  C   LIG    1      -41.140  70.074  22.652  0.00  0.00    +0.072 A 
ATOM     25  N   LIG    1      -41.395  69.189  23.654  0.00  0.00    -0.255 NA
ATOM     26  C   LIG    1      -41.333  67.863  23.375  0.00  0.00    +0.111 A 
ATOM     27  C   LIG    1      -41.043  67.349  22.125  0.00  0.00    +0.020 A 
ATOM     28  C   LIG    1      -40.802  68.250  21.103  0.00  0.00    +0.004 A 
ATOM     29  C   LIG    1      -40.857  69.619  21.365  0.00  0.00    +0.028 A 
ENDBRANCH  22  24
ENDBRANCH  14  16
ENDBRANCH   4  12
BRANCH   1  31
ATOM     30  N   LIG    1      -34.558  76.415  28.372  0.00  0.00    -0.246 NA
ATOM     31  C   LIG    1      -34.841  75.250  28.838  0.00  0.00    +0.236 C 
BRANCH  30  35
ATOM     32  C   LIG    1      -32.365  78.895  27.069  0.00  0.00    +0.115 C 
ATOM     33  C   LIG    1      -33.771  79.215  27.577  0.00  0.00    +0.033 C 
ATOM     34  C   LIG    1      -34.014  78.724  29.002  0.00  0.00    +0.029 C 
ATOM     35  C   LIG    1      -33.651  77.246  29.191  0.00  0.00    +0.109 C 
ATOM     36  C   LIG    1      -32.193  77.027  28.770  0.00  0.00    +0.029 C 
ATOM     37  C   LIG    1      -31.942  77.449  27.325  0.00  0.00    +0.033 C 
BRANCH  32  38
ATOM     38  O   LIG    1      -32.304  79.158  25.668  0.00  0.00    -0.392 OA
ATOM     39  H   LIG    1      -31.608  78.588  25.297  0.00  0.00    +0.210 HD
ENDBRANCH  32  38
ENDBRANCH  30  35
BRANCH  31  40
ATOM     40  O   LIG    1      -34.348  74.762  30.001  0.00  0.00    -0.491 OA
ATOM     41  H   LIG    1      -35.014  74.159  30.389  0.00  0.00    +0.294 HD
ENDBRANCH  31  40
ENDBRANCH   1  31
TORSDOF 8
ENDMDL
MODEL 9
REMARK VINA RESULT:      -6.5     17.303     20.657
REMARK  Name = pdb/CHEMBL3892570.pdb
REMARK                            x       y       z     vdW  Elec       q    Type
REMARK                         _______ _______ _______ _____ _____    ______ ____
ROOT
ATOM      1  C   LIG    1      -31.611  74.353  29.859  0.00  0.00    +0.149 A 
ATOM      2  N   LIG    1      -31.573  75.647  29.498  0.00  0.00    -0.160 NA
ATOM      3  N   LIG    1      -32.633  75.819  28.664  0.00  0.00    -0.218 N 
ATOM      4  C   LIG    1      -33.326  74.621  28.453  0.00  0.00    +0.129 A 
ATOM      5  C   LIG    1      -32.634  73.667  29.173  0.00  0.00    +0.078 A 
ENDROOT
BRANCH   3   6
ATOM      6  C   LIG    1      -32.886  77.123  28.147  0.00  0.00    +0.067 A 
ATOM      7  C   LIG    1      -32.254  77.606  26.997  0.00  0.00    +0.028 A 
ATOM      8  C   LIG    1      -32.517  78.909  26.556  0.00  0.00    +0.002 A 
ATOM      9  C   LIG    1      -33.408  79.727  27.253  0.00  0.00    +0.000 A 
ATOM     10  C   LIG    1      -34.069  79.236  28.374  0.00  0.00    +0.002 A 
ATOM     11  C   LIG    1      -33.823  77.934  28.812  0.00  0.00    +0.028 A 
ENDBRANCH   3   6
BRANCH   4  12
ATOM     12  N   LIG    1      -34.427  74.400  27.612  0.00  0.00    -0.266 N 
ATOM     13  H   LIG    1      -34.241  74.035  26.684  0.00  0.00    +0.157 HD
ATOM     14  C   LIG    1      -35.793  74.659  28.004  0.00  0.00    +0.251 C 
ATOM     15  O   LIG    1      -36.046  75.120  29.098  0.00  0.00    -0.270 OA
BRANCH  14  16
ATOM     16  C   LIG    1      -36.871  74.452  26.996  0.00  0.00    +0.056 A 
ATOM     17  C   LIG    1      -37.346  73.202  26.615  0.00  0.00    +0.054 A 
ATOM     18 CL   LIG    1      -36.783  71.720  27.298  0.00  0.00    -0.083 Cl
ATOM     19  C   LIG    1      -38.350  73.110  25.650  0.00  0.00    +0.041 A 
ATOM     20  C   LIG    1      -38.916  74.258  25.071  0.00  0.00    +0.052 A 
ATOM     21 CL   LIG    1      -40.138  73.928  23.889  0.00  0.00    -0.083 Cl
ATOM     22  C   LIG    1      -38.514  75.548  25.469  0.00  0.00    +0.019 A 
ATOM     23  C   LIG    1      -37.462  75.604  26.426  0.00  0.00    +0.026 A 
BRANCH  22  24
ATOM     24  C   LIG    1      -39.145  76.825  25.026  0.00  0.00    +0.072 A 
ATOM     25  N   LIG    1      -40.193  77.234  25.791  0.00  0.00    -0.255 NA
ATOM     26  C   LIG    1      -40.851  78.365  25.433  0.00  0.00    +0.111 A 
ATOM     27  C   LIG    1      -40.512  79.145  24.343  0.00  0.00    +0.020 A 
ATOM     28  C   LIG    1      -39.434  78.737  23.575  0.00  0.00    +0.004 A 
ATOM     29  C   LIG    1      -38.743  77.576  23.922  0.00  0.00    +0.028 A 
ENDBRANCH  22  24
ENDBRANCH  14  16
ENDBRANCH   4  12
BRANCH   1  31
ATOM     30  N   LIG    1      -30.180  72.669  30.825  0.00  0.00    -0.246 NA
ATOM     31  C   LIG    1      -30.651  73.865  30.849  0.00  0.00    +0.236 C 
BRANCH  30  35
ATOM     32  C   LIG    1      -29.209  69.347  31.651  0.00  0.00    +0.115 C 
ATOM     33  C   LIG    1      -28.412  70.229  30.691  0.00  0.00    +0.033 C 
ATOM     34  C   LIG    1      -28.032  71.578  31.299  0.00  0.00    +0.029 C 
ATOM     35  C   LIG    1      -29.232  72.315  31.904  0.00  0.00    +0.109 C 
ATOM     36  C   LIG    1      -29.911  71.411  32.940  0.00  0.00    +0.029 C 
ATOM     37  C   LIG    1      -30.360  70.083  32.337  0.00  0.00    +0.033 C 
BRANCH  32  38
ATOM     38  O   LIG    1      -29.731  68.230  30.935  0.00  0.00    -0.392 OA
ATOM     39  H   LIG    1      -28.999  67.602  30.803  0.00  0.00    +0.210 HD
ENDBRANCH  32  38
ENDBRANCH  30  35
BRANCH  31  40
ATOM     40  O   LIG    1      -30.340  74.781  31.797  0.00  0.00    -0.491 OA
ATOM     41  H   LIG    1      -30.562  74.405  32.672  0.00  0.00    +0.294 HD
ENDBRANCH  31  40
ENDBRANCH   1  31
TORSDOF 8
ENDMDL
