MODEL 1
REMARK VINA RESULT:      -6.9      0.000      0.000
REMARK  Name = pdb/CHEMBL3890285.pdb
REMARK                            x       y       z     vdW  Elec       q    Type
REMARK                         _______ _______ _______ _____ _____    ______ ____
ROOT
ATOM      1  C   LIG    1      -38.036  77.013  26.162  0.00  0.00    +0.149 A 
ATOM      2  N   LIG    1      -39.098  76.879  25.354  0.00  0.00    -0.160 NA
ATOM      3  N   LIG    1      -39.102  75.576  24.968  0.00  0.00    -0.218 N 
ATOM      4  C   LIG    1      -37.937  74.921  25.400  0.00  0.00    +0.129 A 
ATOM      5  C   LIG    1      -37.298  75.816  26.215  0.00  0.00    +0.078 A 
ENDROOT
BRANCH   3   6
ATOM      6  C   LIG    1      -40.208  75.078  24.219  0.00  0.00    +0.067 A 
ATOM      7  C   LIG    1      -40.393  73.708  24.006  0.00  0.00    +0.028 A 
ATOM      8  C   LIG    1      -41.526  73.246  23.325  0.00  0.00    +0.002 A 
ATOM      9  C   LIG    1      -42.482  74.145  22.857  0.00  0.00    +0.000 A 
ATOM     10  C   LIG    1      -42.308  75.510  23.064  0.00  0.00    +0.002 A 
ATOM     11  C   LIG    1      -41.181  75.977  23.750  0.00  0.00    +0.028 A 
ENDBRANCH   3   6
BRANCH   4  12
ATOM     12  N   LIG    1      -37.451  73.660  25.038  0.00  0.00    -0.266 N 
ATOM     13  H   LIG    1      -36.921  73.589  24.179  0.00  0.00    +0.157 HD
ATOM     14  C   LIG    1      -37.602  72.485  25.870  0.00  0.00    +0.251 C 
ATOM     15  O   LIG    1      -38.192  72.513  26.933  0.00  0.00    -0.270 OA
BRANCH  14  16
ATOM     16  C   LIG    1      -36.935  71.238  25.425  0.00  0.00    +0.056 A 
ATOM     17  C   LIG    1      -35.815  70.712  26.045  0.00  0.00    +0.054 A 
ATOM     18 CL   LIG    1      -34.959  71.505  27.311  0.00  0.00    -0.083 Cl
ATOM     19  C   LIG    1      -35.299  69.496  25.612  0.00  0.00    +0.041 A 
ATOM     20  C   LIG    1      -35.863  68.818  24.521  0.00  0.00    +0.052 A 
ATOM     21 CL   LIG    1      -35.090  67.317  24.136  0.00  0.00    -0.083 Cl
ATOM     22  C   LIG    1      -36.948  69.363  23.799  0.00  0.00    +0.022 A 
ATOM     23  C   LIG    1      -37.479  70.579  24.296  0.00  0.00    +0.026 A 
BRANCH  22  24
ATOM     24  C   LIG    1      -37.526  68.743  22.577  0.00  0.00    +0.107 A 
ATOM     25  C   LIG    1      -38.564  67.804  22.605  0.00  0.00    +0.149 A 
ATOM     26  F   LIG    1      -39.099  67.382  23.760  0.00  0.00    -0.203 F 
ATOM     27  C   LIG    1      -39.077  67.294  21.416  0.00  0.00    +0.042 A 
ATOM     28  C   LIG    1      -38.559  67.742  20.209  0.00  0.00    +0.023 A 
ATOM     29  C   LIG    1      -37.528  68.661  20.249  0.00  0.00    +0.111 A 
ATOM     30  N   LIG    1      -36.991  69.142  21.396  0.00  0.00    -0.252 NA
ENDBRANCH  22  24
ENDBRANCH  14  16
ENDBRANCH   4  12
BRANCH   1  32
ATOM     31  N   LIG    1      -36.518  78.396  27.376  0.00  0.00    -0.241 NA
ATOM     32  C   LIG    1      -37.678  78.245  26.858  0.00  0.00    +0.236 C 
BRANCH  31  34
ATOM     33  C   LIG    1      -34.692  79.885  28.153  0.00  0.00    +0.167 C 
ATOM     34  C   LIG    1      -36.183  79.598  28.127  0.00  0.00    +0.165 C 
ATOM     35  C   LIG    1      -36.485  79.380  29.604  0.00  0.00    +0.189 C 
ATOM     36  O   LIG    1      -35.503  80.100  30.367  0.00  0.00    -0.375 OA
ATOM     37  C   LIG    1      -34.539  80.640  29.460  0.00  0.00    +0.193 C 
BRANCH  33  38
ATOM     38  O   LIG    1      -34.315  80.651  27.008  0.00  0.00    -0.387 OA
ATOM     39  H   LIG    1      -33.350  80.791  27.067  0.00  0.00    +0.210 HD
ENDBRANCH  33  38
ENDBRANCH  31  34
BRANCH  32  40
ATOM     40  O   LIG    1      -38.668  79.166  26.882  0.00  0.00    -0.491 OA
ATOM     41  H   LIG    1      -38.327  80.061  27.077  0.00  0.00    +0.294 HD
ENDBRANCH  32  40
ENDBRANCH   1  32
TORSDOF 8
ENDMDL
MODEL 2
REMARK VINA RESULT:      -6.9     18.523     19.825
REMARK  Name = pdb/CHEMBL3890285.pdb
REMARK                            x       y       z     vdW  Elec       q    Type
REMARK                         _______ _______ _______ _____ _____    ______ ____
ROOT
ATOM      1  C   LIG    1      -21.559  82.521  14.610  0.00  0.00    +0.149 A 
ATOM      2  N   LIG    1      -22.646  81.913  14.111  0.00  0.00    -0.160 NA
ATOM      3  N   LIG    1      -22.634  80.658  14.633  0.00  0.00    -0.218 N 
ATOM      4  C   LIG    1      -21.441  80.415  15.332  0.00  0.00    +0.129 A 
ATOM      5  C   LIG    1      -20.794  81.621  15.375  0.00  0.00    +0.078 A 
ENDROOT
BRANCH   3   6
ATOM      6  C   LIG    1      -23.755  79.805  14.410  0.00  0.00    +0.067 A 
ATOM      7  C   LIG    1      -23.767  78.863  13.377  0.00  0.00    +0.028 A 
ATOM      8  C   LIG    1      -24.853  77.992  13.228  0.00  0.00    +0.002 A 
ATOM      9  C   LIG    1      -25.930  78.052  14.109  0.00  0.00    +0.000 A 
ATOM     10  C   LIG    1      -25.929  78.986  15.141  0.00  0.00    +0.002 A 
ATOM     11  C   LIG    1      -24.842  79.853  15.300  0.00  0.00    +0.028 A 
ENDBRANCH   3   6
BRANCH   4  12
ATOM     12  N   LIG    1      -20.940  79.206  15.826  0.00  0.00    -0.266 N 
ATOM     13  H   LIG    1      -21.014  79.038  16.821  0.00  0.00    +0.157 HD
ATOM     14  C   LIG    1      -20.405  78.164  14.975  0.00  0.00    +0.251 C 
ATOM     15  O   LIG    1      -20.329  78.286  13.768  0.00  0.00    -0.270 OA
BRANCH  14  16
ATOM     16  C   LIG    1      -20.020  76.884  15.617  0.00  0.00    +0.056 A 
ATOM     17  C   LIG    1      -18.782  76.665  16.195  0.00  0.00    +0.054 A 
ATOM     18 CL   LIG    1      -17.476  77.785  16.116  0.00  0.00    -0.083 Cl
ATOM     19  C   LIG    1      -18.532  75.462  16.844  0.00  0.00    +0.041 A 
ATOM     20  C   LIG    1      -19.495  74.444  16.878  0.00  0.00    +0.052 A 
ATOM     21 CL   LIG    1      -19.004  73.024  17.740  0.00  0.00    -0.083 Cl
ATOM     22  C   LIG    1      -20.738  74.586  16.220  0.00  0.00    +0.022 A 
ATOM     23  C   LIG    1      -20.978  75.842  15.609  0.00  0.00    +0.026 A 
BRANCH  22  24
ATOM     24  C   LIG    1      -21.759  73.509  16.136  0.00  0.00    +0.107 A 
ATOM     25  C   LIG    1      -22.854  73.413  17.004  0.00  0.00    +0.149 A 
ATOM     26  F   LIG    1      -23.041  74.293  17.998  0.00  0.00    -0.203 F 
ATOM     27  C   LIG    1      -23.789  72.395  16.840  0.00  0.00    +0.042 A 
ATOM     28  C   LIG    1      -23.631  71.493  15.797  0.00  0.00    +0.023 A 
ATOM     29  C   LIG    1      -22.523  71.635  14.981  0.00  0.00    +0.111 A 
ATOM     30  N   LIG    1      -21.584  72.597  15.148  0.00  0.00    -0.252 NA
ENDBRANCH  22  24
ENDBRANCH  14  16
ENDBRANCH   4  12
BRANCH   1  32
ATOM     31  N   LIG    1      -22.074  84.846  14.468  0.00  0.00    -0.241 NA
ATOM     32  C   LIG    1      -21.204  83.914  14.360  0.00  0.00    +0.236 C 
BRANCH  31  34
ATOM     33  C   LIG    1      -22.067  87.189  15.283  0.00  0.00    +0.167 C 
ATOM     34  C   LIG    1      -21.736  86.228  14.155  0.00  0.00    +0.165 C 
ATOM     35  C   LIG    1      -22.637  86.734  13.037  0.00  0.00    +0.189 C 
ATOM     36  O   LIG    1      -22.892  88.129  13.272  0.00  0.00    -0.375 OA
ATOM     37  C   LIG    1      -22.313  88.483  14.531  0.00  0.00    +0.193 C 
BRANCH  33  38
ATOM     38  O   LIG    1      -20.978  87.267  16.204  0.00  0.00    -0.387 OA
ATOM     39  H   LIG    1      -20.491  86.423  16.138  0.00  0.00    +0.210 HD
ENDBRANCH  33  38
ENDBRANCH  31  34
BRANCH  32  40
ATOM     40  O   LIG    1      -19.906  84.095  14.024  0.00  0.00    -0.491 OA
ATOM     41  H   LIG    1      -19.579  84.973  14.300  0.00  0.00    +0.294 HD
ENDBRANCH  32  40
ENDBRANCH   1  32
TORSDOF 8
ENDMDL
MODEL 3
REMARK VINA RESULT:      -6.7      8.650     12.969
REMARK  Name = pdb/CHEMBL3890285.pdb
REMARK                            x       y       z     vdW  Elec       q    Type
REMARK                         _______ _______ _______ _____ _____    ______ ____
ROOT
ATOM      1  C   LIG    1      -31.770  87.115  30.233  0.00  0.00    +0.149 A 
ATOM      2  N   LIG    1      -32.651  87.918  29.618  0.00  0.00    -0.160 NA
ATOM      3  N   LIG    1      -33.679  87.112  29.245  0.00  0.00    -0.218 N 
ATOM      4  C   LIG    1      -33.370  85.762  29.475  0.00  0.00    +0.129 A 
ATOM      5  C   LIG    1      -32.188  85.773  30.166  0.00  0.00    +0.078 A 
ENDROOT
BRANCH   3   6
ATOM      6  C   LIG    1      -34.857  87.701  28.696  0.00  0.00    +0.067 A 
ATOM      7  C   LIG    1      -36.119  87.126  28.879  0.00  0.00    +0.028 A 
ATOM      8  C   LIG    1      -37.263  87.764  28.387  0.00  0.00    +0.002 A 
ATOM      9  C   LIG    1      -37.158  88.979  27.714  0.00  0.00    +0.000 A 
ATOM     10  C   LIG    1      -35.907  89.561  27.527  0.00  0.00    +0.002 A 
ATOM     11  C   LIG    1      -34.761  88.931  28.023  0.00  0.00    +0.028 A 
ENDBRANCH   3   6
BRANCH   4  12
ATOM     12  N   LIG    1      -34.048  84.617  29.041  0.00  0.00    -0.266 N 
ATOM     13  H   LIG    1      -33.876  84.298  28.097  0.00  0.00    +0.157 HD
ATOM     14  C   LIG    1      -34.909  83.834  29.902  0.00  0.00    +0.251 C 
ATOM     15  O   LIG    1      -35.124  84.140  31.059  0.00  0.00    -0.270 OA
BRANCH  14  16
ATOM     16  C   LIG    1      -35.470  82.577  29.351  0.00  0.00    +0.056 A 
ATOM     17  C   LIG    1      -36.828  82.318  29.278  0.00  0.00    +0.054 A 
ATOM     18 CL   LIG    1      -38.037  83.343  29.951  0.00  0.00    -0.083 Cl
ATOM     19  C   LIG    1      -37.271  81.147  28.676  0.00  0.00    +0.041 A 
ATOM     20  C   LIG    1      -36.363  80.196  28.185  0.00  0.00    +0.052 A 
ATOM     21 CL   LIG    1      -37.103  78.808  27.461  0.00  0.00    -0.083 Cl
ATOM     22  C   LIG    1      -34.968  80.375  28.322  0.00  0.00    +0.022 A 
ATOM     23  C   LIG    1      -34.551  81.600  28.899  0.00  0.00    +0.026 A 
BRANCH  22  24
ATOM     24  C   LIG    1      -33.959  79.362  27.913  0.00  0.00    +0.107 A 
ATOM     25  C   LIG    1      -33.701  78.192  28.637  0.00  0.00    +0.149 A 
ATOM     26  F   LIG    1      -34.348  77.916  29.780  0.00  0.00    -0.203 F 
ATOM     27  C   LIG    1      -32.766  77.273  28.171  0.00  0.00    +0.042 A 
ATOM     28  C   LIG    1      -32.109  77.524  26.975  0.00  0.00    +0.023 A 
ATOM     29  C   LIG    1      -32.400  78.703  26.313  0.00  0.00    +0.111 A 
ATOM     30  N   LIG    1      -33.280  79.626  26.769  0.00  0.00    -0.252 NA
ENDBRANCH  22  24
ENDBRANCH  14  16
ENDBRANCH   4  12
BRANCH   1  32
ATOM     31  N   LIG    1      -30.377  87.540  32.123  0.00  0.00    -0.241 NA
ATOM     32  C   LIG    1      -30.529  87.571  30.854  0.00  0.00    +0.236 C 
BRANCH  31  34
ATOM     33  C   LIG    1      -28.910  87.468  34.123  0.00  0.00    +0.167 C 
ATOM     34  C   LIG    1      -29.166  88.056  32.746  0.00  0.00    +0.165 C 
ATOM     35  C   LIG    1      -29.344  89.534  33.065  0.00  0.00    +0.189 C 
ATOM     36  O   LIG    1      -28.628  89.814  34.279  0.00  0.00    -0.375 OA
ATOM     37  C   LIG    1      -28.129  88.579  34.799  0.00  0.00    +0.193 C 
BRANCH  33  38
ATOM     38  O   LIG    1      -28.178  86.246  34.012  0.00  0.00    -0.387 OA
ATOM     39  H   LIG    1      -27.257  86.444  34.271  0.00  0.00    +0.210 HD
ENDBRANCH  33  38
ENDBRANCH  31  34
BRANCH  32  40
ATOM     40  O   LIG    1      -29.603  88.002  29.968  0.00  0.00    -0.491 OA
ATOM     41  H   LIG    1      -28.851  88.440  30.413  0.00  0.00    +0.294 HD
ENDBRANCH  32  40
ENDBRANCH   1  32
TORSDOF 8
ENDMDL
MODEL 4
REMARK VINA RESULT:      -6.7      4.257      9.305
REMARK  Name = pdb/CHEMBL3890285.pdb
REMARK                            x       y       z     vdW  Elec       q    Type
REMARK                         _______ _______ _______ _____ _____    ______ ____
ROOT
ATOM      1  C   LIG    1      -40.836  73.223  23.637  0.00  0.00    +0.149 A 
ATOM      2  N   LIG    1      -41.107  74.521  23.839  0.00  0.00    -0.160 NA
ATOM      3  N   LIG    1      -39.966  75.056  24.348  0.00  0.00    -0.218 N 
ATOM      4  C   LIG    1      -39.023  74.054  24.629  0.00  0.00    +0.129 A 
ATOM      5  C   LIG    1      -39.552  72.903  24.111  0.00  0.00    +0.078 A 
ENDROOT
BRANCH   3   6
ATOM      6  C   LIG    1      -39.883  76.468  24.529  0.00  0.00    +0.067 A 
ATOM      7  C   LIG    1      -39.842  77.347  23.442  0.00  0.00    +0.028 A 
ATOM      8  C   LIG    1      -39.830  78.731  23.652  0.00  0.00    +0.002 A 
ATOM      9  C   LIG    1      -39.862  79.247  24.945  0.00  0.00    +0.000 A 
ATOM     10  C   LIG    1      -39.903  78.382  26.035  0.00  0.00    +0.002 A 
ATOM     11  C   LIG    1      -39.923  76.998  25.830  0.00  0.00    +0.028 A 
ENDBRANCH   3   6
BRANCH   4  12
ATOM     12  N   LIG    1      -37.826  74.148  25.349  0.00  0.00    -0.266 N 
ATOM     13  H   LIG    1      -36.977  74.326  24.828  0.00  0.00    +0.157 HD
ATOM     14  C   LIG    1      -37.764  74.084  26.793  0.00  0.00    +0.251 C 
ATOM     15  O   LIG    1      -38.754  73.915  27.479  0.00  0.00    -0.270 OA
BRANCH  14  16
ATOM     16  C   LIG    1      -36.448  74.319  27.435  0.00  0.00    +0.056 A 
ATOM     17  C   LIG    1      -35.731  73.328  28.083  0.00  0.00    +0.054 A 
ATOM     18 CL   LIG    1      -36.330  71.738  28.363  0.00  0.00    -0.083 Cl
ATOM     19  C   LIG    1      -34.469  73.615  28.589  0.00  0.00    +0.041 A 
ATOM     20  C   LIG    1      -33.931  74.908  28.502  0.00  0.00    +0.052 A 
ATOM     21 CL   LIG    1      -32.346  75.069  29.180  0.00  0.00    -0.083 Cl
ATOM     22  C   LIG    1      -34.666  75.972  27.934  0.00  0.00    +0.022 A 
ATOM     23  C   LIG    1      -35.928  75.634  27.385  0.00  0.00    +0.026 A 
BRANCH  22  24
ATOM     24  C   LIG    1      -34.193  77.382  27.900  0.00  0.00    +0.107 A 
ATOM     25  C   LIG    1      -33.119  77.817  27.115  0.00  0.00    +0.149 A 
ATOM     26  F   LIG    1      -32.423  76.968  26.343  0.00  0.00    -0.203 F 
ATOM     27  C   LIG    1      -32.756  79.161  27.109  0.00  0.00    +0.042 A 
ATOM     28  C   LIG    1      -33.484  80.061  27.875  0.00  0.00    +0.023 A 
ATOM     29  C   LIG    1      -34.526  79.566  28.637  0.00  0.00    +0.111 A 
ATOM     30  N   LIG    1      -34.871  78.257  28.684  0.00  0.00    -0.252 NA
ENDBRANCH  22  24
ENDBRANCH  14  16
ENDBRANCH   4  12
BRANCH   1  32
ATOM     31  N   LIG    1      -42.387  72.544  21.956  0.00  0.00    -0.241 NA
ATOM     32  C   LIG    1      -41.767  72.269  23.040  0.00  0.00    +0.236 C 
BRANCH  31  34
ATOM     33  C   LIG    1      -42.951  71.068  20.042  0.00  0.00    +0.167 C 
ATOM     34  C   LIG    1      -43.364  71.620  21.396  0.00  0.00    +0.165 C 
ATOM     35  C   LIG    1      -44.641  72.373  21.050  0.00  0.00    +0.189 C 
ATOM     36  O   LIG    1      -45.206  71.769  19.874  0.00  0.00    -0.375 OA
ATOM     37  C   LIG    1      -44.293  70.778  19.398  0.00  0.00    +0.193 C 
BRANCH  33  38
ATOM     38  O   LIG    1      -42.137  69.906  20.208  0.00  0.00    -0.387 OA
ATOM     39  H   LIG    1      -41.559  69.852  19.423  0.00  0.00    +0.210 HD
ENDBRANCH  33  38
ENDBRANCH  31  34
BRANCH  32  40
ATOM     40  O   LIG    1      -41.882  71.113  23.732  0.00  0.00    -0.491 OA
ATOM     41  H   LIG    1      -41.330  70.404  23.349  0.00  0.00    +0.294 HD
ENDBRANCH  32  40
ENDBRANCH   1  32
TORSDOF 8
ENDMDL
MODEL 5
REMARK VINA RESULT:      -6.6      4.651      7.329
REMARK  Name = pdb/CHEMBL3890285.pdb
REMARK                            x       y       z     vdW  Elec       q    Type
REMARK                         _______ _______ _______ _____ _____    ______ ____
ROOT
ATOM      1  C   LIG    1      -37.439  76.363  25.969  0.00  0.00    +0.149 A 
ATOM      2  N   LIG    1      -37.773  75.066  25.894  0.00  0.00    -0.160 NA
ATOM      3  N   LIG    1      -38.767  74.999  24.970  0.00  0.00    -0.218 N 
ATOM      4  C   LIG    1      -39.181  76.283  24.582  0.00  0.00    +0.129 A 
ATOM      5  C   LIG    1      -38.289  77.143  25.164  0.00  0.00    +0.078 A 
ENDROOT
BRANCH   3   6
ATOM      6  C   LIG    1      -39.237  73.720  24.549  0.00  0.00    +0.067 A 
ATOM      7  C   LIG    1      -40.483  73.561  23.935  0.00  0.00    +0.028 A 
ATOM      8  C   LIG    1      -40.886  72.303  23.470  0.00  0.00    +0.002 A 
ATOM      9  C   LIG    1      -40.049  71.199  23.611  0.00  0.00    +0.000 A 
ATOM     10  C   LIG    1      -38.806  71.345  24.220  0.00  0.00    +0.002 A 
ATOM     11  C   LIG    1      -38.395  72.602  24.679  0.00  0.00    +0.028 A 
ENDBRANCH   3   6
BRANCH   4  12
ATOM     12  N   LIG    1      -40.302  76.659  23.832  0.00  0.00    -0.266 N 
ATOM     13  H   LIG    1      -40.201  76.700  22.826  0.00  0.00    +0.157 HD
ATOM     14  C   LIG    1      -41.601  76.906  24.419  0.00  0.00    +0.251 C 
ATOM     15  O   LIG    1      -41.798  76.831  25.617  0.00  0.00    -0.270 OA
BRANCH  14  16
ATOM     16  C   LIG    1      -42.731  77.178  23.498  0.00  0.00    +0.056 A 
ATOM     17  C   LIG    1      -43.290  78.433  23.330  0.00  0.00    +0.054 A 
ATOM     18 CL   LIG    1      -42.858  79.808  24.272  0.00  0.00    -0.083 Cl
ATOM     19  C   LIG    1      -44.295  78.614  22.388  0.00  0.00    +0.041 A 
ATOM     20  C   LIG    1      -44.789  77.536  21.639  0.00  0.00    +0.052 A 
ATOM     21 CL   LIG    1      -46.032  77.960  20.510  0.00  0.00    -0.083 Cl
ATOM     22  C   LIG    1      -44.314  76.221  21.844  0.00  0.00    +0.022 A 
ATOM     23  C   LIG    1      -43.258  76.079  22.777  0.00  0.00    +0.026 A 
BRANCH  22  24
ATOM     24  C   LIG    1      -44.865  75.024  21.154  0.00  0.00    +0.107 A 
ATOM     25  C   LIG    1      -44.753  74.808  19.775  0.00  0.00    +0.149 A 
ATOM     26  F   LIG    1      -44.148  75.695  18.971  0.00  0.00    -0.203 F 
ATOM     27  C   LIG    1      -45.263  73.645  19.206  0.00  0.00    +0.042 A 
ATOM     28  C   LIG    1      -45.864  72.699  20.025  0.00  0.00    +0.023 A 
ATOM     29  C   LIG    1      -45.952  72.977  21.377  0.00  0.00    +0.111 A 
ATOM     30  N   LIG    1      -45.494  74.119  21.943  0.00  0.00    -0.252 NA
ENDBRANCH  22  24
ENDBRANCH  14  16
ENDBRANCH   4  12
BRANCH   1  32
ATOM     31  N   LIG    1      -35.334  76.183  27.078  0.00  0.00    -0.241 NA
ATOM     32  C   LIG    1      -36.363  76.892  26.802  0.00  0.00    +0.236 C 
BRANCH  31  34
ATOM     33  C   LIG    1      -33.184  77.412  27.220  0.00  0.00    +0.167 C 
ATOM     34  C   LIG    1      -34.292  76.686  27.962  0.00  0.00    +0.165 C 
ATOM     35  C   LIG    1      -33.539  75.517  28.583  0.00  0.00    +0.189 C 
ATOM     36  O   LIG    1      -32.166  75.910  28.741  0.00  0.00    -0.375 OA
ATOM     37  C   LIG    1      -31.996  77.195  28.138  0.00  0.00    +0.193 C 
BRANCH  33  38
ATOM     38  O   LIG    1      -33.522  78.789  27.047  0.00  0.00    -0.387 OA
ATOM     39  H   LIG    1      -34.028  78.853  26.213  0.00  0.00    +0.210 HD
ENDBRANCH  33  38
ENDBRANCH  31  34
BRANCH  32  40
ATOM     40  O   LIG    1      -36.569  78.161  27.220  0.00  0.00    -0.491 OA
ATOM     41  H   LIG    1      -37.422  78.255  27.688  0.00  0.00    +0.294 HD
ENDBRANCH  32  40
ENDBRANCH   1  32
TORSDOF 8
ENDMDL
MODEL 6
REMARK VINA RESULT:      -6.6     19.706     22.675
REMARK  Name = pdb/CHEMBL3890285.pdb
REMARK                            x       y       z     vdW  Elec       q    Type
REMARK                         _______ _______ _______ _____ _____    ______ ____
ROOT
ATOM      1  C   LIG    1      -24.514  79.092  14.888  0.00  0.00    +0.149 A 
ATOM      2  N   LIG    1      -23.337  78.466  15.037  0.00  0.00    -0.160 NA
ATOM      3  N   LIG    1      -22.406  79.453  15.115  0.00  0.00    -0.218 N 
ATOM      4  C   LIG    1      -22.978  80.706  14.843  0.00  0.00    +0.129 A 
ATOM      5  C   LIG    1      -24.326  80.481  14.769  0.00  0.00    +0.078 A 
ENDROOT
BRANCH   3   6
ATOM      6  C   LIG    1      -21.059  79.111  15.433  0.00  0.00    +0.067 A 
ATOM      7  C   LIG    1      -20.322  79.831  16.379  0.00  0.00    +0.028 A 
ATOM      8  C   LIG    1      -19.025  79.428  16.720  0.00  0.00    +0.002 A 
ATOM      9  C   LIG    1      -18.456  78.305  16.123  0.00  0.00    +0.000 A 
ATOM     10  C   LIG    1      -19.181  77.581  15.179  0.00  0.00    +0.002 A 
ATOM     11  C   LIG    1      -20.480  77.975  14.841  0.00  0.00    +0.028 A 
ENDBRANCH   3   6
BRANCH   4  12
ATOM     12  N   LIG    1      -22.344  81.932  14.610  0.00  0.00    -0.266 N 
ATOM     13  H   LIG    1      -22.189  82.539  15.404  0.00  0.00    +0.157 HD
ATOM     14  C   LIG    1      -21.833  82.325  13.314  0.00  0.00    +0.251 C 
ATOM     15  O   LIG    1      -21.950  81.621  12.329  0.00  0.00    -0.270 OA
BRANCH  14  16
ATOM     16  C   LIG    1      -21.076  83.597  13.232  0.00  0.00    +0.056 A 
ATOM     17  C   LIG    1      -19.743  83.712  13.587  0.00  0.00    +0.054 A 
ATOM     18 CL   LIG    1      -18.831  82.444  14.311  0.00  0.00    -0.083 Cl
ATOM     19  C   LIG    1      -19.087  84.923  13.405  0.00  0.00    +0.041 A 
ATOM     20  C   LIG    1      -19.768  86.048  12.915  0.00  0.00    +0.052 A 
ATOM     21 CL   LIG    1      -18.782  87.462  12.748  0.00  0.00    -0.083 Cl
ATOM     22  C   LIG    1      -21.151  86.003  12.628  0.00  0.00    +0.022 A 
ATOM     23  C   LIG    1      -21.777  84.741  12.781  0.00  0.00    +0.026 A 
BRANCH  22  24
ATOM     24  C   LIG    1      -21.948  87.183  12.202  0.00  0.00    +0.107 A 
ATOM     25  C   LIG    1      -22.584  88.051  13.098  0.00  0.00    +0.149 A 
ATOM     26  F   LIG    1      -22.529  87.855  14.424  0.00  0.00    -0.203 F 
ATOM     27  C   LIG    1      -23.283  89.156  12.623  0.00  0.00    +0.042 A 
ATOM     28  C   LIG    1      -23.325  89.395  11.257  0.00  0.00    +0.023 A 
ATOM     29  C   LIG    1      -22.686  88.495  10.424  0.00  0.00    +0.111 A 
ATOM     30  N   LIG    1      -22.031  87.394  10.864  0.00  0.00    -0.252 NA
ENDBRANCH  22  24
ENDBRANCH  14  16
ENDBRANCH   4  12
BRANCH   1  32
ATOM     31  N   LIG    1      -26.092  77.636  13.848  0.00  0.00    -0.241 NA
ATOM     32  C   LIG    1      -25.807  78.417  14.820  0.00  0.00    +0.236 C 
BRANCH  31  34
ATOM     33  C   LIG    1      -27.340  75.556  13.325  0.00  0.00    +0.167 C 
ATOM     34  C   LIG    1      -27.405  77.013  13.746  0.00  0.00    +0.165 C 
ATOM     35  C   LIG    1      -28.179  77.638  12.594  0.00  0.00    +0.189 C 
ATOM     36  O   LIG    1      -28.995  76.613  12.002  0.00  0.00    -0.375 OA
ATOM     37  C   LIG    1      -28.675  75.369  12.631  0.00  0.00    +0.193 C 
BRANCH  33  38
ATOM     38  O   LIG    1      -27.173  74.716  14.469  0.00  0.00    -0.387 OA
ATOM     39  H   LIG    1      -28.066  74.544  14.826  0.00  0.00    +0.210 HD
ENDBRANCH  33  38
ENDBRANCH  31  34
BRANCH  32  40
ATOM     40  O   LIG    1      -26.624  78.696  15.861  0.00  0.00    -0.491 OA
ATOM     41  H   LIG    1      -26.527  79.620  16.161  0.00  0.00    +0.294 HD
ENDBRANCH  32  40
ENDBRANCH   1  32
TORSDOF 8
ENDMDL
MODEL 7
REMARK VINA RESULT:      -6.6      3.945      9.605
REMARK  Name = pdb/CHEMBL3890285.pdb
REMARK                            x       y       z     vdW  Elec       q    Type
REMARK                         _______ _______ _______ _____ _____    ______ ____
ROOT
ATOM      1  C   LIG    1      -37.891  70.285  23.942  0.00  0.00    +0.149 A 
ATOM      2  N   LIG    1      -39.155  70.695  23.759  0.00  0.00    -0.160 NA
ATOM      3  N   LIG    1      -39.157  72.018  24.071  0.00  0.00    -0.218 N 
ATOM      4  C   LIG    1      -37.924  72.408  24.617  0.00  0.00    +0.129 A 
ATOM      5  C   LIG    1      -37.102  71.324  24.468  0.00  0.00    +0.078 A 
ENDROOT
BRANCH   3   6
ATOM      6  C   LIG    1      -40.334  72.785  23.828  0.00  0.00    +0.067 A 
ATOM      7  C   LIG    1      -40.330  74.181  23.907  0.00  0.00    +0.028 A 
ATOM      8  C   LIG    1      -41.484  74.910  23.596  0.00  0.00    +0.002 A 
ATOM      9  C   LIG    1      -42.647  74.252  23.201  0.00  0.00    +0.000 A 
ATOM     10  C   LIG    1      -42.663  72.862  23.119  0.00  0.00    +0.002 A 
ATOM     11  C   LIG    1      -41.510  72.130  23.421  0.00  0.00    +0.028 A 
ENDBRANCH   3   6
BRANCH   4  12
ATOM     12  N   LIG    1      -37.584  73.605  25.259  0.00  0.00    -0.266 N 
ATOM     13  H   LIG    1      -37.065  74.292  24.727  0.00  0.00    +0.157 HD
ATOM     14  C   LIG    1      -38.008  73.930  26.603  0.00  0.00    +0.251 C 
ATOM     15  O   LIG    1      -38.669  73.166  27.280  0.00  0.00    -0.270 OA
BRANCH  14  16
ATOM     16  C   LIG    1      -37.680  75.282  27.118  0.00  0.00    +0.056 A 
ATOM     17  C   LIG    1      -38.639  76.232  27.423  0.00  0.00    +0.054 A 
ATOM     18 CL   LIG    1      -40.320  76.034  27.106  0.00  0.00    -0.083 Cl
ATOM     19  C   LIG    1      -38.249  77.446  27.975  0.00  0.00    +0.041 A 
ATOM     20  C   LIG    1      -36.895  77.747  28.180  0.00  0.00    +0.052 A 
ATOM     21 CL   LIG    1      -36.606  79.302  28.885  0.00  0.00    -0.083 Cl
ATOM     22  C   LIG    1      -35.876  76.846  27.796  0.00  0.00    +0.022 A 
ATOM     23  C   LIG    1      -36.310  75.599  27.281  0.00  0.00    +0.026 A 
BRANCH  22  24
ATOM     24  C   LIG    1      -34.423  77.145  27.896  0.00  0.00    +0.107 A 
ATOM     25  C   LIG    1      -33.598  76.640  28.908  0.00  0.00    +0.149 A 
ATOM     26  F   LIG    1      -34.082  75.855  29.883  0.00  0.00    -0.203 F 
ATOM     27  C   LIG    1      -32.239  76.937  28.915  0.00  0.00    +0.042 A 
ATOM     28  C   LIG    1      -31.712  77.720  27.897  0.00  0.00    +0.023 A 
ATOM     29  C   LIG    1      -32.581  78.197  26.933  0.00  0.00    +0.111 A 
ATOM     30  N   LIG    1      -33.913  77.949  26.931  0.00  0.00    -0.252 NA
ENDBRANCH  22  24
ENDBRANCH  14  16
ENDBRANCH   4  12
BRANCH   1  32
ATOM     31  N   LIG    1      -36.602  68.704  22.704  0.00  0.00    -0.241 NA
ATOM     32  C   LIG    1      -37.413  68.933  23.666  0.00  0.00    +0.236 C 
BRANCH  31  34
ATOM     33  C   LIG    1      -34.699  67.112  22.648  0.00  0.00    +0.167 C 
ATOM     34  C   LIG    1      -36.177  67.347  22.388  0.00  0.00    +0.165 C 
ATOM     35  C   LIG    1      -36.271  67.119  20.886  0.00  0.00    +0.189 C 
ATOM     36  O   LIG    1      -35.199  66.239  20.504  0.00  0.00    -0.375 OA
ATOM     37  C   LIG    1      -34.375  66.016  21.651  0.00  0.00    +0.193 C 
BRANCH  33  38
ATOM     38  O   LIG    1      -34.490  66.723  24.007  0.00  0.00    -0.387 OA
ATOM     39  H   LIG    1      -33.539  66.518  24.098  0.00  0.00    +0.210 HD
ENDBRANCH  33  38
ENDBRANCH  31  34
BRANCH  32  40
ATOM     40  O   LIG    1      -37.902  67.998  24.513  0.00  0.00    -0.491 OA
ATOM     41  H   LIG    1      -38.449  67.337  24.046  0.00  0.00    +0.294 HD
ENDBRANCH  32  40
ENDBRANCH   1  32
TORSDOF 8
ENDMDL
MODEL 8
REMARK VINA RESULT:      -6.5      4.431     10.153
REMARK  Name = pdb/CHEMBL3890285.pdb
REMARK                            x       y       z     vdW  Elec       q    Type
REMARK                         _______ _______ _______ _____ _____    ______ ____
ROOT
ATOM      1  C   LIG    1      -37.928  70.691  24.711  0.00  0.00    +0.149 A 
ATOM      2  N   LIG    1      -37.335  69.529  25.019  0.00  0.00    -0.160 NA
ATOM      3  N   LIG    1      -36.349  69.844  25.900  0.00  0.00    -0.218 N 
ATOM      4  C   LIG    1      -36.208  71.236  26.019  0.00  0.00    +0.129 A 
ATOM      5  C   LIG    1      -37.257  71.768  25.319  0.00  0.00    +0.078 A 
ENDROOT
BRANCH   3   6
ATOM      6  C   LIG    1      -35.627  68.793  26.538  0.00  0.00    +0.067 A 
ATOM      7  C   LIG    1      -34.840  67.894  25.811  0.00  0.00    +0.028 A 
ATOM      8  C   LIG    1      -34.089  66.917  26.474  0.00  0.00    +0.002 A 
ATOM      9  C   LIG    1      -34.114  66.831  27.864  0.00  0.00    +0.000 A 
ATOM     10  C   LIG    1      -34.894  67.720  28.598  0.00  0.00    +0.002 A 
ATOM     11  C   LIG    1      -35.640  68.705  27.941  0.00  0.00    +0.028 A 
ENDBRANCH   3   6
BRANCH   4  12
ATOM     12  N   LIG    1      -35.190  71.968  26.641  0.00  0.00    -0.266 N 
ATOM     13  H   LIG    1      -34.306  72.050  26.154  0.00  0.00    +0.157 HD
ATOM     14  C   LIG    1      -35.371  72.671  27.893  0.00  0.00    +0.251 C 
ATOM     15  O   LIG    1      -36.421  72.647  28.506  0.00  0.00    -0.270 OA
BRANCH  14  16
ATOM     16  C   LIG    1      -34.248  73.507  28.379  0.00  0.00    +0.056 A 
ATOM     17  C   LIG    1      -33.196  73.007  29.127  0.00  0.00    +0.054 A 
ATOM     18 CL   LIG    1      -33.124  71.393  29.721  0.00  0.00    -0.083 Cl
ATOM     19  C   LIG    1      -32.144  73.846  29.476  0.00  0.00    +0.041 A 
ATOM     20  C   LIG    1      -32.154  75.204  29.127  0.00  0.00    +0.052 A 
ATOM     21 CL   LIG    1      -30.754  76.084  29.641  0.00  0.00    -0.083 Cl
ATOM     22  C   LIG    1      -33.251  75.779  28.446  0.00  0.00    +0.022 A 
ATOM     23  C   LIG    1      -34.284  74.887  28.065  0.00  0.00    +0.026 A 
BRANCH  22  24
ATOM     24  C   LIG    1      -33.366  77.229  28.136  0.00  0.00    +0.107 A 
ATOM     25  C   LIG    1      -32.629  77.864  27.129  0.00  0.00    +0.149 A 
ATOM     26  F   LIG    1      -31.740  77.195  26.381  0.00  0.00    -0.203 F 
ATOM     27  C   LIG    1      -32.818  79.219  26.874  0.00  0.00    +0.042 A 
ATOM     28  C   LIG    1      -33.757  79.923  27.615  0.00  0.00    +0.023 A 
ATOM     29  C   LIG    1      -34.444  79.241  28.602  0.00  0.00    +0.111 A 
ATOM     30  N   LIG    1      -34.248  77.932  28.890  0.00  0.00    -0.252 NA
ENDBRANCH  22  24
ENDBRANCH  14  16
ENDBRANCH   4  12
BRANCH   1  32
ATOM     31  N   LIG    1      -39.476  69.842  23.107  0.00  0.00    -0.241 NA
ATOM     32  C   LIG    1      -39.089  70.820  23.835  0.00  0.00    +0.236 C 
BRANCH  31  34
ATOM     33  C   LIG    1      -41.931  69.632  22.810  0.00  0.00    +0.167 C 
ATOM     34  C   LIG    1      -40.594  69.990  22.185  0.00  0.00    +0.165 C 
ATOM     35  C   LIG    1      -40.480  68.956  21.073  0.00  0.00    +0.189 C 
ATOM     36  O   LIG    1      -41.811  68.557  20.703  0.00  0.00    -0.375 OA
ATOM     37  C   LIG    1      -42.731  69.180  21.603  0.00  0.00    +0.193 C 
BRANCH  33  38
ATOM     38  O   LIG    1      -42.491  70.769  23.468  0.00  0.00    -0.387 OA
ATOM     39  H   LIG    1      -42.382  70.622  24.428  0.00  0.00    +0.210 HD
ENDBRANCH  33  38
ENDBRANCH  31  34
BRANCH  32  40
ATOM     40  O   LIG    1      -39.680  72.035  23.887  0.00  0.00    -0.491 OA
ATOM     41  H   LIG    1      -39.024  72.757  23.929  0.00  0.00    +0.294 HD
ENDBRANCH  32  40
ENDBRANCH   1  32
TORSDOF 8
ENDMDL
MODEL 9
REMARK VINA RESULT:      -6.5      2.831      3.629
REMARK  Name = pdb/CHEMBL3890285.pdb
REMARK                            x       y       z     vdW  Elec       q    Type
REMARK                         _______ _______ _______ _____ _____    ______ ____
ROOT
ATOM      1  C   LIG    1      -37.517  76.639  26.234  0.00  0.00    +0.149 A 
ATOM      2  N   LIG    1      -38.503  77.379  25.704  0.00  0.00    -0.160 NA
ATOM      3  N   LIG    1      -39.292  76.504  25.027  0.00  0.00    -0.218 N 
ATOM      4  C   LIG    1      -38.707  75.228  24.985  0.00  0.00    +0.129 A 
ATOM      5  C   LIG    1      -37.618  75.302  25.811  0.00  0.00    +0.078 A 
ENDROOT
BRANCH   3   6
ATOM      6  C   LIG    1      -40.523  76.965  24.474  0.00  0.00    +0.067 A 
ATOM      7  C   LIG    1      -41.255  76.193  23.566  0.00  0.00    +0.028 A 
ATOM      8  C   LIG    1      -42.494  76.643  23.095  0.00  0.00    +0.002 A 
ATOM      9  C   LIG    1      -43.013  77.861  23.528  0.00  0.00    +0.000 A 
ATOM     10  C   LIG    1      -42.293  78.637  24.432  0.00  0.00    +0.002 A 
ATOM     11  C   LIG    1      -41.057  78.189  24.912  0.00  0.00    +0.028 A 
ENDBRANCH   3   6
BRANCH   4  12
ATOM     12  N   LIG    1      -39.074  74.115  24.220  0.00  0.00    -0.266 N 
ATOM     13  H   LIG    1      -38.699  74.045  23.283  0.00  0.00    +0.157 HD
ATOM     14  C   LIG    1      -39.889  73.035  24.734  0.00  0.00    +0.251 C 
ATOM     15  O   LIG    1      -40.335  73.039  25.865  0.00  0.00    -0.270 OA
BRANCH  14  16
ATOM     16  C   LIG    1      -40.103  71.859  23.856  0.00  0.00    +0.056 A 
ATOM     17  C   LIG    1      -41.247  71.674  23.099  0.00  0.00    +0.054 A 
ATOM     18 CL   LIG    1      -42.631  72.694  23.187  0.00  0.00    -0.083 Cl
ATOM     19  C   LIG    1      -41.332  70.582  22.243  0.00  0.00    +0.041 A 
ATOM     20  C   LIG    1      -40.299  69.635  22.172  0.00  0.00    +0.052 A 
ATOM     21 CL   LIG    1      -40.582  68.353  21.043  0.00  0.00    -0.083 Cl
ATOM     22  C   LIG    1      -39.155  69.733  22.995  0.00  0.00    +0.022 A 
ATOM     23  C   LIG    1      -39.079  70.882  23.821  0.00  0.00    +0.026 A 
BRANCH  22  24
ATOM     24  C   LIG    1      -38.075  68.712  23.038  0.00  0.00    +0.107 A 
ATOM     25  C   LIG    1      -37.119  68.556  22.027  0.00  0.00    +0.149 A 
ATOM     26  F   LIG    1      -37.132  69.320  20.924  0.00  0.00    -0.203 F 
ATOM     27  C   LIG    1      -36.115  67.601  22.155  0.00  0.00    +0.042 A 
ATOM     28  C   LIG    1      -36.065  66.822  23.303  0.00  0.00    +0.023 A 
ATOM     29  C   LIG    1      -37.044  67.017  24.259  0.00  0.00    +0.111 A 
ATOM     30  N   LIG    1      -38.049  67.917  24.136  0.00  0.00    -0.252 NA
ENDBRANCH  22  24
ENDBRANCH  14  16
ENDBRANCH   4  12
BRANCH   1  32
ATOM     31  N   LIG    1      -35.232  76.921  26.859  0.00  0.00    -0.241 NA
ATOM     32  C   LIG    1      -36.465  77.164  27.099  0.00  0.00    +0.236 C 
BRANCH  31  34
ATOM     33  C   LIG    1      -33.038  78.068  27.031  0.00  0.00    +0.167 C 
ATOM     34  C   LIG    1      -34.186  77.389  27.758  0.00  0.00    +0.165 C 
ATOM     35  C   LIG    1      -33.490  76.195  28.398  0.00  0.00    +0.189 C 
ATOM     36  O   LIG    1      -32.105  76.536  28.577  0.00  0.00    -0.375 OA
ATOM     37  C   LIG    1      -31.875  77.810  27.970  0.00  0.00    +0.193 C 
BRANCH  33  38
ATOM     38  O   LIG    1      -33.321  79.456  26.845  0.00  0.00    -0.387 OA
ATOM     39  H   LIG    1      -33.033  79.914  27.659  0.00  0.00    +0.210 HD
ENDBRANCH  33  38
ENDBRANCH  31  34
BRANCH  32  40
ATOM     40  O   LIG    1      -36.926  77.908  28.130  0.00  0.00    -0.491 OA
ATOM     41  H   LIG    1      -36.632  77.554  28.992  0.00  0.00    +0.294 HD
ENDBRANCH  32  40
ENDBRANCH   1  32
TORSDOF 8
ENDMDL
