MODEL 1
REMARK VINA RESULT:      -6.2      0.000      0.000
REMARK  Name = pdb/CHEMBL3671436.pdb
REMARK                            x       y       z     vdW  Elec       q    Type
REMARK                         _______ _______ _______ _____ _____    ______ ____
ROOT
ATOM      1  C   LIG    1      -34.885  72.592  28.855  0.00  0.00    +0.197 C 
ATOM      2  O   LIG    1      -35.180  72.321  30.028  0.00  0.00    -0.287 OA
ENDROOT
BRANCH   1  10
ATOM      3  N   LIG    1      -33.882  76.018  27.927  0.00  0.00    -0.323 N 
ATOM      4  C   LIG    1      -35.196  75.998  27.506  0.00  0.00    +0.147 A 
ATOM      5  N   LIG    1      -35.846  77.002  26.898  0.00  0.00    -0.197 NA
ATOM      6  C   LIG    1      -37.117  76.742  26.601  0.00  0.00    +0.214 A 
ATOM      7  N   LIG    1      -37.774  75.615  26.884  0.00  0.00    -0.222 NA
ATOM      8  C   LIG    1      -37.099  74.608  27.492  0.00  0.00    +0.126 A 
ATOM      9  C   LIG    1      -35.754  74.773  27.825  0.00  0.00    +0.048 A 
ATOM     10  C   LIG    1      -34.734  73.972  28.412  0.00  0.00    +0.051 A 
ATOM     11  C   LIG    1      -33.603  74.781  28.491  0.00  0.00    +0.100 A 
BRANCH   3  13
ATOM     12  C   LIG    1      -31.671  76.842  28.686  0.00  0.00    +0.036 C 
ATOM     13  C   LIG    1      -32.901  77.129  27.793  0.00  0.00    +0.064 C 
ATOM     14  C   LIG    1      -33.520  78.467  28.257  0.00  0.00    +0.036 C 
BRANCH  13  15
ATOM     15  C   LIG    1      -32.364  77.340  26.345  0.00  0.00    +0.183 C 
BRANCH  15  16
ATOM     16  O   LIG    1      -32.635  78.642  25.826  0.00  0.00    -0.393 OA
ATOM     17  H   LIG    1      -31.814  78.890  25.348  0.00  0.00    +0.209 HD
ENDBRANCH  15  16
ENDBRANCH  13  15
ENDBRANCH   3  13
BRANCH   6  18
ATOM     18  N   LIG    1      -37.821  77.766  26.003  0.00  0.00    -0.327 N 
ATOM     19  H   LIG    1      -37.190  78.468  25.641  0.00  0.00    +0.145 HD
ATOM     20  H   LIG    1      -38.556  78.083  26.618  0.00  0.00    +0.145 HD
ENDBRANCH   6  18
ENDBRANCH   1  10
BRANCH   1  21
ATOM     21  C   LIG    1      -34.706  71.469  27.917  0.00  0.00    +0.042 A 
ATOM     22  C   LIG    1      -35.496  71.397  26.761  0.00  0.00    +0.038 A 
ATOM     23  C   LIG    1      -35.318  70.350  25.857  0.00  0.00    +0.052 A 
ATOM     24  C   LIG    1      -34.332  69.410  26.169  0.00  0.00    +0.134 A 
ATOM     25  N   LIG    1      -33.538  69.465  27.269  0.00  0.00    -0.261 NA
ATOM     26  C   LIG    1      -33.727  70.504  28.106  0.00  0.00    +0.122 A 
BRANCH  23  27
ATOM     27  N   LIG    1      -36.132  70.329  24.697  0.00  0.00    -0.283 N 
ATOM     28  H   LIG    1      -35.764  70.794  23.874  0.00  0.00    +0.155 HD
ATOM     29  C   LIG    1      -37.342  69.666  24.589  0.00  0.00    +0.239 C 
ATOM     30  O   LIG    1      -37.876  69.071  25.521  0.00  0.00    -0.273 OA
BRANCH  29  31
ATOM     31  C   LIG    1      -38.008  69.762  23.226  0.00  0.00    +0.239 C 
BRANCH  31  32
ATOM     32  N   LIG    1      -37.284  68.969  22.247  0.00  0.00    -0.262 N 
ATOM     33  N   LIG    1      -36.240  68.208  22.628  0.00  0.00    -0.179 NA
ATOM     34  C   LIG    1      -35.909  67.547  21.513  0.00  0.00    +0.146 A 
ATOM     35  C   LIG    1      -36.710  67.901  20.406  0.00  0.00    +0.092 A 
ATOM     36  C   LIG    1      -37.559  68.864  20.912  0.00  0.00    +0.121 A 
BRANCH  35  37
ATOM     37  C   LIG    1      -36.639  67.339  19.041  0.00  0.00    +0.420 C 
ATOM     38  F   LIG    1      -36.513  65.988  19.054  0.00  0.00    -0.166 F 
ATOM     39  F   LIG    1      -35.575  67.827  18.355  0.00  0.00    -0.166 F 
ATOM     40  F   LIG    1      -37.745  67.624  18.305  0.00  0.00    -0.166 F 
ENDBRANCH  35  37
ENDBRANCH  31  32
ENDBRANCH  29  31
ENDBRANCH  23  27
ENDBRANCH   1  21
TORSDOF 10
ENDMDL
MODEL 2
REMARK VINA RESULT:      -6.2     11.130     14.143
REMARK  Name = pdb/CHEMBL3671436.pdb
REMARK                            x       y       z     vdW  Elec       q    Type
REMARK                         _______ _______ _______ _____ _____    ______ ____
ROOT
ATOM      1  C   LIG    1      -25.261  77.504  31.155  0.00  0.00    +0.197 C 
ATOM      2  O   LIG    1      -25.760  78.354  30.404  0.00  0.00    -0.287 OA
ENDROOT
BRANCH   1  10
ATOM      3  N   LIG    1      -22.118  78.084  32.996  0.00  0.00    -0.323 N 
ATOM      4  C   LIG    1      -21.644  77.557  31.812  0.00  0.00    +0.147 A 
ATOM      5  N   LIG    1      -20.357  77.324  31.510  0.00  0.00    -0.197 NA
ATOM      6  C   LIG    1      -20.154  76.824  30.294  0.00  0.00    +0.214 A 
ATOM      7  N   LIG    1      -21.095  76.580  29.379  0.00  0.00    -0.222 NA
ATOM      8  C   LIG    1      -22.389  76.814  29.704  0.00  0.00    +0.126 A 
ATOM      9  C   LIG    1      -22.711  77.318  30.964  0.00  0.00    +0.048 A 
ATOM     10  C   LIG    1      -23.904  77.649  31.667  0.00  0.00    +0.051 A 
ATOM     11  C   LIG    1      -23.501  78.148  32.903  0.00  0.00    +0.100 A 
BRANCH   3  13
ATOM     12  C   LIG    1      -22.233  79.291  35.158  0.00  0.00    +0.036 C 
ATOM     13  C   LIG    1      -21.329  78.491  34.190  0.00  0.00    +0.064 C 
ATOM     14  C   LIG    1      -20.148  79.401  33.784  0.00  0.00    +0.036 C 
BRANCH  13  15
ATOM     15  C   LIG    1      -20.742  77.300  35.008  0.00  0.00    +0.183 C 
BRANCH  15  16
ATOM     16  O   LIG    1      -19.529  76.783  34.460  0.00  0.00    -0.393 OA
ATOM     17  H   LIG    1      -19.693  75.819  34.370  0.00  0.00    +0.209 HD
ENDBRANCH  15  16
ENDBRANCH  13  15
ENDBRANCH   3  13
BRANCH   6  18
ATOM     18  N   LIG    1      -18.839  76.602  29.942  0.00  0.00    -0.327 N 
ATOM     19  H   LIG    1      -18.229  77.256  30.414  0.00  0.00    +0.145 HD
ATOM     20  H   LIG    1      -18.757  76.542  28.938  0.00  0.00    +0.145 HD
ENDBRANCH   6  18
ENDBRANCH   1  10
BRANCH   1  21
ATOM     21  C   LIG    1      -26.083  76.330  31.502  0.00  0.00    +0.042 A 
ATOM     22  C   LIG    1      -25.517  75.049  31.460  0.00  0.00    +0.038 A 
ATOM     23  C   LIG    1      -26.281  73.934  31.808  0.00  0.00    +0.052 A 
ATOM     24  C   LIG    1      -27.604  74.174  32.190  0.00  0.00    +0.134 A 
ATOM     25  N   LIG    1      -28.173  75.405  32.261  0.00  0.00    -0.261 NA
ATOM     26  C   LIG    1      -27.394  76.456  31.937  0.00  0.00    +0.122 A 
BRANCH  23  27
ATOM     27  N   LIG    1      -25.659  72.662  31.763  0.00  0.00    -0.283 N 
ATOM     28  H   LIG    1      -25.510  72.261  30.844  0.00  0.00    +0.155 HD
ATOM     29  C   LIG    1      -25.185  71.971  32.865  0.00  0.00    +0.239 C 
ATOM     30  O   LIG    1      -25.312  72.367  34.021  0.00  0.00    -0.273 OA
BRANCH  29  31
ATOM     31  C   LIG    1      -24.522  70.640  32.552  0.00  0.00    +0.239 C 
BRANCH  31  32
ATOM     32  N   LIG    1      -24.665  70.317  31.143  0.00  0.00    -0.262 N 
ATOM     33  N   LIG    1      -25.869  69.978  30.643  0.00  0.00    -0.179 NA
ATOM     34  C   LIG    1      -25.645  69.870  29.329  0.00  0.00    +0.146 A 
ATOM     35  C   LIG    1      -24.298  70.104  28.981  0.00  0.00    +0.092 A 
ATOM     36  C   LIG    1      -23.683  70.342  30.193  0.00  0.00    +0.121 A 
BRANCH  35  37
ATOM     37  C   LIG    1      -23.717  70.101  27.621  0.00  0.00    +0.420 C 
ATOM     38  F   LIG    1      -23.714  71.340  27.068  0.00  0.00    -0.166 F 
ATOM     39  F   LIG    1      -24.417  69.297  26.781  0.00  0.00    -0.166 F 
ATOM     40  F   LIG    1      -22.433  69.661  27.607  0.00  0.00    -0.166 F 
ENDBRANCH  35  37
ENDBRANCH  31  32
ENDBRANCH  29  31
ENDBRANCH  23  27
ENDBRANCH   1  21
TORSDOF 10
ENDMDL
MODEL 3
REMARK VINA RESULT:      -6.2     13.478     18.032
REMARK  Name = pdb/CHEMBL3671436.pdb
REMARK                            x       y       z     vdW  Elec       q    Type
REMARK                         _______ _______ _______ _____ _____    ______ ____
ROOT
ATOM      1  C   LIG    1      -21.453  76.452  29.959  0.00  0.00    +0.197 C 
ATOM      2  O   LIG    1      -21.427  76.528  28.723  0.00  0.00    -0.287 OA
ENDROOT
BRANCH   1  10
ATOM      3  N   LIG    1      -23.855  74.395  31.857  0.00  0.00    -0.323 N 
ATOM      4  C   LIG    1      -24.625  75.499  31.555  0.00  0.00    +0.147 A 
ATOM      5  N   LIG    1      -25.900  75.699  31.925  0.00  0.00    -0.197 NA
ATOM      6  C   LIG    1      -26.431  76.841  31.495  0.00  0.00    +0.214 A 
ATOM      7  N   LIG    1      -25.824  77.748  30.726  0.00  0.00    -0.222 NA
ATOM      8  C   LIG    1      -24.534  77.533  30.369  0.00  0.00    +0.126 A 
ATOM      9  C   LIG    1      -23.878  76.375  30.787  0.00  0.00    +0.048 A 
ATOM     10  C   LIG    1      -22.570  75.828  30.656  0.00  0.00    +0.051 A 
ATOM     11  C   LIG    1      -22.601  74.592  31.298  0.00  0.00    +0.100 A 
BRANCH   3  13
ATOM     12  C   LIG    1      -24.267  73.577  34.160  0.00  0.00    +0.036 C 
ATOM     13  C   LIG    1      -24.248  73.204  32.658  0.00  0.00    +0.064 C 
ATOM     14  C   LIG    1      -23.233  72.055  32.469  0.00  0.00    +0.036 C 
BRANCH  13  15
ATOM     15  C   LIG    1      -25.662  72.640  32.318  0.00  0.00    +0.183 C 
BRANCH  15  16
ATOM     16  O   LIG    1      -25.929  72.593  30.917  0.00  0.00    -0.393 OA
ATOM     17  H   LIG    1      -25.205  72.042  30.549  0.00  0.00    +0.209 HD
ENDBRANCH  15  16
ENDBRANCH  13  15
ENDBRANCH   3  13
BRANCH   6  18
ATOM     18  N   LIG    1      -27.749  77.061  31.833  0.00  0.00    -0.327 N 
ATOM     19  H   LIG    1      -27.897  78.029  32.083  0.00  0.00    +0.145 HD
ATOM     20  H   LIG    1      -28.054  76.364  32.498  0.00  0.00    +0.145 HD
ENDBRANCH   6  18
ENDBRANCH   1  10
BRANCH   1  21
ATOM     21  C   LIG    1      -20.320  77.031  30.705  0.00  0.00    +0.042 A 
ATOM     22  C   LIG    1      -20.564  77.924  31.757  0.00  0.00    +0.038 A 
ATOM     23  C   LIG    1      -19.499  78.459  32.482  0.00  0.00    +0.052 A 
ATOM     24  C   LIG    1      -18.215  78.056  32.103  0.00  0.00    +0.134 A 
ATOM     25  N   LIG    1      -17.949  77.177  31.103  0.00  0.00    -0.261 NA
ATOM     26  C   LIG    1      -19.007  76.667  30.442  0.00  0.00    +0.122 A 
BRANCH  23  27
ATOM     27  N   LIG    1      -19.798  79.347  33.545  0.00  0.00    -0.283 N 
ATOM     28  H   LIG    1      -19.945  80.319  33.298  0.00  0.00    +0.155 HD
ATOM     29  C   LIG    1      -19.972  78.972  34.866  0.00  0.00    +0.239 C 
ATOM     30  O   LIG    1      -19.819  77.823  35.272  0.00  0.00    -0.273 OA
BRANCH  29  31
ATOM     31  C   LIG    1      -20.325  80.106  35.814  0.00  0.00    +0.239 C 
BRANCH  31  32
ATOM     32  N   LIG    1      -21.745  80.408  35.743  0.00  0.00    -0.262 N 
ATOM     33  N   LIG    1      -22.489  79.936  34.724  0.00  0.00    -0.179 NA
ATOM     34  C   LIG    1      -23.734  80.303  35.047  0.00  0.00    +0.146 A 
ATOM     35  C   LIG    1      -23.795  81.038  36.250  0.00  0.00    +0.092 A 
ATOM     36  C   LIG    1      -22.476  81.128  36.646  0.00  0.00    +0.121 A 
BRANCH  35  37
ATOM     37  C   LIG    1      -25.008  81.562  36.912  0.00  0.00    +0.420 C 
ATOM     38  F   LIG    1      -25.343  82.795  36.457  0.00  0.00    -0.166 F 
ATOM     39  F   LIG    1      -24.838  81.671  38.254  0.00  0.00    -0.166 F 
ATOM     40  F   LIG    1      -26.090  80.764  36.718  0.00  0.00    -0.166 F 
ENDBRANCH  35  37
ENDBRANCH  31  32
ENDBRANCH  29  31
ENDBRANCH  23  27
ENDBRANCH   1  21
TORSDOF 10
ENDMDL
MODEL 4
REMARK VINA RESULT:      -6.1     19.803     23.122
REMARK  Name = pdb/CHEMBL3671436.pdb
REMARK                            x       y       z     vdW  Elec       q    Type
REMARK                         _______ _______ _______ _____ _____    ______ ____
ROOT
ATOM      1  C   LIG    1      -23.908  88.586  10.839  0.00  0.00    +0.197 C 
ATOM      2  O   LIG    1      -24.112  89.745  10.452  0.00  0.00    -0.287 OA
ENDROOT
BRANCH   1  10
ATOM      3  N   LIG    1      -20.449  87.550  11.591  0.00  0.00    -0.323 N 
ATOM      4  C   LIG    1      -20.971  87.691  12.861  0.00  0.00    +0.147 A 
ATOM      5  N   LIG    1      -20.308  87.507  14.013  0.00  0.00    -0.197 NA
ATOM      6  C   LIG    1      -21.038  87.690  15.110  0.00  0.00    +0.214 A 
ATOM      7  N   LIG    1      -22.337  87.996  15.145  0.00  0.00    -0.222 NA
ATOM      8  C   LIG    1      -22.989  88.186  13.972  0.00  0.00    +0.126 A 
ATOM      9  C   LIG    1      -22.307  88.039  12.764  0.00  0.00    +0.048 A 
ATOM     10  C   LIG    1      -22.617  88.184  11.382  0.00  0.00    +0.051 A 
ATOM     11  C   LIG    1      -21.460  87.843  10.687  0.00  0.00    +0.100 A 
BRANCH   3  13
ATOM     12  C   LIG    1      -18.855  87.407   9.698  0.00  0.00    +0.036 C 
ATOM     13  C   LIG    1      -19.056  87.185  11.216  0.00  0.00    +0.064 C 
ATOM     14  C   LIG    1      -18.779  85.695  11.518  0.00  0.00    +0.036 C 
BRANCH  13  15
ATOM     15  C   LIG    1      -17.957  88.021  11.941  0.00  0.00    +0.183 C 
BRANCH  15  16
ATOM     16  O   LIG    1      -17.256  87.284  12.942  0.00  0.00    -0.393 OA
ATOM     17  H   LIG    1      -17.858  87.292  13.717  0.00  0.00    +0.209 HD
ENDBRANCH  15  16
ENDBRANCH  13  15
ENDBRANCH   3  13
BRANCH   6  18
ATOM     18  N   LIG    1      -20.392  87.478  16.309  0.00  0.00    -0.327 N 
ATOM     19  H   LIG    1      -20.493  86.516  16.603  0.00  0.00    +0.145 HD
ATOM     20  H   LIG    1      -20.659  88.190  16.974  0.00  0.00    +0.145 HD
ENDBRANCH   6  18
ENDBRANCH   1  10
BRANCH   1  21
ATOM     21  C   LIG    1      -25.015  87.619  10.717  0.00  0.00    +0.042 A 
ATOM     22  C   LIG    1      -24.952  86.400  11.406  0.00  0.00    +0.038 A 
ATOM     23  C   LIG    1      -26.005  85.489  11.315  0.00  0.00    +0.052 A 
ATOM     24  C   LIG    1      -27.091  85.862  10.518  0.00  0.00    +0.134 A 
ATOM     25  N   LIG    1      -27.190  87.044   9.856  0.00  0.00    -0.261 NA
ATOM     26  C   LIG    1      -26.161  87.904   9.988  0.00  0.00    +0.122 A 
BRANCH  23  27
ATOM     27  N   LIG    1      -25.900  84.277  12.041  0.00  0.00    -0.283 N 
ATOM     28  H   LIG    1      -26.333  84.257  12.957  0.00  0.00    +0.155 HD
ATOM     29  C   LIG    1      -25.317  83.115  11.565  0.00  0.00    +0.239 C 
ATOM     30  O   LIG    1      -24.766  83.031  10.470  0.00  0.00    -0.273 OA
BRANCH  29  31
ATOM     31  C   LIG    1      -25.363  81.935  12.521  0.00  0.00    +0.239 C 
BRANCH  31  32
ATOM     32  N   LIG    1      -24.303  82.038  13.510  0.00  0.00    -0.262 N 
ATOM     33  N   LIG    1      -23.484  83.108  13.519  0.00  0.00    -0.179 NA
ATOM     34  C   LIG    1      -22.734  82.921  14.610  0.00  0.00    +0.146 A 
ATOM     35  C   LIG    1      -23.040  81.721  15.288  0.00  0.00    +0.092 A 
ATOM     36  C   LIG    1      -24.030  81.152  14.514  0.00  0.00    +0.121 A 
BRANCH  35  37
ATOM     37  C   LIG    1      -22.432  81.228  16.542  0.00  0.00    +0.420 C 
ATOM     38  F   LIG    1      -22.569  82.117  17.557  0.00  0.00    -0.166 F 
ATOM     39  F   LIG    1      -21.102  81.000  16.395  0.00  0.00    -0.166 F 
ATOM     40  F   LIG    1      -22.985  80.061  16.963  0.00  0.00    -0.166 F 
ENDBRANCH  35  37
ENDBRANCH  31  32
ENDBRANCH  29  31
ENDBRANCH  23  27
ENDBRANCH   1  21
TORSDOF 10
ENDMDL
MODEL 5
REMARK VINA RESULT:      -6.0      8.313     11.086
REMARK  Name = pdb/CHEMBL3671436.pdb
REMARK                            x       y       z     vdW  Elec       q    Type
REMARK                         _______ _______ _______ _____ _____    ______ ____
ROOT
ATOM      1  C   LIG    1      -38.484  77.762  27.347  0.00  0.00    +0.197 C 
ATOM      2  O   LIG    1      -39.223  77.393  28.271  0.00  0.00    -0.287 OA
ENDROOT
BRANCH   1  10
ATOM      3  N   LIG    1      -34.857  78.234  27.817  0.00  0.00    -0.323 N 
ATOM      4  C   LIG    1      -35.331  79.503  28.081  0.00  0.00    +0.147 A 
ATOM      5  N   LIG    1      -34.586  80.576  28.391  0.00  0.00    -0.197 NA
ATOM      6  C   LIG    1      -35.282  81.688  28.617  0.00  0.00    +0.214 A 
ATOM      7  N   LIG    1      -36.611  81.800  28.594  0.00  0.00    -0.222 NA
ATOM      8  C   LIG    1      -37.347  80.708  28.271  0.00  0.00    +0.126 A 
ATOM      9  C   LIG    1      -36.711  79.497  27.994  0.00  0.00    +0.048 A 
ATOM     10  C   LIG    1      -37.114  78.190  27.598  0.00  0.00    +0.051 A 
ATOM     11  C   LIG    1      -35.950  77.429  27.531  0.00  0.00    +0.100 A 
BRANCH   3  13
ATOM     12  C   LIG    1      -33.331  76.466  26.986  0.00  0.00    +0.036 C 
ATOM     13  C   LIG    1      -33.441  77.778  27.800  0.00  0.00    +0.064 C 
ATOM     14  C   LIG    1      -32.939  77.490  29.233  0.00  0.00    +0.036 C 
BRANCH  13  15
ATOM     15  C   LIG    1      -32.448  78.791  27.152  0.00  0.00    +0.183 C 
BRANCH  15  16
ATOM     16  O   LIG    1      -32.422  78.723  25.727  0.00  0.00    -0.393 OA
ATOM     17  H   LIG    1      -31.495  78.942  25.489  0.00  0.00    +0.209 HD
ENDBRANCH  15  16
ENDBRANCH  13  15
ENDBRANCH   3  13
BRANCH   6  18
ATOM     18  N   LIG    1      -34.546  82.800  28.968  0.00  0.00    -0.327 N 
ATOM     19  H   LIG    1      -34.801  83.119  29.893  0.00  0.00    +0.145 HD
ATOM     20  H   LIG    1      -34.578  83.482  28.224  0.00  0.00    +0.145 HD
ENDBRANCH   6  18
ENDBRANCH   1  10
BRANCH   1  21
ATOM     21  C   LIG    1      -39.044  77.767  25.983  0.00  0.00    +0.042 A 
ATOM     22  C   LIG    1      -39.010  78.944  25.223  0.00  0.00    +0.038 A 
ATOM     23  C   LIG    1      -39.518  78.953  23.923  0.00  0.00    +0.052 A 
ATOM     24  C   LIG    1      -40.043  77.749  23.446  0.00  0.00    +0.134 A 
ATOM     25  N   LIG    1      -40.070  76.589  24.150  0.00  0.00    -0.261 NA
ATOM     26  C   LIG    1      -39.550  76.618  25.393  0.00  0.00    +0.122 A 
BRANCH  23  27
ATOM     27  N   LIG    1      -39.448  80.164  23.190  0.00  0.00    -0.283 N 
ATOM     28  H   LIG    1      -38.638  80.288  22.593  0.00  0.00    +0.155 HD
ATOM     29  C   LIG    1      -40.427  81.142  23.179  0.00  0.00    +0.239 C 
ATOM     30  O   LIG    1      -41.446  81.090  23.863  0.00  0.00    -0.273 OA
BRANCH  29  31
ATOM     31  C   LIG    1      -40.135  82.333  22.282  0.00  0.00    +0.239 C 
BRANCH  31  32
ATOM     32  N   LIG    1      -39.353  83.329  22.994  0.00  0.00    -0.262 N 
ATOM     33  N   LIG    1      -38.434  82.949  23.902  0.00  0.00    -0.179 NA
ATOM     34  C   LIG    1      -37.844  84.097  24.253  0.00  0.00    +0.146 A 
ATOM     35  C   LIG    1      -38.399  85.220  23.603  0.00  0.00    +0.092 A 
ATOM     36  C   LIG    1      -39.410  84.685  22.831  0.00  0.00    +0.121 A 
BRANCH  35  37
ATOM     37  C   LIG    1      -37.964  86.627  23.732  0.00  0.00    +0.420 C 
ATOM     38  F   LIG    1      -38.220  87.343  22.608  0.00  0.00    -0.166 F 
ATOM     39  F   LIG    1      -36.630  86.718  23.961  0.00  0.00    -0.166 F 
ATOM     40  F   LIG    1      -38.582  87.269  24.757  0.00  0.00    -0.166 F 
ENDBRANCH  35  37
ENDBRANCH  31  32
ENDBRANCH  29  31
ENDBRANCH  23  27
ENDBRANCH   1  21
TORSDOF 10
ENDMDL
MODEL 6
REMARK VINA RESULT:      -5.8      2.838      3.638
REMARK  Name = pdb/CHEMBL3671436.pdb
REMARK                            x       y       z     vdW  Elec       q    Type
REMARK                         _______ _______ _______ _____ _____    ______ ____
ROOT
ATOM      1  C   LIG    1      -35.042  72.655  28.823  0.00  0.00    +0.197 C 
ATOM      2  O   LIG    1      -35.362  72.378  29.988  0.00  0.00    -0.287 OA
ENDROOT
BRANCH   1  10
ATOM      3  N   LIG    1      -33.953  76.062  27.925  0.00  0.00    -0.323 N 
ATOM      4  C   LIG    1      -35.273  76.086  27.524  0.00  0.00    +0.147 A 
ATOM      5  N   LIG    1      -35.903  77.118  26.940  0.00  0.00    -0.197 NA
ATOM      6  C   LIG    1      -37.186  76.898  26.660  0.00  0.00    +0.214 A 
ATOM      7  N   LIG    1      -37.871  75.787  26.939  0.00  0.00    -0.222 NA
ATOM      8  C   LIG    1      -37.217  74.753  27.522  0.00  0.00    +0.126 A 
ATOM      9  C   LIG    1      -35.863  74.874  27.836  0.00  0.00    +0.048 A 
ATOM     10  C   LIG    1      -34.857  74.036  28.396  0.00  0.00    +0.051 A 
ATOM     11  C   LIG    1      -33.702  74.811  28.468  0.00  0.00    +0.100 A 
BRANCH   3  13
ATOM     12  C   LIG    1      -31.735  76.843  28.709  0.00  0.00    +0.036 C 
ATOM     13  C   LIG    1      -32.943  77.146  27.790  0.00  0.00    +0.064 C 
ATOM     14  C   LIG    1      -33.535  78.506  28.222  0.00  0.00    +0.036 C 
BRANCH  13  15
ATOM     15  C   LIG    1      -32.376  77.320  26.348  0.00  0.00    +0.183 C 
BRANCH  15  16
ATOM     16  O   LIG    1      -32.626  78.612  25.795  0.00  0.00    -0.393 OA
ATOM     17  H   LIG    1      -31.794  78.842  25.327  0.00  0.00    +0.209 HD
ENDBRANCH  15  16
ENDBRANCH  13  15
ENDBRANCH   3  13
BRANCH   6  18
ATOM     18  N   LIG    1      -37.869  77.950  26.087  0.00  0.00    -0.327 N 
ATOM     19  H   LIG    1      -38.585  78.294  26.712  0.00  0.00    +0.145 HD
ATOM     20  H   LIG    1      -38.157  77.704  25.151  0.00  0.00    +0.145 HD
ENDBRANCH   6  18
ENDBRANCH   1  10
BRANCH   1  21
ATOM     21  C   LIG    1      -34.867  71.537  27.877  0.00  0.00    +0.042 A 
ATOM     22  C   LIG    1      -35.741  71.405  26.789  0.00  0.00    +0.038 A 
ATOM     23  C   LIG    1      -35.570  70.364  25.877  0.00  0.00    +0.052 A 
ATOM     24  C   LIG    1      -34.504  69.491  26.112  0.00  0.00    +0.134 A 
ATOM     25  N   LIG    1      -33.629  69.606  27.143  0.00  0.00    -0.261 NA
ATOM     26  C   LIG    1      -33.817  70.638  27.990  0.00  0.00    +0.122 A 
BRANCH  23  27
ATOM     27  N   LIG    1      -36.471  70.281  24.786  0.00  0.00    -0.283 N 
ATOM     28  H   LIG    1      -36.221  70.795  23.949  0.00  0.00    +0.155 HD
ATOM     29  C   LIG    1      -37.616  69.503  24.760  0.00  0.00    +0.239 C 
ATOM     30  O   LIG    1      -38.009  68.842  25.717  0.00  0.00    -0.273 OA
BRANCH  29  31
ATOM     31  C   LIG    1      -38.398  69.555  23.458  0.00  0.00    +0.239 C 
BRANCH  31  32
ATOM     32  N   LIG    1      -39.404  70.602  23.508  0.00  0.00    -0.262 N 
ATOM     33  N   LIG    1      -39.204  71.701  24.262  0.00  0.00    -0.179 NA
ATOM     34  C   LIG    1      -40.256  72.475  23.973  0.00  0.00    +0.146 A 
ATOM     35  C   LIG    1      -41.151  71.871  23.065  0.00  0.00    +0.092 A 
ATOM     36  C   LIG    1      -40.588  70.634  22.825  0.00  0.00    +0.121 A 
BRANCH  35  37
ATOM     37  C   LIG    1      -42.387  72.460  22.509  0.00  0.00    +0.420 C 
ATOM     38  F   LIG    1      -42.348  73.816  22.509  0.00  0.00    -0.166 F 
ATOM     39  F   LIG    1      -43.480  72.098  23.227  0.00  0.00    -0.166 F 
ATOM     40  F   LIG    1      -42.615  72.073  21.227  0.00  0.00    -0.166 F 
ENDBRANCH  35  37
ENDBRANCH  31  32
ENDBRANCH  29  31
ENDBRANCH  23  27
ENDBRANCH   1  21
TORSDOF 10
ENDMDL
MODEL 7
REMARK VINA RESULT:      -5.8      2.750      3.457
REMARK  Name = pdb/CHEMBL3671436.pdb
REMARK                            x       y       z     vdW  Elec       q    Type
REMARK                         _______ _______ _______ _____ _____    ______ ____
ROOT
ATOM      1  C   LIG    1      -34.420  73.063  29.889  0.00  0.00    +0.197 C 
ATOM      2  O   LIG    1      -34.928  73.030  31.018  0.00  0.00    -0.287 OA
ENDROOT
BRANCH   1  10
ATOM      3  N   LIG    1      -33.640  76.277  28.255  0.00  0.00    -0.323 N 
ATOM      4  C   LIG    1      -34.852  75.964  27.673  0.00  0.00    +0.147 A 
ATOM      5  N   LIG    1      -35.490  76.688  26.740  0.00  0.00    -0.197 NA
ATOM      6  C   LIG    1      -36.655  76.182  26.345  0.00  0.00    +0.214 A 
ATOM      7  N   LIG    1      -37.228  75.072  26.815  0.00  0.00    -0.222 NA
ATOM      8  C   LIG    1      -36.565  74.349  27.751  0.00  0.00    +0.126 A 
ATOM      9  C   LIG    1      -35.324  74.783  28.216  0.00  0.00    +0.048 A 
ATOM     10  C   LIG    1      -34.341  74.304  29.129  0.00  0.00    +0.051 A 
ATOM     11  C   LIG    1      -33.334  75.265  29.154  0.00  0.00    +0.100 A 
BRANCH   3  13
ATOM     12  C   LIG    1      -32.340  77.436  26.492  0.00  0.00    +0.036 C 
ATOM     13  C   LIG    1      -32.775  77.455  27.977  0.00  0.00    +0.064 C 
ATOM     14  C   LIG    1      -31.497  77.415  28.845  0.00  0.00    +0.036 C 
BRANCH  13  15
ATOM     15  C   LIG    1      -33.465  78.831  28.224  0.00  0.00    +0.183 C 
BRANCH  15  16
ATOM     16  O   LIG    1      -33.799  79.519  27.020  0.00  0.00    -0.393 OA
ATOM     17  H   LIG    1      -33.596  80.460  27.212  0.00  0.00    +0.209 HD
ENDBRANCH  15  16
ENDBRANCH  13  15
ENDBRANCH   3  13
BRANCH   6  18
ATOM     18  N   LIG    1      -37.350  76.919  25.409  0.00  0.00    -0.327 N 
ATOM     19  H   LIG    1      -38.244  77.211  25.778  0.00  0.00    +0.145 HD
ATOM     20  H   LIG    1      -37.355  76.433  24.524  0.00  0.00    +0.145 HD
ENDBRANCH   6  18
ENDBRANCH   1  10
BRANCH   1  21
ATOM     21  C   LIG    1      -33.908  71.797  29.331  0.00  0.00    +0.042 A 
ATOM     22  C   LIG    1      -34.676  71.090  28.396  0.00  0.00    +0.038 A 
ATOM     23  C   LIG    1      -34.191  69.902  27.847  0.00  0.00    +0.052 A 
ATOM     24  C   LIG    1      -32.929  69.481  28.276  0.00  0.00    +0.134 A 
ATOM     25  N   LIG    1      -32.154  70.156  29.163  0.00  0.00    -0.261 NA
ATOM     26  C   LIG    1      -32.651  71.309  29.653  0.00  0.00    +0.122 A 
BRANCH  23  27
ATOM     27  N   LIG    1      -34.999  69.232  26.895  0.00  0.00    -0.283 N 
ATOM     28  H   LIG    1      -35.769  68.683  27.259  0.00  0.00    +0.155 HD
ATOM     29  C   LIG    1      -34.854  69.330  25.522  0.00  0.00    +0.239 C 
ATOM     30  O   LIG    1      -33.957  69.968  24.978  0.00  0.00    -0.273 OA
BRANCH  29  31
ATOM     31  C   LIG    1      -35.870  68.542  24.711  0.00  0.00    +0.239 C 
BRANCH  31  32
ATOM     32  N   LIG    1      -37.186  69.151  24.812  0.00  0.00    -0.262 N 
ATOM     33  N   LIG    1      -37.952  68.937  25.899  0.00  0.00    -0.179 NA
ATOM     34  C   LIG    1      -39.010  69.731  25.699  0.00  0.00    +0.146 A 
ATOM     35  C   LIG    1      -38.948  70.431  24.475  0.00  0.00    +0.092 A 
ATOM     36  C   LIG    1      -37.772  69.989  23.905  0.00  0.00    +0.121 A 
BRANCH  35  37
ATOM     37  C   LIG    1      -39.926  71.413  23.962  0.00  0.00    +0.420 C 
ATOM     38  F   LIG    1      -40.400  71.067  22.738  0.00  0.00    -0.166 F 
ATOM     39  F   LIG    1      -39.376  72.647  23.836  0.00  0.00    -0.166 F 
ATOM     40  F   LIG    1      -41.004  71.546  24.778  0.00  0.00    -0.166 F 
ENDBRANCH  35  37
ENDBRANCH  31  32
ENDBRANCH  29  31
ENDBRANCH  23  27
ENDBRANCH   1  21
TORSDOF 10
ENDMDL
MODEL 8
REMARK VINA RESULT:      -5.7      4.298      9.000
REMARK  Name = pdb/CHEMBL3671436.pdb
REMARK                            x       y       z     vdW  Elec       q    Type
REMARK                         _______ _______ _______ _____ _____    ______ ____
ROOT
ATOM      1  C   LIG    1      -39.938  71.446  24.141  0.00  0.00    +0.197 C 
ATOM      2  O   LIG    1      -40.876  70.744  23.736  0.00  0.00    -0.287 OA
ENDROOT
BRANCH   1  10
ATOM      3  N   LIG    1      -36.829  70.263  25.736  0.00  0.00    -0.323 N 
ATOM      4  C   LIG    1      -36.779  69.604  24.525  0.00  0.00    +0.147 A 
ATOM      5  N   LIG    1      -35.823  68.749  24.129  0.00  0.00    -0.197 NA
ATOM      6  C   LIG    1      -35.993  68.253  22.906  0.00  0.00    +0.214 A 
ATOM      7  N   LIG    1      -36.984  68.558  22.066  0.00  0.00    -0.222 NA
ATOM      8  C   LIG    1      -37.946  69.417  22.486  0.00  0.00    +0.126 A 
ATOM      9  C   LIG    1      -37.872  69.976  23.762  0.00  0.00    +0.048 A 
ATOM     10  C   LIG    1      -38.670  70.853  24.549  0.00  0.00    +0.051 A 
ATOM     11  C   LIG    1      -37.982  71.035  25.746  0.00  0.00    +0.100 A 
BRANCH   3  13
ATOM     12  C   LIG    1      -36.131  71.311  27.870  0.00  0.00    +0.036 C 
ATOM     13  C   LIG    1      -35.863  70.167  26.863  0.00  0.00    +0.064 C 
ATOM     14  C   LIG    1      -34.411  70.314  26.356  0.00  0.00    +0.036 C 
BRANCH  13  15
ATOM     15  C   LIG    1      -35.945  68.834  27.668  0.00  0.00    +0.183 C 
BRANCH  15  16
ATOM     16  O   LIG    1      -35.462  67.705  26.940  0.00  0.00    -0.393 OA
ATOM     17  H   LIG    1      -36.039  67.660  26.148  0.00  0.00    +0.209 HD
ENDBRANCH  15  16
ENDBRANCH  13  15
ENDBRANCH   3  13
BRANCH   6  18
ATOM     18  N   LIG    1      -35.010  67.395  22.459  0.00  0.00    -0.327 N 
ATOM     19  H   LIG    1      -35.288  66.955  21.593  0.00  0.00    +0.145 HD
ATOM     20  H   LIG    1      -34.718  66.786  23.210  0.00  0.00    +0.145 HD
ENDBRANCH   6  18
ENDBRANCH   1  10
BRANCH   1  21
ATOM     21  C   LIG    1      -40.153  72.903  24.210  0.00  0.00    +0.042 A 
ATOM     22  C   LIG    1      -39.395  73.675  25.101  0.00  0.00    +0.038 A 
ATOM     23  C   LIG    1      -39.576  75.057  25.158  0.00  0.00    +0.052 A 
ATOM     24  C   LIG    1      -40.530  75.602  24.293  0.00  0.00    +0.134 A 
ATOM     25  N   LIG    1      -41.262  74.883  23.404  0.00  0.00    -0.261 NA
ATOM     26  C   LIG    1      -41.042  73.554  23.367  0.00  0.00    +0.122 A 
BRANCH  23  27
ATOM     27  N   LIG    1      -38.777  75.796  26.066  0.00  0.00    -0.283 N 
ATOM     28  H   LIG    1      -39.085  75.816  27.031  0.00  0.00    +0.155 HD
ATOM     29  C   LIG    1      -37.585  76.422  25.745  0.00  0.00    +0.239 C 
ATOM     30  O   LIG    1      -37.121  76.457  24.609  0.00  0.00    -0.273 OA
BRANCH  29  31
ATOM     31  C   LIG    1      -36.893  77.119  26.905  0.00  0.00    +0.239 C 
BRANCH  31  32
ATOM     32  N   LIG    1      -35.631  76.469  27.212  0.00  0.00    -0.262 N 
ATOM     33  N   LIG    1      -34.465  77.062  26.886  0.00  0.00    -0.179 NA
ATOM     34  C   LIG    1      -33.542  76.252  27.416  0.00  0.00    +0.146 A 
ATOM     35  C   LIG    1      -34.101  75.124  28.053  0.00  0.00    +0.092 A 
ATOM     36  C   LIG    1      -35.459  75.276  27.856  0.00  0.00    +0.121 A 
BRANCH  35  37
ATOM     37  C   LIG    1      -33.374  74.055  28.769  0.00  0.00    +0.420 C 
ATOM     38  F   LIG    1      -33.263  72.927  28.023  0.00  0.00    -0.166 F 
ATOM     39  F   LIG    1      -34.004  73.705  29.919  0.00  0.00    -0.166 F 
ATOM     40  F   LIG    1      -32.112  74.426  29.111  0.00  0.00    -0.166 F 
ENDBRANCH  35  37
ENDBRANCH  31  32
ENDBRANCH  29  31
ENDBRANCH  23  27
ENDBRANCH   1  21
TORSDOF 10
ENDMDL
MODEL 9
REMARK VINA RESULT:      -5.7      4.640      9.722
REMARK  Name = pdb/CHEMBL3671436.pdb
REMARK                            x       y       z     vdW  Elec       q    Type
REMARK                         _______ _______ _______ _____ _____    ______ ____
ROOT
ATOM      1  C   LIG    1      -39.371  73.093  25.958  0.00  0.00    +0.197 C 
ATOM      2  O   LIG    1      -40.171  72.946  26.892  0.00  0.00    -0.287 OA
ENDROOT
BRANCH   1  10
ATOM      3  N   LIG    1      -38.277  70.181  23.976  0.00  0.00    -0.323 N 
ATOM      4  C   LIG    1      -37.187  70.371  24.801  0.00  0.00    +0.147 A 
ATOM      5  N   LIG    1      -36.054  69.651  24.792  0.00  0.00    -0.197 NA
ATOM      6  C   LIG    1      -35.153  70.022  25.699  0.00  0.00    +0.214 A 
ATOM      7  N   LIG    1      -35.303  70.993  26.602  0.00  0.00    -0.222 NA
ATOM      8  C   LIG    1      -36.451  71.715  26.591  0.00  0.00    +0.126 A 
ATOM      9  C   LIG    1      -37.450  71.420  25.664  0.00  0.00    +0.048 A 
ATOM     10  C   LIG    1      -38.728  71.948  25.324  0.00  0.00    +0.051 A 
ATOM     11  C   LIG    1      -39.223  71.141  24.303  0.00  0.00    +0.100 A 
BRANCH   3  13
ATOM     12  C   LIG    1      -37.248  69.272  21.912  0.00  0.00    +0.036 C 
ATOM     13  C   LIG    1      -38.435  69.166  22.899  0.00  0.00    +0.064 C 
ATOM     14  C   LIG    1      -39.737  69.410  22.102  0.00  0.00    +0.036 C 
BRANCH  13  15
ATOM     15  C   LIG    1      -38.466  67.692  23.406  0.00  0.00    +0.183 C 
BRANCH  15  16
ATOM     16  O   LIG    1      -37.175  67.086  23.460  0.00  0.00    -0.393 OA
ATOM     17  H   LIG    1      -37.329  66.157  23.184  0.00  0.00    +0.209 HD
ENDBRANCH  15  16
ENDBRANCH  13  15
ENDBRANCH   3  13
BRANCH   6  18
ATOM     18  N   LIG    1      -33.991  69.281  25.735  0.00  0.00    -0.327 N 
ATOM     19  H   LIG    1      -34.050  68.558  26.439  0.00  0.00    +0.145 HD
ATOM     20  H   LIG    1      -33.192  69.898  25.777  0.00  0.00    +0.145 HD
ENDBRANCH   6  18
ENDBRANCH   1  10
BRANCH   1  21
ATOM     21  C   LIG    1      -39.079  74.469  25.516  0.00  0.00    +0.042 A 
ATOM     22  C   LIG    1      -38.101  75.219  26.183  0.00  0.00    +0.038 A 
ATOM     23  C   LIG    1      -37.802  76.515  25.759  0.00  0.00    +0.052 A 
ATOM     24  C   LIG    1      -38.519  76.996  24.659  0.00  0.00    +0.134 A 
ATOM     25  N   LIG    1      -39.455  76.286  23.980  0.00  0.00    -0.261 NA
ATOM     26  C   LIG    1      -39.698  75.031  24.409  0.00  0.00    +0.122 A 
BRANCH  23  27
ATOM     27  N   LIG    1      -36.796  77.228  26.457  0.00  0.00    -0.283 N 
ATOM     28  H   LIG    1      -35.852  77.154  26.096  0.00  0.00    +0.155 HD
ATOM     29  C   LIG    1      -37.021  78.061  27.539  0.00  0.00    +0.239 C 
ATOM     30  O   LIG    1      -38.125  78.223  28.054  0.00  0.00    -0.273 OA
BRANCH  29  31
ATOM     31  C   LIG    1      -35.782  78.744  28.092  0.00  0.00    +0.239 C 
BRANCH  31  32
ATOM     32  N   LIG    1      -34.638  77.849  28.039  0.00  0.00    -0.262 N 
ATOM     33  N   LIG    1      -33.881  77.781  26.927  0.00  0.00    -0.179 NA
ATOM     34  C   LIG    1      -32.879  76.968  27.278  0.00  0.00    +0.146 A 
ATOM     35  C   LIG    1      -33.002  76.483  28.598  0.00  0.00    +0.092 A 
ATOM     36  C   LIG    1      -34.184  77.040  29.042  0.00  0.00    +0.121 A 
BRANCH  35  37
ATOM     37  C   LIG    1      -32.058  75.599  29.313  0.00  0.00    +0.420 C 
ATOM     38  F   LIG    1      -30.766  75.893  29.019  0.00  0.00    -0.166 F 
ATOM     39  F   LIG    1      -32.249  74.296  28.985  0.00  0.00    -0.166 F 
ATOM     40  F   LIG    1      -32.185  75.686  30.662  0.00  0.00    -0.166 F 
ENDBRANCH  35  37
ENDBRANCH  31  32
ENDBRANCH  29  31
ENDBRANCH  23  27
ENDBRANCH   1  21
TORSDOF 10
ENDMDL
