MODEL 1
REMARK VINA RESULT:      -6.9      0.000      0.000
REMARK  Name = pdb/CHEMBL3918364.pdb
REMARK                            x       y       z     vdW  Elec       q    Type
REMARK                         _______ _______ _______ _____ _____    ______ ____
ROOT
ATOM      1  C   LIG    1      -36.092  71.896  26.815  0.00  0.00    +0.149 A 
ATOM      2  N   LIG    1      -37.156  72.652  26.521  0.00  0.00    -0.160 NA
ATOM      3  N   LIG    1      -37.614  72.201  25.328  0.00  0.00    -0.218 N 
ATOM      4  C   LIG    1      -36.824  71.152  24.840  0.00  0.00    +0.129 A 
ATOM      5  C   LIG    1      -35.815  70.998  25.765  0.00  0.00    +0.078 A 
ENDROOT
BRANCH   3   6
ATOM      6  C   LIG    1      -38.751  72.845  24.756  0.00  0.00    +0.067 A 
ATOM      7  C   LIG    1      -39.819  72.140  24.198  0.00  0.00    +0.028 A 
ATOM      8  C   LIG    1      -40.903  72.829  23.642  0.00  0.00    +0.002 A 
ATOM      9  C   LIG    1      -40.937  74.222  23.658  0.00  0.00    +0.000 A 
ATOM     10  C   LIG    1      -39.888  74.933  24.233  0.00  0.00    +0.002 A 
ATOM     11  C   LIG    1      -38.805  74.250  24.788  0.00  0.00    +0.028 A 
ENDBRANCH   3   6
BRANCH   4  12
ATOM     12  N   LIG    1      -36.945  70.447  23.638  0.00  0.00    -0.266 N 
ATOM     13  H   LIG    1      -36.536  70.872  22.816  0.00  0.00    +0.157 HD
ATOM     14  C   LIG    1      -37.588  69.164  23.499  0.00  0.00    +0.251 C 
ATOM     15  O   LIG    1      -38.084  68.603  24.477  0.00  0.00    -0.270 OA
BRANCH  14  16
ATOM     16  C   LIG    1      -37.687  68.547  22.152  0.00  0.00    +0.056 A 
ATOM     17  C   LIG    1      -38.827  68.584  21.341  0.00  0.00    +0.054 A 
ATOM     18 CL   LIG    1      -40.249  69.495  21.673  0.00  0.00    -0.083 Cl
ATOM     19  C   LIG    1      -38.858  67.861  20.155  0.00  0.00    +0.041 A 
ATOM     20  C   LIG    1      -37.752  67.121  19.724  0.00  0.00    +0.052 A 
ATOM     21 CL   LIG    1      -38.029  66.187  18.292  0.00  0.00    -0.083 Cl
ATOM     22  C   LIG    1      -36.544  67.122  20.453  0.00  0.00    +0.022 A 
ATOM     23  C   LIG    1      -36.554  67.842  21.672  0.00  0.00    +0.026 A 
BRANCH  22  24
ATOM     24  C   LIG    1      -35.313  66.431  19.981  0.00  0.00    +0.107 A 
ATOM     25  C   LIG    1      -34.592  66.799  18.842  0.00  0.00    +0.149 A 
ATOM     26  F   LIG    1      -34.967  67.837  18.081  0.00  0.00    -0.203 F 
ATOM     27  C   LIG    1      -33.452  66.088  18.479  0.00  0.00    +0.042 A 
ATOM     28  C   LIG    1      -33.031  65.026  19.269  0.00  0.00    +0.023 A 
ATOM     29  C   LIG    1      -33.790  64.709  20.379  0.00  0.00    +0.111 A 
ATOM     30  N   LIG    1      -34.922  65.363  20.725  0.00  0.00    -0.252 NA
ENDBRANCH  22  24
ENDBRANCH  14  16
ENDBRANCH   4  12
BRANCH   1  32
ATOM     31  N   LIG    1      -34.220  72.657  28.048  0.00  0.00    -0.243 NA
ATOM     32  C   LIG    1      -35.344  72.039  28.060  0.00  0.00    +0.236 C 
BRANCH  32  33
ATOM     33  O   LIG    1      -35.924  71.479  29.141  0.00  0.00    -0.491 OA
ATOM     34  H   LIG    1      -35.371  70.816  29.570  0.00  0.00    +0.294 HD
ENDBRANCH  32  33
BRANCH  31  35
ATOM     35  C   LIG    1      -33.481  72.868  29.284  0.00  0.00    +0.200 C 
BRANCH  35  40
ATOM     36  C   LIG    1      -32.483  77.588  28.027  0.00  0.00    +0.086 C 
ATOM     37  C   LIG    1      -32.302  76.261  28.659  0.00  0.00    +0.104 A 
ATOM     38  N   LIG    1      -33.218  75.251  28.525  0.00  0.00    -0.344 N 
ATOM     39  H   LIG    1      -34.087  75.283  28.011  0.00  0.00    +0.167 HD
ATOM     40  C   LIG    1      -32.749  74.154  29.203  0.00  0.00    +0.057 A 
ATOM     41  C   LIG    1      -31.553  74.571  29.743  0.00  0.00    +0.135 A 
ATOM     42  N   LIG    1      -31.290  75.872  29.406  0.00  0.00    -0.241 NA
ENDBRANCH  35  40
ENDBRANCH  31  35
ENDBRANCH   1  32
TORSDOF 8
ENDMDL
MODEL 2
REMARK VINA RESULT:      -6.8      6.040      8.970
REMARK  Name = pdb/CHEMBL3918364.pdb
REMARK                            x       y       z     vdW  Elec       q    Type
REMARK                         _______ _______ _______ _____ _____    ______ ____
ROOT
ATOM      1  C   LIG    1      -31.269  74.796  30.061  0.00  0.00    +0.149 A 
ATOM      2  N   LIG    1      -31.433  76.076  29.712  0.00  0.00    -0.160 NA
ATOM      3  N   LIG    1      -32.527  76.107  28.913  0.00  0.00    -0.218 N 
ATOM      4  C   LIG    1      -33.064  74.826  28.732  0.00  0.00    +0.129 A 
ATOM      5  C   LIG    1      -32.223  73.980  29.420  0.00  0.00    +0.078 A 
ENDROOT
BRANCH   3   6
ATOM      6  C   LIG    1      -32.932  77.363  28.372  0.00  0.00    +0.067 A 
ATOM      7  C   LIG    1      -33.950  78.136  28.934  0.00  0.00    +0.028 A 
ATOM      8  C   LIG    1      -34.309  79.357  28.352  0.00  0.00    +0.002 A 
ATOM      9  C   LIG    1      -33.643  79.822  27.219  0.00  0.00    +0.000 A 
ATOM     10  C   LIG    1      -32.612  79.070  26.666  0.00  0.00    +0.002 A 
ATOM     11  C   LIG    1      -32.250  77.852  27.243  0.00  0.00    +0.028 A 
ENDBRANCH   3   6
BRANCH   4  12
ATOM     12  N   LIG    1      -34.161  74.434  27.957  0.00  0.00    -0.266 N 
ATOM     13  H   LIG    1      -33.969  74.140  27.008  0.00  0.00    +0.157 HD
ATOM     14  C   LIG    1      -35.526  74.404  28.421  0.00  0.00    +0.251 C 
ATOM     15  O   LIG    1      -35.803  74.738  29.574  0.00  0.00    -0.270 OA
BRANCH  14  16
ATOM     16  C   LIG    1      -36.602  74.012  27.477  0.00  0.00    +0.056 A 
ATOM     17  C   LIG    1      -36.962  72.691  27.184  0.00  0.00    +0.054 A 
ATOM     18 CL   LIG    1      -36.353  71.297  27.989  0.00  0.00    -0.083 Cl
ATOM     19  C   LIG    1      -37.893  72.431  26.186  0.00  0.00    +0.041 A 
ATOM     20  C   LIG    1      -38.520  73.469  25.487  0.00  0.00    +0.052 A 
ATOM     21 CL   LIG    1      -39.550  72.943  24.197  0.00  0.00    -0.083 Cl
ATOM     22  C   LIG    1      -38.266  74.820  25.803  0.00  0.00    +0.022 A 
ATOM     23  C   LIG    1      -37.290  75.052  26.802  0.00  0.00    +0.026 A 
BRANCH  22  24
ATOM     24  C   LIG    1      -38.983  75.951  25.154  0.00  0.00    +0.107 A 
ATOM     25  C   LIG    1      -38.404  76.819  24.225  0.00  0.00    +0.149 A 
ATOM     26  F   LIG    1      -37.128  76.681  23.837  0.00  0.00    -0.203 F 
ATOM     27  C   LIG    1      -39.156  77.853  23.673  0.00  0.00    +0.042 A 
ATOM     28  C   LIG    1      -40.487  77.997  24.041  0.00  0.00    +0.023 A 
ATOM     29  C   LIG    1      -41.000  77.110  24.968  0.00  0.00    +0.111 A 
ATOM     30  N   LIG    1      -40.273  76.125  25.544  0.00  0.00    -0.252 NA
ENDBRANCH  22  24
ENDBRANCH  14  16
ENDBRANCH   4  12
BRANCH   1  32
ATOM     31  N   LIG    1      -29.590  75.229  31.672  0.00  0.00    -0.243 NA
ATOM     32  C   LIG    1      -30.216  74.356  30.972  0.00  0.00    +0.236 C 
BRANCH  32  33
ATOM     33  O   LIG    1      -29.989  73.027  30.982  0.00  0.00    -0.491 OA
ATOM     34  H   LIG    1      -30.162  72.604  30.134  0.00  0.00    +0.294 HD
ENDBRANCH  32  33
BRANCH  31  35
ATOM     35  C   LIG    1      -28.578  74.816  32.632  0.00  0.00    +0.200 C 
BRANCH  35  40
ATOM     36  C   LIG    1      -24.757  77.532  30.934  0.00  0.00    +0.086 C 
ATOM     37  C   LIG    1      -25.522  76.332  31.345  0.00  0.00    +0.104 A 
ATOM     38  N   LIG    1      -26.802  76.405  31.826  0.00  0.00    -0.344 N 
ATOM     39  H   LIG    1      -27.355  77.240  31.959  0.00  0.00    +0.167 HD
ATOM     40  C   LIG    1      -27.233  75.129  32.091  0.00  0.00    +0.057 A 
ATOM     41  C   LIG    1      -26.160  74.330  31.767  0.00  0.00    +0.135 A 
ATOM     42  N   LIG    1      -25.108  75.083  31.314  0.00  0.00    -0.241 NA
ENDBRANCH  35  40
ENDBRANCH  31  35
ENDBRANCH   1  32
TORSDOF 8
ENDMDL
MODEL 3
REMARK VINA RESULT:      -6.8     16.852     18.947
REMARK  Name = pdb/CHEMBL3918364.pdb
REMARK                            x       y       z     vdW  Elec       q    Type
REMARK                         _______ _______ _______ _____ _____    ______ ____
ROOT
ATOM      1  C   LIG    1      -23.052  81.423  15.633  0.00  0.00    +0.149 A 
ATOM      2  N   LIG    1      -22.282  80.348  15.831  0.00  0.00    -0.160 NA
ATOM      3  N   LIG    1      -22.865  79.340  15.140  0.00  0.00    -0.218 N 
ATOM      4  C   LIG    1      -24.037  79.768  14.502  0.00  0.00    +0.129 A 
ATOM      5  C   LIG    1      -24.187  81.088  14.868  0.00  0.00    +0.078 A 
ENDROOT
BRANCH   3   6
ATOM      6  C   LIG    1      -22.257  78.051  15.185  0.00  0.00    +0.067 A 
ATOM      7  C   LIG    1      -22.993  76.871  15.312  0.00  0.00    +0.028 A 
ATOM      8  C   LIG    1      -22.337  75.635  15.361  0.00  0.00    +0.002 A 
ATOM      9  C   LIG    1      -20.948  75.568  15.264  0.00  0.00    +0.000 A 
ATOM     10  C   LIG    1      -20.208  76.737  15.115  0.00  0.00    +0.002 A 
ATOM     11  C   LIG    1      -20.857  77.971  15.065  0.00  0.00    +0.028 A 
ENDBRANCH   3   6
BRANCH   4  12
ATOM     12  N   LIG    1      -24.936  79.028  13.728  0.00  0.00    -0.266 N 
ATOM     13  H   LIG    1      -24.778  79.016  12.729  0.00  0.00    +0.157 HD
ATOM     14  C   LIG    1      -26.047  78.275  14.254  0.00  0.00    +0.251 C 
ATOM     15  O   LIG    1      -26.267  78.246  15.466  0.00  0.00    -0.270 OA
BRANCH  14  16
ATOM     16  C   LIG    1      -26.954  77.570  13.314  0.00  0.00    +0.056 A 
ATOM     17  C   LIG    1      -26.884  76.206  13.011  0.00  0.00    +0.054 A 
ATOM     18 CL   LIG    1      -25.860  75.068  13.798  0.00  0.00    -0.083 Cl
ATOM     19  C   LIG    1      -27.695  75.673  12.016  0.00  0.00    +0.041 A 
ATOM     20  C   LIG    1      -28.622  76.466  11.330  0.00  0.00    +0.052 A 
ATOM     21 CL   LIG    1      -29.447  75.652  10.042  0.00  0.00    -0.083 Cl
ATOM     22  C   LIG    1      -28.803  77.826  11.657  0.00  0.00    +0.022 A 
ATOM     23  C   LIG    1      -27.940  78.347  12.653  0.00  0.00    +0.026 A 
BRANCH  22  24
ATOM     24  C   LIG    1      -29.844  78.680  11.023  0.00  0.00    +0.107 A 
ATOM     25  C   LIG    1      -29.796  79.128   9.702  0.00  0.00    +0.149 A 
ATOM     26  F   LIG    1      -28.782  78.801   8.887  0.00  0.00    -0.203 F 
ATOM     27  C   LIG    1      -30.819  79.927   9.198  0.00  0.00    +0.042 A 
ATOM     28  C   LIG    1      -31.892  80.255  10.016  0.00  0.00    +0.023 A 
ATOM     29  C   LIG    1      -31.879  79.785  11.316  0.00  0.00    +0.111 A 
ATOM     30  N   LIG    1      -30.874  79.041  11.833  0.00  0.00    -0.252 NA
ENDBRANCH  22  24
ENDBRANCH  14  16
ENDBRANCH   4  12
BRANCH   1  32
ATOM     31  N   LIG    1      -22.770  83.763  15.407  0.00  0.00    -0.243 NA
ATOM     32  C   LIG    1      -22.725  82.738  16.177  0.00  0.00    +0.236 C 
BRANCH  32  33
ATOM     33  O   LIG    1      -22.385  82.747  17.482  0.00  0.00    -0.491 OA
ATOM     34  H   LIG    1      -21.548  82.306  17.661  0.00  0.00    +0.294 HD
ENDBRANCH  32  33
BRANCH  31  35
ATOM     35  C   LIG    1      -22.507  85.093  15.934  0.00  0.00    +0.200 C 
BRANCH  35  40
ATOM     36  C   LIG    1      -19.572  87.864  13.008  0.00  0.00    +0.086 C 
ATOM     37  C   LIG    1      -20.807  87.217  13.507  0.00  0.00    +0.104 A 
ATOM     38  N   LIG    1      -20.820  86.409  14.612  0.00  0.00    -0.344 N 
ATOM     39  H   LIG    1      -20.031  86.161  15.193  0.00  0.00    +0.167 HD
ATOM     40  C   LIG    1      -22.109  85.991  14.823  0.00  0.00    +0.057 A 
ATOM     41  C   LIG    1      -22.828  86.566  13.799  0.00  0.00    +0.135 A 
ATOM     42  N   LIG    1      -22.014  87.314  12.990  0.00  0.00    -0.241 NA
ENDBRANCH  35  40
ENDBRANCH  31  35
ENDBRANCH   1  32
TORSDOF 8
ENDMDL
MODEL 4
REMARK VINA RESULT:      -6.8     17.454     19.489
REMARK  Name = pdb/CHEMBL3918364.pdb
REMARK                            x       y       z     vdW  Elec       q    Type
REMARK                         _______ _______ _______ _____ _____    ______ ____
ROOT
ATOM      1  C   LIG    1      -22.917  82.560  15.518  0.00  0.00    +0.149 A 
ATOM      2  N   LIG    1      -23.999  82.054  14.917  0.00  0.00    -0.160 NA
ATOM      3  N   LIG    1      -23.866  80.708  14.983  0.00  0.00    -0.218 N 
ATOM      4  C   LIG    1      -22.673  80.342  15.620  0.00  0.00    +0.129 A 
ATOM      5  C   LIG    1      -22.038  81.530  15.910  0.00  0.00    +0.078 A 
ENDROOT
BRANCH   3   6
ATOM      6  C   LIG    1      -24.884  79.900  14.396  0.00  0.00    +0.067 A 
ATOM      7  C   LIG    1      -25.561  78.905  15.104  0.00  0.00    +0.028 A 
ATOM      8  C   LIG    1      -26.546  78.137  14.470  0.00  0.00    +0.002 A 
ATOM      9  C   LIG    1      -26.873  78.372  13.135  0.00  0.00    +0.000 A 
ATOM     10  C   LIG    1      -26.220  79.377  12.429  0.00  0.00    +0.002 A 
ATOM     11  C   LIG    1      -25.238  80.144  13.057  0.00  0.00    +0.028 A 
ENDBRANCH   3   6
BRANCH   4  12
ATOM     12  N   LIG    1      -22.156  79.063  15.852  0.00  0.00    -0.266 N 
ATOM     13  H   LIG    1      -22.163  78.734  16.808  0.00  0.00    +0.157 HD
ATOM     14  C   LIG    1      -21.641  78.187  14.829  0.00  0.00    +0.251 C 
ATOM     15  O   LIG    1      -21.631  78.540  13.649  0.00  0.00    -0.270 OA
BRANCH  14  16
ATOM     16  C   LIG    1      -21.078  76.870  15.220  0.00  0.00    +0.056 A 
ATOM     17  C   LIG    1      -19.716  76.553  15.213  0.00  0.00    +0.054 A 
ATOM     18 CL   LIG    1      -18.439  77.671  14.924  0.00  0.00    -0.083 Cl
ATOM     19  C   LIG    1      -19.306  75.250  15.469  0.00  0.00    +0.041 A 
ATOM     20  C   LIG    1      -20.228  74.244  15.780  0.00  0.00    +0.052 A 
ATOM     21 CL   LIG    1      -19.536  72.664  15.941  0.00  0.00    -0.083 Cl
ATOM     22  C   LIG    1      -21.605  74.526  15.895  0.00  0.00    +0.022 A 
ATOM     23  C   LIG    1      -21.994  75.855  15.596  0.00  0.00    +0.026 A 
BRANCH  22  24
ATOM     24  C   LIG    1      -22.607  73.511  16.320  0.00  0.00    +0.107 A 
ATOM     25  C   LIG    1      -22.656  72.942  17.594  0.00  0.00    +0.149 A 
ATOM     26  F   LIG    1      -21.785  73.289  18.552  0.00  0.00    -0.203 F 
ATOM     27  C   LIG    1      -23.632  71.995  17.897  0.00  0.00    +0.042 A 
ATOM     28  C   LIG    1      -24.561  71.641  16.928  0.00  0.00    +0.023 A 
ATOM     29  C   LIG    1      -24.456  72.236  15.686  0.00  0.00    +0.111 A 
ATOM     30  N   LIG    1      -23.491  73.127  15.362  0.00  0.00    -0.252 NA
ENDBRANCH  22  24
ENDBRANCH  14  16
ENDBRANCH   4  12
BRANCH   1  32
ATOM     31  N   LIG    1      -22.401  84.716  14.687  0.00  0.00    -0.243 NA
ATOM     32  C   LIG    1      -22.715  83.995  15.700  0.00  0.00    +0.236 C 
BRANCH  32  33
ATOM     33  O   LIG    1      -22.876  84.438  16.963  0.00  0.00    -0.491 OA
ATOM     34  H   LIG    1      -23.789  84.402  17.267  0.00  0.00    +0.294 HD
ENDBRANCH  32  33
BRANCH  31  35
ATOM     35  C   LIG    1      -22.252  86.157  14.826  0.00  0.00    +0.200 C 
BRANCH  35  40
ATOM     36  C   LIG    1      -17.652  85.774  12.944  0.00  0.00    +0.086 C 
ATOM     37  C   LIG    1      -18.913  86.412  13.385  0.00  0.00    +0.104 A 
ATOM     38  N   LIG    1      -19.957  85.696  13.906  0.00  0.00    -0.344 N 
ATOM     39  H   LIG    1      -20.000  84.695  14.043  0.00  0.00    +0.167 HD
ATOM     40  C   LIG    1      -20.958  86.574  14.236  0.00  0.00    +0.057 A 
ATOM     41  C   LIG    1      -20.464  87.808  13.874  0.00  0.00    +0.135 A 
ATOM     42  N   LIG    1      -19.205  87.695  13.345  0.00  0.00    -0.241 NA
ENDBRANCH  35  40
ENDBRANCH  31  35
ENDBRANCH   1  32
TORSDOF 8
ENDMDL
MODEL 5
REMARK VINA RESULT:      -6.7      3.409      4.732
REMARK  Name = pdb/CHEMBL3918364.pdb
REMARK                            x       y       z     vdW  Elec       q    Type
REMARK                         _______ _______ _______ _____ _____    ______ ____
ROOT
ATOM      1  C   LIG    1      -38.395  75.976  25.974  0.00  0.00    +0.149 A 
ATOM      2  N   LIG    1      -39.520  75.642  25.333  0.00  0.00    -0.160 NA
ATOM      3  N   LIG    1      -39.309  74.399  24.835  0.00  0.00    -0.218 N 
ATOM      4  C   LIG    1      -38.025  73.935  25.145  0.00  0.00    +0.129 A 
ATOM      5  C   LIG    1      -37.420  74.970  25.824  0.00  0.00    +0.078 A 
ENDROOT
BRANCH   3   6
ATOM      6  C   LIG    1      -40.354  73.790  24.079  0.00  0.00    +0.067 A 
ATOM      7  C   LIG    1      -40.418  72.415  23.849  0.00  0.00    +0.028 A 
ATOM      8  C   LIG    1      -41.464  71.876  23.090  0.00  0.00    +0.002 A 
ATOM      9  C   LIG    1      -42.461  72.703  22.575  0.00  0.00    +0.000 A 
ATOM     10  C   LIG    1      -42.419  74.072  22.819  0.00  0.00    +0.002 A 
ATOM     11  C   LIG    1      -41.378  74.614  23.575  0.00  0.00    +0.028 A 
ENDBRANCH   3   6
BRANCH   4  12
ATOM     12  N   LIG    1      -37.417  72.727  24.787  0.00  0.00    -0.266 N 
ATOM     13  H   LIG    1      -36.958  72.696  23.886  0.00  0.00    +0.157 HD
ATOM     14  C   LIG    1      -37.383  71.547  25.615  0.00  0.00    +0.251 C 
ATOM     15  O   LIG    1      -37.913  71.547  26.727  0.00  0.00    -0.270 OA
BRANCH  14  16
ATOM     16  C   LIG    1      -36.743  70.314  25.091  0.00  0.00    +0.056 A 
ATOM     17  C   LIG    1      -35.602  69.716  25.637  0.00  0.00    +0.054 A 
ATOM     18 CL   LIG    1      -34.841  70.191  27.107  0.00  0.00    -0.083 Cl
ATOM     19  C   LIG    1      -35.005  68.641  24.991  0.00  0.00    +0.041 A 
ATOM     20  C   LIG    1      -35.547  68.105  23.817  0.00  0.00    +0.052 A 
ATOM     21 CL   LIG    1      -34.592  66.854  23.093  0.00  0.00    -0.083 Cl
ATOM     22  C   LIG    1      -36.748  68.606  23.272  0.00  0.00    +0.022 A 
ATOM     23  C   LIG    1      -37.313  69.723  23.936  0.00  0.00    +0.026 A 
BRANCH  22  24
ATOM     24  C   LIG    1      -37.411  68.004  22.084  0.00  0.00    +0.107 A 
ATOM     25  C   LIG    1      -38.162  66.827  22.115  0.00  0.00    +0.149 A 
ATOM     26  F   LIG    1      -38.349  66.145  23.254  0.00  0.00    -0.203 F 
ATOM     27  C   LIG    1      -38.743  66.339  20.947  0.00  0.00    +0.042 A 
ATOM     28  C   LIG    1      -38.584  67.045  19.762  0.00  0.00    +0.023 A 
ATOM     29  C   LIG    1      -37.826  68.200  19.795  0.00  0.00    +0.111 A 
ATOM     30  N   LIG    1      -37.221  68.666  20.912  0.00  0.00    -0.252 NA
ENDBRANCH  22  24
ENDBRANCH  14  16
ENDBRANCH   4  12
BRANCH   1  32
ATOM     31  N   LIG    1      -37.370  77.319  27.632  0.00  0.00    -0.243 NA
ATOM     32  C   LIG    1      -38.245  77.235  26.698  0.00  0.00    +0.236 C 
BRANCH  32  33
ATOM     33  O   LIG    1      -39.077  78.221  26.306  0.00  0.00    -0.491 OA
ATOM     34  H   LIG    1      -38.939  78.497  25.394  0.00  0.00    +0.294 HD
ENDBRANCH  32  33
BRANCH  31  35
ATOM     35  C   LIG    1      -37.156  78.578  28.330  0.00  0.00    +0.200 C 
BRANCH  35  40
ATOM     36  C   LIG    1      -32.371  78.724  26.941  0.00  0.00    +0.086 C 
ATOM     37  C   LIG    1      -33.720  79.220  27.294  0.00  0.00    +0.104 A 
ATOM     38  N   LIG    1      -34.748  78.381  27.632  0.00  0.00    -0.344 N 
ATOM     39  H   LIG    1      -34.719  77.372  27.676  0.00  0.00    +0.167 HD
ATOM     40  C   LIG    1      -35.848  79.146  27.926  0.00  0.00    +0.057 A 
ATOM     41  C   LIG    1      -35.427  80.442  27.728  0.00  0.00    +0.135 A 
ATOM     42  N   LIG    1      -34.116  80.475  27.334  0.00  0.00    -0.241 NA
ENDBRANCH  35  40
ENDBRANCH  31  35
ENDBRANCH   1  32
TORSDOF 8
ENDMDL
MODEL 6
REMARK VINA RESULT:      -6.7      4.135     10.408
REMARK  Name = pdb/CHEMBL3918364.pdb
REMARK                            x       y       z     vdW  Elec       q    Type
REMARK                         _______ _______ _______ _____ _____    ______ ____
ROOT
ATOM      1  C   LIG    1      -36.318  69.121  25.456  0.00  0.00    +0.149 A 
ATOM      2  N   LIG    1      -37.273  70.047  25.313  0.00  0.00    -0.160 NA
ATOM      3  N   LIG    1      -36.726  71.213  25.732  0.00  0.00    -0.218 N 
ATOM      4  C   LIG    1      -35.407  71.033  26.166  0.00  0.00    +0.129 A 
ATOM      5  C   LIG    1      -35.167  69.681  26.044  0.00  0.00    +0.078 A 
ENDROOT
BRANCH   3   6
ATOM      6  C   LIG    1      -37.537  72.386  25.705  0.00  0.00    +0.067 A 
ATOM      7  C   LIG    1      -38.343  72.724  24.617  0.00  0.00    +0.028 A 
ATOM      8  C   LIG    1      -39.110  73.895  24.646  0.00  0.00    +0.002 A 
ATOM      9  C   LIG    1      -39.093  74.723  25.767  0.00  0.00    +0.000 A 
ATOM     10  C   LIG    1      -38.310  74.382  26.866  0.00  0.00    +0.002 A 
ATOM     11  C   LIG    1      -37.544  73.216  26.841  0.00  0.00    +0.028 A 
ENDBRANCH   3   6
BRANCH   4  12
ATOM     12  N   LIG    1      -34.520  71.974  26.700  0.00  0.00    -0.266 N 
ATOM     13  H   LIG    1      -33.932  72.471  26.044  0.00  0.00    +0.157 HD
ATOM     14  C   LIG    1      -34.405  72.293  28.101  0.00  0.00    +0.251 C 
ATOM     15  O   LIG    1      -35.115  71.725  28.933  0.00  0.00    -0.270 OA
BRANCH  14  16
ATOM     16  C   LIG    1      -33.387  73.281  28.537  0.00  0.00    +0.056 A 
ATOM     17  C   LIG    1      -32.219  72.964  29.239  0.00  0.00    +0.054 A 
ATOM     18 CL   LIG    1      -31.662  71.369  29.567  0.00  0.00    -0.083 Cl
ATOM     19  C   LIG    1      -31.399  73.980  29.716  0.00  0.00    +0.041 A 
ATOM     20  C   LIG    1      -31.692  75.326  29.474  0.00  0.00    +0.052 A 
ATOM     21 CL   LIG    1      -30.625  76.444  30.256  0.00  0.00    -0.083 Cl
ATOM     22  C   LIG    1      -32.805  75.702  28.693  0.00  0.00    +0.022 A 
ATOM     23  C   LIG    1      -33.638  74.646  28.248  0.00  0.00    +0.026 A 
BRANCH  22  24
ATOM     24  C   LIG    1      -33.097  77.115  28.327  0.00  0.00    +0.107 A 
ATOM     25  C   LIG    1      -32.515  77.785  27.248  0.00  0.00    +0.149 A 
ATOM     26  F   LIG    1      -31.634  77.178  26.440  0.00  0.00    -0.203 F 
ATOM     27  C   LIG    1      -32.851  79.111  26.987  0.00  0.00    +0.042 A 
ATOM     28  C   LIG    1      -33.781  79.749  27.796  0.00  0.00    +0.023 A 
ATOM     29  C   LIG    1      -34.318  79.034  28.850  0.00  0.00    +0.111 A 
ATOM     30  N   LIG    1      -33.973  77.759  29.143  0.00  0.00    -0.252 NA
ENDBRANCH  22  24
ENDBRANCH  14  16
ENDBRANCH   4  12
BRANCH   1  32
ATOM     31  N   LIG    1      -35.704  67.210  24.200  0.00  0.00    -0.243 NA
ATOM     32  C   LIG    1      -36.505  67.729  25.057  0.00  0.00    +0.236 C 
BRANCH  32  33
ATOM     33  O   LIG    1      -37.546  67.103  25.643  0.00  0.00    -0.491 OA
ATOM     34  H   LIG    1      -37.773  66.266  25.223  0.00  0.00    +0.294 HD
ENDBRANCH  32  33
BRANCH  31  35
ATOM     35  C   LIG    1      -35.828  65.809  23.829  0.00  0.00    +0.200 C 
BRANCH  35  40
ATOM     36  C   LIG    1      -32.642  66.444  20.048  0.00  0.00    +0.086 C 
ATOM     37  C   LIG    1      -33.753  65.858  20.832  0.00  0.00    +0.104 A 
ATOM     38  N   LIG    1      -34.103  66.322  22.072  0.00  0.00    -0.344 N 
ATOM     39  H   LIG    1      -33.669  67.078  22.583  0.00  0.00    +0.167 HD
ATOM     40  C   LIG    1      -35.176  65.591  22.516  0.00  0.00    +0.057 A 
ATOM     41  C   LIG    1      -35.416  64.687  21.505  0.00  0.00    +0.135 A 
ATOM     42  N   LIG    1      -34.529  64.857  20.475  0.00  0.00    -0.241 NA
ENDBRANCH  35  40
ENDBRANCH  31  35
ENDBRANCH   1  32
TORSDOF 8
ENDMDL
MODEL 7
REMARK VINA RESULT:      -6.7     10.636     15.634
REMARK  Name = pdb/CHEMBL3918364.pdb
REMARK                            x       y       z     vdW  Elec       q    Type
REMARK                         _______ _______ _______ _____ _____    ______ ____
ROOT
ATOM      1  C   LIG    1      -31.228  87.166  30.518  0.00  0.00    +0.149 A 
ATOM      2  N   LIG    1      -32.113  87.995  29.954  0.00  0.00    -0.160 NA
ATOM      3  N   LIG    1      -33.044  87.203  29.371  0.00  0.00    -0.218 N 
ATOM      4  C   LIG    1      -32.746  85.846  29.547  0.00  0.00    +0.129 A 
ATOM      5  C   LIG    1      -31.550  85.825  30.232  0.00  0.00    +0.078 A 
ENDROOT
BRANCH   3   6
ATOM      6  C   LIG    1      -34.117  87.829  28.669  0.00  0.00    +0.067 A 
ATOM      7  C   LIG    1      -35.321  87.178  28.391  0.00  0.00    +0.028 A 
ATOM      8  C   LIG    1      -36.334  87.842  27.690  0.00  0.00    +0.002 A 
ATOM      9  C   LIG    1      -36.160  89.163  27.281  0.00  0.00    +0.000 A 
ATOM     10  C   LIG    1      -34.973  89.828  27.573  0.00  0.00    +0.002 A 
ATOM     11  C   LIG    1      -33.960  89.169  28.272  0.00  0.00    +0.028 A 
ENDBRANCH   3   6
BRANCH   4  12
ATOM     12  N   LIG    1      -33.435  84.726  29.072  0.00  0.00    -0.266 N 
ATOM     13  H   LIG    1      -33.205  84.409  28.139  0.00  0.00    +0.157 HD
ATOM     14  C   LIG    1      -34.422  83.990  29.822  0.00  0.00    +0.251 C 
ATOM     15  O   LIG    1      -34.719  84.329  30.968  0.00  0.00    -0.270 OA
BRANCH  14  16
ATOM     16  C   LIG    1      -35.113  82.844  29.178  0.00  0.00    +0.056 A 
ATOM     17  C   LIG    1      -36.490  82.778  28.936  0.00  0.00    +0.054 A 
ATOM     18 CL   LIG    1      -37.600  84.072  29.173  0.00  0.00    -0.083 Cl
ATOM     19  C   LIG    1      -37.053  81.605  28.450  0.00  0.00    +0.041 A 
ATOM     20  C   LIG    1      -36.265  80.487  28.152  0.00  0.00    +0.052 A 
ATOM     21 CL   LIG    1      -37.163  79.083  27.680  0.00  0.00    -0.083 Cl
ATOM     22  C   LIG    1      -34.862  80.527  28.287  0.00  0.00    +0.022 A 
ATOM     23  C   LIG    1      -34.321  81.725  28.814  0.00  0.00    +0.026 A 
BRANCH  22  24
ATOM     24  C   LIG    1      -33.978  79.398  27.888  0.00  0.00    +0.107 A 
ATOM     25  C   LIG    1      -33.866  78.199  28.595  0.00  0.00    +0.149 A 
ATOM     26  F   LIG    1      -34.577  77.974  29.709  0.00  0.00    -0.203 F 
ATOM     27  C   LIG    1      -33.008  77.200  28.143  0.00  0.00    +0.042 A 
ATOM     28  C   LIG    1      -32.283  77.402  26.976  0.00  0.00    +0.023 A 
ATOM     29  C   LIG    1      -32.433  78.611  26.325  0.00  0.00    +0.111 A 
ATOM     30  N   LIG    1      -33.231  79.608  26.771  0.00  0.00    -0.252 NA
ENDBRANCH  22  24
ENDBRANCH  14  16
ENDBRANCH   4  12
BRANCH   1  32
ATOM     31  N   LIG    1      -30.135  87.573  32.579  0.00  0.00    -0.243 NA
ATOM     32  C   LIG    1      -30.089  87.642  31.299  0.00  0.00    +0.236 C 
BRANCH  32  33
ATOM     33  O   LIG    1      -29.066  88.135  30.572  0.00  0.00    -0.491 OA
ATOM     34  H   LIG    1      -28.990  87.734  29.699  0.00  0.00    +0.294 HD
ENDBRANCH  32  33
BRANCH  31  35
ATOM     35  C   LIG    1      -28.992  87.983  33.380  0.00  0.00    +0.200 C 
BRANCH  35  40
ATOM     36  C   LIG    1      -27.008  84.441  36.272  0.00  0.00    +0.086 C 
ATOM     37  C   LIG    1      -27.956  85.487  35.827  0.00  0.00    +0.104 A 
ATOM     38  N   LIG    1      -27.787  86.185  34.661  0.00  0.00    -0.344 N 
ATOM     39  H   LIG    1      -27.034  86.084  33.995  0.00  0.00    +0.167 HD
ATOM     40  C   LIG    1      -28.839  87.056  34.526  0.00  0.00    +0.057 A 
ATOM     41  C   LIG    1      -29.601  86.850  35.655  0.00  0.00    +0.135 A 
ATOM     42  N   LIG    1      -29.044  85.885  36.452  0.00  0.00    -0.241 NA
ENDBRANCH  35  40
ENDBRANCH  31  35
ENDBRANCH   1  32
TORSDOF 8
ENDMDL
MODEL 8
REMARK VINA RESULT:      -6.7     11.750     19.423
REMARK  Name = pdb/CHEMBL3918364.pdb
REMARK                            x       y       z     vdW  Elec       q    Type
REMARK                         _______ _______ _______ _____ _____    ______ ____
ROOT
ATOM      1  C   LIG    1      -26.862  75.719  32.071  0.00  0.00    +0.149 A 
ATOM      2  N   LIG    1      -25.757  75.446  31.368  0.00  0.00    -0.160 NA
ATOM      3  N   LIG    1      -24.838  76.368  31.746  0.00  0.00    -0.218 N 
ATOM      4  C   LIG    1      -25.365  77.257  32.692  0.00  0.00    +0.129 A 
ATOM      5  C   LIG    1      -26.679  76.876  32.854  0.00  0.00    +0.078 A 
ENDROOT
BRANCH   3   6
ATOM      6  C   LIG    1      -23.550  76.325  31.136  0.00  0.00    +0.067 A 
ATOM      7  C   LIG    1      -23.279  76.914  29.899  0.00  0.00    +0.028 A 
ATOM      8  C   LIG    1      -21.995  76.830  29.346  0.00  0.00    +0.002 A 
ATOM      9  C   LIG    1      -20.972  76.177  30.032  0.00  0.00    +0.000 A 
ATOM     10  C   LIG    1      -21.227  75.608  31.276  0.00  0.00    +0.002 A 
ATOM     11  C   LIG    1      -22.505  75.689  31.831  0.00  0.00    +0.028 A 
ENDBRANCH   3   6
BRANCH   4  12
ATOM     12  N   LIG    1      -24.753  78.359  33.297  0.00  0.00    -0.266 N 
ATOM     13  H   LIG    1      -25.000  79.273  32.940  0.00  0.00    +0.157 HD
ATOM     14  C   LIG    1      -23.823  78.282  34.396  0.00  0.00    +0.251 C 
ATOM     15  O   LIG    1      -23.508  77.191  34.875  0.00  0.00    -0.270 OA
BRANCH  14  16
ATOM     16  C   LIG    1      -23.210  79.531  34.915  0.00  0.00    +0.056 A 
ATOM     17  C   LIG    1      -21.873  79.899  34.728  0.00  0.00    +0.054 A 
ATOM     18 CL   LIG    1      -20.749  79.071  33.721  0.00  0.00    -0.083 Cl
ATOM     19  C   LIG    1      -21.368  81.024  35.369  0.00  0.00    +0.041 A 
ATOM     20  C   LIG    1      -22.181  81.831  36.172  0.00  0.00    +0.052 A 
ATOM     21 CL   LIG    1      -21.340  83.110  36.985  0.00  0.00    -0.083 Cl
ATOM     22  C   LIG    1      -23.557  81.562  36.321  0.00  0.00    +0.022 A 
ATOM     23  C   LIG    1      -24.035  80.392  35.682  0.00  0.00    +0.026 A 
BRANCH  22  24
ATOM     24  C   LIG    1      -24.477  82.449  37.084  0.00  0.00    +0.107 A 
ATOM     25  C   LIG    1      -24.435  82.620  38.470  0.00  0.00    +0.149 A 
ATOM     26  F   LIG    1      -23.529  81.986  39.227  0.00  0.00    -0.203 F 
ATOM     27  C   LIG    1      -25.342  83.472  39.094  0.00  0.00    +0.042 A 
ATOM     28  C   LIG    1      -26.272  84.160  38.325  0.00  0.00    +0.023 A 
ATOM     29  C   LIG    1      -26.266  83.943  36.961  0.00  0.00    +0.111 A 
ATOM     30  N   LIG    1      -25.419  83.089  36.341  0.00  0.00    -0.252 NA
ENDBRANCH  22  24
ENDBRANCH  14  16
ENDBRANCH   4  12
BRANCH   1  32
ATOM     31  N   LIG    1      -29.181  75.469  31.670  0.00  0.00    -0.243 NA
ATOM     32  C   LIG    1      -28.071  74.907  31.983  0.00  0.00    +0.236 C 
BRANCH  32  33
ATOM     33  O   LIG    1      -27.901  73.599  32.260  0.00  0.00    -0.491 OA
ATOM     34  H   LIG    1      -28.454  73.286  32.984  0.00  0.00    +0.294 HD
ENDBRANCH  32  33
BRANCH  31  35
ATOM     35  C   LIG    1      -30.391  74.676  31.516  0.00  0.00    +0.200 C 
BRANCH  35  40
ATOM     36  C   LIG    1      -31.928  77.866  28.007  0.00  0.00    +0.086 C 
ATOM     37  C   LIG    1      -31.879  76.631  28.823  0.00  0.00    +0.104 A 
ATOM     38  N   LIG    1      -30.962  76.445  29.822  0.00  0.00    -0.344 N 
ATOM     39  H   LIG    1      -30.239  77.089  30.111  0.00  0.00    +0.167 HD
ATOM     40  C   LIG    1      -31.196  75.221  30.397  0.00  0.00    +0.057 A 
ATOM     41  C   LIG    1      -32.257  74.706  29.687  0.00  0.00    +0.135 A 
ATOM     42  N   LIG    1      -32.666  75.581  28.715  0.00  0.00    -0.241 NA
ENDBRANCH  35  40
ENDBRANCH  31  35
ENDBRANCH   1  32
TORSDOF 8
ENDMDL
MODEL 9
REMARK VINA RESULT:      -6.6     16.381     19.429
REMARK  Name = pdb/CHEMBL3918364.pdb
REMARK                            x       y       z     vdW  Elec       q    Type
REMARK                         _______ _______ _______ _____ _____    ______ ____
ROOT
ATOM      1  C   LIG    1      -29.163  77.901  11.643  0.00  0.00    +0.149 A 
ATOM      2  N   LIG    1      -28.783  76.644  11.898  0.00  0.00    -0.160 NA
ATOM      3  N   LIG    1      -27.549  76.733  12.450  0.00  0.00    -0.218 N 
ATOM      4  C   LIG    1      -27.121  78.065  12.534  0.00  0.00    +0.129 A 
ATOM      5  C   LIG    1      -28.132  78.806  11.963  0.00  0.00    +0.078 A 
ENDROOT
BRANCH   3   6
ATOM      6  C   LIG    1      -26.883  75.525  12.812  0.00  0.00    +0.067 A 
ATOM      7  C   LIG    1      -25.880  74.950  12.031  0.00  0.00    +0.028 A 
ATOM      8  C   LIG    1      -25.270  73.757  12.435  0.00  0.00    +0.002 A 
ATOM      9  C   LIG    1      -25.644  73.142  13.630  0.00  0.00    +0.000 A 
ATOM     10  C   LIG    1      -26.627  73.720  14.426  0.00  0.00    +0.002 A 
ATOM     11  C   LIG    1      -27.237  74.910  14.027  0.00  0.00    +0.028 A 
ENDBRANCH   3   6
BRANCH   4  12
ATOM     12  N   LIG    1      -25.905  78.569  13.006  0.00  0.00    -0.266 N 
ATOM     13  H   LIG    1      -25.265  78.940  12.315  0.00  0.00    +0.157 HD
ATOM     14  C   LIG    1      -25.516  78.612  14.394  0.00  0.00    +0.251 C 
ATOM     15  O   LIG    1      -26.272  78.188  15.269  0.00  0.00    -0.270 OA
BRANCH  14  16
ATOM     16  C   LIG    1      -24.173  79.132  14.753  0.00  0.00    +0.056 A 
ATOM     17  C   LIG    1      -23.075  78.334  15.092  0.00  0.00    +0.054 A 
ATOM     18 CL   LIG    1      -23.027  76.617  14.984  0.00  0.00    -0.083 Cl
ATOM     19  C   LIG    1      -21.900  78.925  15.542  0.00  0.00    +0.041 A 
ATOM     20  C   LIG    1      -21.771  80.316  15.625  0.00  0.00    +0.052 A 
ATOM     21 CL   LIG    1      -20.282  80.856  16.327  0.00  0.00    -0.083 Cl
ATOM     22  C   LIG    1      -22.810  81.173  15.207  0.00  0.00    +0.022 A 
ATOM     23  C   LIG    1      -24.006  80.540  14.785  0.00  0.00    +0.026 A 
BRANCH  22  24
ATOM     24  C   LIG    1      -22.679  82.655  15.185  0.00  0.00    +0.107 A 
ATOM     25  C   LIG    1      -22.668  83.461  16.326  0.00  0.00    +0.149 A 
ATOM     26  F   LIG    1      -22.769  82.936  17.555  0.00  0.00    -0.203 F 
ATOM     27  C   LIG    1      -22.543  84.842  16.203  0.00  0.00    +0.042 A 
ATOM     28  C   LIG    1      -22.410  85.403  14.940  0.00  0.00    +0.023 A 
ATOM     29  C   LIG    1      -22.433  84.554  13.850  0.00  0.00    +0.111 A 
ATOM     30  N   LIG    1      -22.594  83.214  13.949  0.00  0.00    -0.252 NA
ENDBRANCH  22  24
ENDBRANCH  14  16
ENDBRANCH   4  12
BRANCH   1  32
ATOM     31  N   LIG    1      -31.230  79.053  11.718  0.00  0.00    -0.243 NA
ATOM     32  C   LIG    1      -30.473  78.230  11.088  0.00  0.00    +0.236 C 
BRANCH  32  33
ATOM     33  O   LIG    1      -30.775  77.609   9.931  0.00  0.00    -0.491 OA
ATOM     34  H   LIG    1      -31.392  78.105   9.381  0.00  0.00    +0.294 HD
ENDBRANCH  32  33
BRANCH  31  35
ATOM     35  C   LIG    1      -32.515  79.446  11.161  0.00  0.00    +0.200 C 
BRANCH  35  40
ATOM     36  C   LIG    1      -34.074  84.180  11.045  0.00  0.00    +0.086 C 
ATOM     37  C   LIG    1      -33.183  83.016  10.837  0.00  0.00    +0.104 A 
ATOM     38  N   LIG    1      -33.519  81.751  11.238  0.00  0.00    -0.344 N 
ATOM     39  H   LIG    1      -34.370  81.467  11.706  0.00  0.00    +0.167 HD
ATOM     40  C   LIG    1      -32.502  80.902  10.882  0.00  0.00    +0.057 A 
ATOM     41  C   LIG    1      -31.568  81.719  10.284  0.00  0.00    +0.135 A 
ATOM     42  N   LIG    1      -31.996  83.021  10.267  0.00  0.00    -0.241 NA
ENDBRANCH  35  40
ENDBRANCH  31  35
ENDBRANCH   1  32
TORSDOF 8
ENDMDL
