MODEL 1
REMARK VINA RESULT:      -6.6      0.000      0.000
REMARK  Name = pdb/CHEMBL3671404.pdb
REMARK                            x       y       z     vdW  Elec       q    Type
REMARK                         _______ _______ _______ _____ _____    ______ ____
ROOT
ATOM      1  C   LIG    1      -39.207  73.438  24.408  0.00  0.00    +0.042 A 
ATOM      2  C   LIG    1      -38.023  74.042  24.861  0.00  0.00    +0.038 A 
ATOM      3  C   LIG    1      -37.965  75.439  24.992  0.00  0.00    +0.052 A 
ATOM      4  C   LIG    1      -39.093  76.168  24.624  0.00  0.00    +0.134 A 
ATOM      5  N   LIG    1      -40.244  75.619  24.180  0.00  0.00    -0.261 NA
ATOM      6  C   LIG    1      -40.268  74.275  24.082  0.00  0.00    +0.122 A 
ENDROOT
BRANCH   3   7
ATOM      7  N   LIG    1      -36.792  76.042  25.490  0.00  0.00    -0.284 N 
ATOM      8  H   LIG    1      -36.133  76.409  24.802  0.00  0.00    +0.155 HD
ATOM      9  C   LIG    1      -36.441  76.145  26.829  0.00  0.00    +0.225 C 
ATOM     10  O   LIG    1      -37.111  75.738  27.779  0.00  0.00    -0.275 OA
BRANCH   9  11
ATOM     11  C   LIG    1      -35.087  76.754  27.118  0.00  0.00    +0.170 C 
BRANCH  11  12
ATOM     12  C   LIG    1      -34.198  75.781  27.788  0.00  0.00    +0.117 A 
ATOM     13  N   LIG    1      -34.460  74.435  27.817  0.00  0.00    -0.341 N 
ATOM     14  H   LIG    1      -35.252  73.969  27.395  0.00  0.00    +0.167 HD
ATOM     15  C   LIG    1      -33.462  73.828  28.531  0.00  0.00    +0.066 A 
ATOM     16  C   LIG    1      -33.211  72.490  28.830  0.00  0.00    +0.028 A 
ATOM     17  C   LIG    1      -32.073  72.226  29.598  0.00  0.00    +0.002 A 
ATOM     18  C   LIG    1      -31.243  73.257  30.048  0.00  0.00    +0.002 A 
ATOM     19  C   LIG    1      -31.524  74.594  29.739  0.00  0.00    +0.030 A 
ATOM     20  C   LIG    1      -32.655  74.873  28.961  0.00  0.00    +0.089 A 
ATOM     21  N   LIG    1      -33.146  76.077  28.524  0.00  0.00    -0.232 NA
ENDBRANCH  11  12
ENDBRANCH   9  11
ENDBRANCH   3   7
BRANCH   1  22
ATOM     22  C   LIG    1      -39.323  71.961  24.219  0.00  0.00    +0.197 C 
ATOM     23  O   LIG    1      -40.350  71.511  23.692  0.00  0.00    -0.287 OA
BRANCH  22  31
ATOM     24  N   LIG    1      -36.704  70.112  26.014  0.00  0.00    -0.326 N 
ATOM     25  C   LIG    1      -36.555  69.543  24.768  0.00  0.00    +0.147 A 
ATOM     26  N   LIG    1      -35.637  68.623  24.433  0.00  0.00    -0.197 NA
ATOM     27  C   LIG    1      -35.720  68.200  23.174  0.00  0.00    +0.214 A 
ATOM     28  N   LIG    1      -36.645  68.578  22.284  0.00  0.00    -0.222 NA
ATOM     29  C   LIG    1      -37.576  69.496  22.651  0.00  0.00    +0.126 A 
ATOM     30  C   LIG    1      -37.530  70.066  23.924  0.00  0.00    +0.048 A 
ATOM     31  C   LIG    1      -38.239  71.080  24.656  0.00  0.00    +0.051 A 
ATOM     32  C   LIG    1      -37.649  71.110  25.914  0.00  0.00    +0.100 A 
BRANCH  24  34
ATOM     33  C   LIG    1      -36.411  70.659  28.397  0.00  0.00    +0.034 C 
ATOM     34  C   LIG    1      -36.064  69.662  27.272  0.00  0.00    +0.039 C 
ATOM     35  C   LIG    1      -36.513  68.245  27.693  0.00  0.00    +0.034 C 
ATOM     36  C   LIG    1      -34.523  69.609  27.150  0.00  0.00    +0.034 C 
ENDBRANCH  24  34
BRANCH  27  37
ATOM     37  N   LIG    1      -34.730  67.338  22.734  0.00  0.00    -0.327 N 
ATOM     38  H   LIG    1      -34.578  67.469  21.743  0.00  0.00    +0.145 HD
ATOM     39  H   LIG    1      -34.956  66.401  23.038  0.00  0.00    +0.145 HD
ENDBRANCH  27  37
ENDBRANCH  22  31
ENDBRANCH   1  22
TORSDOF 7
ENDMDL
MODEL 2
REMARK VINA RESULT:      -6.5      2.619      8.871
REMARK  Name = pdb/CHEMBL3671404.pdb
REMARK                            x       y       z     vdW  Elec       q    Type
REMARK                         _______ _______ _______ _____ _____    ______ ____
ROOT
ATOM      1  C   LIG    1      -34.200  71.935  29.318  0.00  0.00    +0.042 A 
ATOM      2  C   LIG    1      -34.586  70.861  28.500  0.00  0.00    +0.038 A 
ATOM      3  C   LIG    1      -33.650  69.865  28.178  0.00  0.00    +0.052 A 
ATOM      4  C   LIG    1      -32.354  70.018  28.664  0.00  0.00    +0.134 A 
ATOM      5  N   LIG    1      -31.949  71.041  29.447  0.00  0.00    -0.261 NA
ATOM      6  C   LIG    1      -32.879  71.969  29.749  0.00  0.00    +0.122 A 
ENDROOT
BRANCH   3   7
ATOM      7  N   LIG    1      -34.049  68.763  27.396  0.00  0.00    -0.284 N 
ATOM      8  H   LIG    1      -34.289  67.905  27.893  0.00  0.00    +0.155 HD
ATOM      9  C   LIG    1      -34.106  68.733  26.008  0.00  0.00    +0.225 C 
ATOM     10  O   LIG    1      -33.832  69.671  25.260  0.00  0.00    -0.275 OA
BRANCH   9  11
ATOM     11  C   LIG    1      -34.478  67.406  25.385  0.00  0.00    +0.170 C 
BRANCH  11  12
ATOM     12  C   LIG    1      -35.120  67.600  24.067  0.00  0.00    +0.117 A 
ATOM     13  N   LIG    1      -36.112  68.523  23.854  0.00  0.00    -0.341 N 
ATOM     14  H   LIG    1      -36.499  69.157  24.540  0.00  0.00    +0.167 HD
ATOM     15  C   LIG    1      -36.500  68.428  22.544  0.00  0.00    +0.066 A 
ATOM     16  C   LIG    1      -37.426  69.148  21.792  0.00  0.00    +0.028 A 
ATOM     17  C   LIG    1      -37.566  68.772  20.452  0.00  0.00    +0.002 A 
ATOM     18  C   LIG    1      -36.821  67.723  19.907  0.00  0.00    +0.002 A 
ATOM     19  C   LIG    1      -35.901  67.012  20.689  0.00  0.00    +0.030 A 
ATOM     20  C   LIG    1      -35.743  67.383  22.031  0.00  0.00    +0.089 A 
ATOM     21  N   LIG    1      -34.922  66.857  22.997  0.00  0.00    -0.232 NA
ENDBRANCH  11  12
ENDBRANCH   9  11
ENDBRANCH   3   7
BRANCH   1  22
ATOM     22  C   LIG    1      -35.139  73.041  29.672  0.00  0.00    +0.197 C 
ATOM     23  O   LIG    1      -35.731  72.990  30.760  0.00  0.00    -0.287 OA
BRANCH  22  31
ATOM     24  N   LIG    1      -36.388  75.525  27.269  0.00  0.00    -0.326 N 
ATOM     25  C   LIG    1      -35.097  75.987  27.406  0.00  0.00    +0.147 A 
ATOM     26  N   LIG    1      -34.564  77.028  26.747  0.00  0.00    -0.197 NA
ATOM     27  C   LIG    1      -33.306  77.301  27.082  0.00  0.00    +0.214 A 
ATOM     28  N   LIG    1      -32.593  76.668  28.020  0.00  0.00    -0.222 NA
ATOM     29  C   LIG    1      -33.159  75.629  28.688  0.00  0.00    +0.126 A 
ATOM     30  C   LIG    1      -34.447  75.207  28.358  0.00  0.00    +0.048 A 
ATOM     31  C   LIG    1      -35.346  74.152  28.741  0.00  0.00    +0.051 A 
ATOM     32  C   LIG    1      -36.500  74.359  27.996  0.00  0.00    +0.100 A 
BRANCH  24  34
ATOM     33  C   LIG    1      -38.826  75.503  26.926  0.00  0.00    +0.034 C 
ATOM     34  C   LIG    1      -37.501  76.210  26.572  0.00  0.00    +0.039 C 
ATOM     35  C   LIG    1      -37.606  77.704  26.947  0.00  0.00    +0.034 C 
ATOM     36  C   LIG    1      -37.338  76.160  25.034  0.00  0.00    +0.034 C 
ENDBRANCH  24  34
BRANCH  27  37
ATOM     37  N   LIG    1      -32.663  78.290  26.356  0.00  0.00    -0.327 N 
ATOM     38  H   LIG    1      -31.946  78.719  26.924  0.00  0.00    +0.145 HD
ATOM     39  H   LIG    1      -33.358  78.906  25.959  0.00  0.00    +0.145 HD
ENDBRANCH  27  37
ENDBRANCH  22  31
ENDBRANCH   1  22
TORSDOF 7
ENDMDL
MODEL 3
REMARK VINA RESULT:      -6.4     18.409     20.154
REMARK  Name = pdb/CHEMBL3671404.pdb
REMARK                            x       y       z     vdW  Elec       q    Type
REMARK                         _______ _______ _______ _____ _____    ______ ____
ROOT
ATOM      1  C   LIG    1      -19.507  77.194  15.521  0.00  0.00    +0.042 A 
ATOM      2  C   LIG    1      -20.510  78.086  15.109  0.00  0.00    +0.038 A 
ATOM      3  C   LIG    1      -20.414  79.443  15.457  0.00  0.00    +0.052 A 
ATOM      4  C   LIG    1      -19.329  79.833  16.238  0.00  0.00    +0.134 A 
ATOM      5  N   LIG    1      -18.353  79.000  16.656  0.00  0.00    -0.261 NA
ATOM      6  C   LIG    1      -18.469  77.708  16.290  0.00  0.00    +0.122 A 
ENDROOT
BRANCH   3   7
ATOM      7  N   LIG    1      -21.396  80.347  15.004  0.00  0.00    -0.284 N 
ATOM      8  H   LIG    1      -21.362  80.613  14.019  0.00  0.00    +0.155 HD
ATOM      9  C   LIG    1      -22.378  80.936  15.790  0.00  0.00    +0.225 C 
ATOM     10  O   LIG    1      -22.544  80.741  16.994  0.00  0.00    -0.275 OA
BRANCH   9  11
ATOM     11  C   LIG    1      -23.267  81.947  15.100  0.00  0.00    +0.170 C 
BRANCH  11  12
ATOM     12  C   LIG    1      -22.541  83.213  14.854  0.00  0.00    +0.117 A 
ATOM     13  N   LIG    1      -23.000  84.428  15.295  0.00  0.00    -0.341 N 
ATOM     14  H   LIG    1      -23.846  84.594  15.821  0.00  0.00    +0.167 HD
ATOM     15  C   LIG    1      -22.112  85.386  14.882  0.00  0.00    +0.066 A 
ATOM     16  C   LIG    1      -22.065  86.763  15.088  0.00  0.00    +0.028 A 
ATOM     17  C   LIG    1      -20.989  87.443  14.509  0.00  0.00    +0.002 A 
ATOM     18  C   LIG    1      -20.022  86.771  13.757  0.00  0.00    +0.002 A 
ATOM     19  C   LIG    1      -20.098  85.386  13.561  0.00  0.00    +0.030 A 
ATOM     20  C   LIG    1      -21.164  84.689  14.143  0.00  0.00    +0.089 A 
ATOM     21  N   LIG    1      -21.466  83.351  14.104  0.00  0.00    -0.232 NA
ENDBRANCH  11  12
ENDBRANCH   9  11
ENDBRANCH   3   7
BRANCH   1  22
ATOM     22  C   LIG    1      -19.566  75.734  15.209  0.00  0.00    +0.197 C 
ATOM     23  O   LIG    1      -19.246  75.358  14.072  0.00  0.00    -0.287 OA
BRANCH  22  31
ATOM     24  N   LIG    1      -21.339  73.376  17.399  0.00  0.00    -0.326 N 
ATOM     25  C   LIG    1      -20.121  73.394  18.042  0.00  0.00    +0.147 A 
ATOM     26  N   LIG    1      -19.821  72.731  19.171  0.00  0.00    -0.197 NA
ATOM     27  C   LIG    1      -18.563  72.879  19.575  0.00  0.00    +0.214 A 
ATOM     28  N   LIG    1      -17.614  73.571  18.935  0.00  0.00    -0.222 NA
ATOM     29  C   LIG    1      -17.935  74.219  17.784  0.00  0.00    +0.126 A 
ATOM     30  C   LIG    1      -19.248  74.196  17.313  0.00  0.00    +0.048 A 
ATOM     31  C   LIG    1      -19.996  74.784  16.236  0.00  0.00    +0.051 A 
ATOM     32  C   LIG    1      -21.290  74.295  16.373  0.00  0.00    +0.100 A 
BRANCH  24  34
ATOM     33  C   LIG    1      -22.862  72.571  19.157  0.00  0.00    +0.034 C 
ATOM     34  C   LIG    1      -22.467  72.455  17.671  0.00  0.00    +0.039 C 
ATOM     35  C   LIG    1      -23.702  72.752  16.792  0.00  0.00    +0.034 C 
ATOM     36  C   LIG    1      -22.087  70.980  17.399  0.00  0.00    +0.034 C 
ENDBRANCH  24  34
BRANCH  27  37
ATOM     37  N   LIG    1      -18.223  72.314  20.793  0.00  0.00    -0.327 N 
ATOM     38  H   LIG    1      -17.394  71.746  20.686  0.00  0.00    +0.145 HD
ATOM     39  H   LIG    1      -19.039  71.860  21.180  0.00  0.00    +0.145 HD
ENDBRANCH  27  37
ENDBRANCH  22  31
ENDBRANCH   1  22
TORSDOF 7
ENDMDL
MODEL 4
REMARK VINA RESULT:      -6.4      3.245      7.397
REMARK  Name = pdb/CHEMBL3671404.pdb
REMARK                            x       y       z     vdW  Elec       q    Type
REMARK                         _______ _______ _______ _____ _____    ______ ____
ROOT
ATOM      1  C   LIG    1      -40.572  70.190  22.744  0.00  0.00    +0.042 A 
ATOM      2  C   LIG    1      -39.252  69.776  22.985  0.00  0.00    +0.038 A 
ATOM      3  C   LIG    1      -38.608  68.944  22.055  0.00  0.00    +0.052 A 
ATOM      4  C   LIG    1      -39.338  68.535  20.942  0.00  0.00    +0.134 A 
ATOM      5  N   LIG    1      -40.609  68.909  20.685  0.00  0.00    -0.261 NA
ATOM      6  C   LIG    1      -41.190  69.721  21.591  0.00  0.00    +0.122 A 
ENDROOT
BRANCH   3   7
ATOM      7  N   LIG    1      -37.268  68.566  22.273  0.00  0.00    -0.284 N 
ATOM      8  H   LIG    1      -36.595  69.317  22.435  0.00  0.00    +0.155 HD
ATOM      9  C   LIG    1      -36.779  67.266  22.249  0.00  0.00    +0.225 C 
ATOM     10  O   LIG    1      -37.449  66.253  22.050  0.00  0.00    -0.275 OA
BRANCH   9  11
ATOM     11  C   LIG    1      -35.284  67.113  22.421  0.00  0.00    +0.170 C 
BRANCH  11  12
ATOM     12  C   LIG    1      -34.870  67.463  23.797  0.00  0.00    +0.117 A 
ATOM     13  N   LIG    1      -34.718  66.525  24.787  0.00  0.00    -0.341 N 
ATOM     14  H   LIG    1      -34.858  65.528  24.695  0.00  0.00    +0.167 HD
ATOM     15  C   LIG    1      -34.354  67.180  25.933  0.00  0.00    +0.066 A 
ATOM     16  C   LIG    1      -34.033  66.719  27.208  0.00  0.00    +0.028 A 
ATOM     17  C   LIG    1      -33.699  67.691  28.156  0.00  0.00    +0.002 A 
ATOM     18  C   LIG    1      -33.699  69.051  27.836  0.00  0.00    +0.002 A 
ATOM     19  C   LIG    1      -34.033  69.487  26.548  0.00  0.00    +0.030 A 
ATOM     20  C   LIG    1      -34.361  68.525  25.584  0.00  0.00    +0.089 A 
ATOM     21  N   LIG    1      -34.719  68.683  24.269  0.00  0.00    -0.232 NA
ENDBRANCH  11  12
ENDBRANCH   9  11
ENDBRANCH   3   7
BRANCH   1  22
ATOM     22  C   LIG    1      -41.323  71.050  23.708  0.00  0.00    +0.197 C 
ATOM     23  O   LIG    1      -42.263  70.549  24.341  0.00  0.00    -0.287 OA
BRANCH  22  31
ATOM     24  N   LIG    1      -41.058  74.714  23.778  0.00  0.00    -0.326 N 
ATOM     25  C   LIG    1      -39.867  74.399  24.395  0.00  0.00    +0.147 A 
ATOM     26  N   LIG    1      -38.941  75.281  24.805  0.00  0.00    -0.197 NA
ATOM     27  C   LIG    1      -37.891  74.731  25.408  0.00  0.00    +0.214 A 
ATOM     28  N   LIG    1      -37.731  73.427  25.661  0.00  0.00    -0.222 NA
ATOM     29  C   LIG    1      -38.690  72.555  25.253  0.00  0.00    +0.126 A 
ATOM     30  C   LIG    1      -39.796  73.017  24.539  0.00  0.00    +0.048 A 
ATOM     31  C   LIG    1      -40.944  72.453  23.885  0.00  0.00    +0.051 A 
ATOM     32  C   LIG    1      -41.653  73.537  23.381  0.00  0.00    +0.100 A 
BRANCH  24  34
ATOM     33  C   LIG    1      -42.852  75.996  22.682  0.00  0.00    +0.034 C 
ATOM     34  C   LIG    1      -41.664  76.061  23.665  0.00  0.00    +0.039 C 
ATOM     35  C   LIG    1      -42.159  76.606  25.023  0.00  0.00    +0.034 C 
ATOM     36  C   LIG    1      -40.660  77.104  23.121  0.00  0.00    +0.034 C 
ENDBRANCH  24  34
BRANCH  27  37
ATOM     37  N   LIG    1      -36.849  75.576  25.751  0.00  0.00    -0.327 N 
ATOM     38  H   LIG    1      -36.567  75.400  26.706  0.00  0.00    +0.145 HD
ATOM     39  H   LIG    1      -37.111  76.525  25.522  0.00  0.00    +0.145 HD
ENDBRANCH  27  37
ENDBRANCH  22  31
ENDBRANCH   1  22
TORSDOF 7
ENDMDL
MODEL 5
REMARK VINA RESULT:      -6.3     21.126     23.487
REMARK  Name = pdb/CHEMBL3671404.pdb
REMARK                            x       y       z     vdW  Elec       q    Type
REMARK                         _______ _______ _______ _____ _____    ______ ____
ROOT
ATOM      1  C   LIG    1      -24.689  87.070  10.616  0.00  0.00    +0.042 A 
ATOM      2  C   LIG    1      -24.800  85.852  11.307  0.00  0.00    +0.038 A 
ATOM      3  C   LIG    1      -26.035  85.184  11.336  0.00  0.00    +0.052 A 
ATOM      4  C   LIG    1      -27.113  85.793  10.699  0.00  0.00    +0.134 A 
ATOM      5  N   LIG    1      -27.041  86.964  10.032  0.00  0.00    -0.261 NA
ATOM      6  C   LIG    1      -25.837  87.570  10.011  0.00  0.00    +0.122 A 
ENDROOT
BRANCH   3   7
ATOM      7  N   LIG    1      -26.135  83.940  11.991  0.00  0.00    -0.284 N 
ATOM      8  H   LIG    1      -26.574  83.936  12.913  0.00  0.00    +0.155 HD
ATOM      9  C   LIG    1      -25.655  82.730  11.507  0.00  0.00    +0.225 C 
ATOM     10  O   LIG    1      -25.087  82.565  10.428  0.00  0.00    -0.275 OA
BRANCH   9  11
ATOM     11  C   LIG    1      -25.799  81.539  12.430  0.00  0.00    +0.170 C 
BRANCH  11  12
ATOM     12  C   LIG    1      -24.669  81.467  13.382  0.00  0.00    +0.117 A 
ATOM     13  N   LIG    1      -23.400  81.874  13.059  0.00  0.00    -0.341 N 
ATOM     14  H   LIG    1      -23.101  82.262  12.175  0.00  0.00    +0.167 HD
ATOM     15  C   LIG    1      -22.598  81.650  14.147  0.00  0.00    +0.066 A 
ATOM     16  C   LIG    1      -21.251  81.916  14.381  0.00  0.00    +0.028 A 
ATOM     17  C   LIG    1      -20.752  81.548  15.635  0.00  0.00    +0.002 A 
ATOM     18  C   LIG    1      -21.568  80.937  16.593  0.00  0.00    +0.002 A 
ATOM     19  C   LIG    1      -22.918  80.676  16.327  0.00  0.00    +0.030 A 
ATOM     20  C   LIG    1      -23.434  81.048  15.079  0.00  0.00    +0.089 A 
ATOM     21  N   LIG    1      -24.702  80.908  14.575  0.00  0.00    -0.232 NA
ENDBRANCH  11  12
ENDBRANCH   9  11
ENDBRANCH   3   7
BRANCH   1  22
ATOM     22  C   LIG    1      -23.413  87.845  10.572  0.00  0.00    +0.197 C 
ATOM     23  O   LIG    1      -23.316  88.781   9.766  0.00  0.00    -0.287 OA
BRANCH  22  31
ATOM     24  N   LIG    1      -20.307  86.682  12.153  0.00  0.00    -0.326 N 
ATOM     25  C   LIG    1      -20.960  87.144  13.274  0.00  0.00    +0.147 A 
ATOM     26  N   LIG    1      -20.498  87.076  14.533  0.00  0.00    -0.197 NA
ATOM     27  C   LIG    1      -21.300  87.626  15.441  0.00  0.00    +0.214 A 
ATOM     28  N   LIG    1      -22.454  88.254  15.185  0.00  0.00    -0.222 NA
ATOM     29  C   LIG    1      -22.893  88.327  13.901  0.00  0.00    +0.126 A 
ATOM     30  C   LIG    1      -22.168  87.711  12.880  0.00  0.00    +0.048 A 
ATOM     31  C   LIG    1      -22.310  87.490  11.466  0.00  0.00    +0.051 A 
ATOM     32  C   LIG    1      -21.167  86.799  11.083  0.00  0.00    +0.100 A 
BRANCH  24  34
ATOM     33  C   LIG    1      -18.660  85.098  13.069  0.00  0.00    +0.034 C 
ATOM     34  C   LIG    1      -18.892  86.251  12.071  0.00  0.00    +0.039 C 
ATOM     35  C   LIG    1      -18.494  85.783  10.654  0.00  0.00    +0.034 C 
ATOM     36  C   LIG    1      -17.916  87.394  12.439  0.00  0.00    +0.034 C 
ENDBRANCH  24  34
BRANCH  27  37
ATOM     37  N   LIG    1      -20.935  87.487  16.769  0.00  0.00    -0.327 N 
ATOM     38  H   LIG    1      -20.397  88.292  17.061  0.00  0.00    +0.145 HD
ATOM     39  H   LIG    1      -20.504  86.582  16.895  0.00  0.00    +0.145 HD
ENDBRANCH  27  37
ENDBRANCH  22  31
ENDBRANCH   1  22
TORSDOF 7
ENDMDL
MODEL 6
REMARK VINA RESULT:      -6.2      2.805      8.847
REMARK  Name = pdb/CHEMBL3671404.pdb
REMARK                            x       y       z     vdW  Elec       q    Type
REMARK                         _______ _______ _______ _____ _____    ______ ____
ROOT
ATOM      1  C   LIG    1      -32.948  73.517  29.138  0.00  0.00    +0.042 A 
ATOM      2  C   LIG    1      -33.736  73.180  28.025  0.00  0.00    +0.038 A 
ATOM      3  C   LIG    1      -34.074  71.837  27.799  0.00  0.00    +0.052 A 
ATOM      4  C   LIG    1      -33.572  70.887  28.685  0.00  0.00    +0.134 A 
ATOM      5  N   LIG    1      -32.808  71.177  29.760  0.00  0.00    -0.261 NA
ATOM      6  C   LIG    1      -32.516  72.478  29.955  0.00  0.00    +0.122 A 
ENDROOT
BRANCH   3   7
ATOM      7  N   LIG    1      -34.902  71.503  26.708  0.00  0.00    -0.284 N 
ATOM      8  H   LIG    1      -34.438  71.259  25.832  0.00  0.00    +0.155 HD
ATOM      9  C   LIG    1      -36.291  71.516  26.712  0.00  0.00    +0.225 C 
ATOM     10  O   LIG    1      -37.001  71.805  27.675  0.00  0.00    -0.275 OA
BRANCH   9  11
ATOM     11  C   LIG    1      -36.964  71.208  25.393  0.00  0.00    +0.170 C 
BRANCH  11  12
ATOM     12  C   LIG    1      -37.865  72.308  24.986  0.00  0.00    +0.117 A 
ATOM     13  N   LIG    1      -37.578  73.628  25.224  0.00  0.00    -0.341 N 
ATOM     14  H   LIG    1      -36.750  73.989  25.679  0.00  0.00    +0.167 HD
ATOM     15  C   LIG    1      -38.620  74.377  24.748  0.00  0.00    +0.066 A 
ATOM     16  C   LIG    1      -38.829  75.753  24.690  0.00  0.00    +0.028 A 
ATOM     17  C   LIG    1      -40.035  76.177  24.122  0.00  0.00    +0.002 A 
ATOM     18  C   LIG    1      -40.980  75.261  23.651  0.00  0.00    +0.002 A 
ATOM     19  C   LIG    1      -40.746  73.882  23.728  0.00  0.00    +0.030 A 
ATOM     20  C   LIG    1      -39.539  73.443  24.285  0.00  0.00    +0.089 A 
ATOM     21  N   LIG    1      -39.071  72.167  24.475  0.00  0.00    -0.232 NA
ENDBRANCH  11  12
ENDBRANCH   9  11
ENDBRANCH   3   7
BRANCH   1  22
ATOM     22  C   LIG    1      -32.528  74.923  29.418  0.00  0.00    +0.197 C 
ATOM     23  O   LIG    1      -31.317  75.174  29.498  0.00  0.00    -0.287 OA
BRANCH  22  31
ATOM     24  N   LIG    1      -34.783  77.573  30.598  0.00  0.00    -0.326 N 
ATOM     25  C   LIG    1      -35.248  77.453  29.306  0.00  0.00    +0.147 A 
ATOM     26  N   LIG    1      -36.277  78.136  28.778  0.00  0.00    -0.197 NA
ATOM     27  C   LIG    1      -36.510  77.869  27.496  0.00  0.00    +0.214 A 
ATOM     28  N   LIG    1      -35.790  77.043  26.728  0.00  0.00    -0.222 NA
ATOM     29  C   LIG    1      -34.742  76.377  27.279  0.00  0.00    +0.126 A 
ATOM     30  C   LIG    1      -34.459  76.522  28.638  0.00  0.00    +0.048 A 
ATOM     31  C   LIG    1      -33.539  75.967  29.593  0.00  0.00    +0.051 A 
ATOM     32  C   LIG    1      -33.824  76.604  30.794  0.00  0.00    +0.100 A 
BRANCH  24  34
ATOM     33  C   LIG    1      -34.227  78.513  32.804  0.00  0.00    +0.034 C 
ATOM     34  C   LIG    1      -35.148  78.628  31.572  0.00  0.00    +0.039 C 
ATOM     35  C   LIG    1      -35.029  80.050  30.981  0.00  0.00    +0.034 C 
ATOM     36  C   LIG    1      -36.608  78.483  32.062  0.00  0.00    +0.034 C 
ENDBRANCH  24  34
BRANCH  27  37
ATOM     37  N   LIG    1      -37.627  78.454  26.925  0.00  0.00    -0.327 N 
ATOM     38  H   LIG    1      -37.513  78.500  25.921  0.00  0.00    +0.145 HD
ATOM     39  H   LIG    1      -37.817  79.325  27.401  0.00  0.00    +0.145 HD
ENDBRANCH  27  37
ENDBRANCH  22  31
ENDBRANCH   1  22
TORSDOF 7
ENDMDL
MODEL 7
REMARK VINA RESULT:      -6.1      1.678      3.252
REMARK  Name = pdb/CHEMBL3671404.pdb
REMARK                            x       y       z     vdW  Elec       q    Type
REMARK                         _______ _______ _______ _____ _____    ______ ____
ROOT
ATOM      1  C   LIG    1      -38.900  72.032  24.995  0.00  0.00    +0.042 A 
ATOM      2  C   LIG    1      -37.930  72.990  25.332  0.00  0.00    +0.038 A 
ATOM      3  C   LIG    1      -38.146  74.338  25.004  0.00  0.00    +0.052 A 
ATOM      4  C   LIG    1      -39.315  74.655  24.316  0.00  0.00    +0.134 A 
ATOM      5  N   LIG    1      -40.263  73.758  23.972  0.00  0.00    -0.261 NA
ATOM      6  C   LIG    1      -40.030  72.476  24.318  0.00  0.00    +0.122 A 
ENDROOT
BRANCH   3   7
ATOM      7  N   LIG    1      -37.194  75.306  25.382  0.00  0.00    -0.284 N 
ATOM      8  H   LIG    1      -36.546  75.625  24.661  0.00  0.00    +0.155 HD
ATOM      9  C   LIG    1      -37.038  75.832  26.658  0.00  0.00    +0.225 C 
ATOM     10  O   LIG    1      -37.719  75.542  27.641  0.00  0.00    -0.275 OA
BRANCH   9  11
ATOM     11  C   LIG    1      -35.885  76.794  26.845  0.00  0.00    +0.170 C 
BRANCH  11  12
ATOM     12  C   LIG    1      -34.755  76.141  27.541  0.00  0.00    +0.117 A 
ATOM     13  N   LIG    1      -34.642  74.779  27.653  0.00  0.00    -0.341 N 
ATOM     14  H   LIG    1      -35.285  74.091  27.284  0.00  0.00    +0.167 HD
ATOM     15  C   LIG    1      -33.507  74.510  28.369  0.00  0.00    +0.066 A 
ATOM     16  C   LIG    1      -32.897  73.311  28.735  0.00  0.00    +0.028 A 
ATOM     17  C   LIG    1      -31.719  73.413  29.481  0.00  0.00    +0.002 A 
ATOM     18  C   LIG    1      -31.193  74.656  29.845  0.00  0.00    +0.002 A 
ATOM     19  C   LIG    1      -31.830  75.846  29.469  0.00  0.00    +0.030 A 
ATOM     20  C   LIG    1      -33.006  75.759  28.713  0.00  0.00    +0.089 A 
ATOM     21  N   LIG    1      -33.813  76.756  28.225  0.00  0.00    -0.232 NA
ENDBRANCH  11  12
ENDBRANCH   9  11
ENDBRANCH   3   7
BRANCH   1  22
ATOM     22  C   LIG    1      -38.717  70.579  25.290  0.00  0.00    +0.197 C 
ATOM     23  O   LIG    1      -38.859  70.189  26.458  0.00  0.00    -0.287 OA
BRANCH  22  31
ATOM     24  N   LIG    1      -38.615  68.359  22.364  0.00  0.00    -0.326 N 
ATOM     25  C   LIG    1      -37.321  68.190  22.809  0.00  0.00    +0.147 A 
ATOM     26  N   LIG    1      -36.406  67.373  22.263  0.00  0.00    -0.197 NA
ATOM     27  C   LIG    1      -35.214  67.415  22.853  0.00  0.00    +0.214 A 
ATOM     28  N   LIG    1      -34.875  68.215  23.870  0.00  0.00    -0.222 NA
ATOM     29  C   LIG    1      -35.812  69.047  24.394  0.00  0.00    +0.126 A 
ATOM     30  C   LIG    1      -37.118  69.025  23.903  0.00  0.00    +0.048 A 
ATOM     31  C   LIG    1      -38.375  69.651  24.210  0.00  0.00    +0.051 A 
ATOM     32  C   LIG    1      -39.274  69.159  23.272  0.00  0.00    +0.100 A 
BRANCH  24  34
ATOM     33  C   LIG    1      -40.542  68.553  20.845  0.00  0.00    +0.034 C 
ATOM     34  C   LIG    1      -39.176  67.877  21.081  0.00  0.00    +0.039 C 
ATOM     35  C   LIG    1      -38.250  68.171  19.880  0.00  0.00    +0.034 C 
ATOM     36  C   LIG    1      -39.404  66.347  21.087  0.00  0.00    +0.034 C 
ENDBRANCH  24  34
BRANCH  27  37
ATOM     37  N   LIG    1      -34.262  66.513  22.410  0.00  0.00    -0.327 N 
ATOM     38  H   LIG    1      -33.824  66.063  23.202  0.00  0.00    +0.145 HD
ATOM     39  H   LIG    1      -33.649  66.981  21.757  0.00  0.00    +0.145 HD
ENDBRANCH  27  37
ENDBRANCH  22  31
ENDBRANCH   1  22
TORSDOF 7
ENDMDL
MODEL 8
REMARK VINA RESULT:      -6.1     10.498     15.822
REMARK  Name = pdb/CHEMBL3671404.pdb
REMARK                            x       y       z     vdW  Elec       q    Type
REMARK                         _______ _______ _______ _____ _____    ______ ____
ROOT
ATOM      1  C   LIG    1      -32.552  86.395  30.541  0.00  0.00    +0.042 A 
ATOM      2  C   LIG    1      -33.061  85.281  29.854  0.00  0.00    +0.038 A 
ATOM      3  C   LIG    1      -34.448  85.150  29.680  0.00  0.00    +0.052 A 
ATOM      4  C   LIG    1      -35.263  86.130  30.240  0.00  0.00    +0.134 A 
ATOM      5  N   LIG    1      -34.807  87.208  30.911  0.00  0.00    -0.261 NA
ATOM      6  C   LIG    1      -33.470  87.310  31.045  0.00  0.00    +0.122 A 
ENDROOT
BRANCH   3   7
ATOM      7  N   LIG    1      -34.956  84.056  28.950  0.00  0.00    -0.284 N 
ATOM      8  H   LIG    1      -35.413  84.264  28.062  0.00  0.00    +0.155 HD
ATOM      9  C   LIG    1      -34.922  82.728  29.355  0.00  0.00    +0.225 C 
ATOM     10  O   LIG    1      -34.428  82.310  30.402  0.00  0.00    -0.275 OA
BRANCH   9  11
ATOM     11  C   LIG    1      -35.613  81.736  28.445  0.00  0.00    +0.170 C 
BRANCH  11  12
ATOM     12  C   LIG    1      -34.736  80.580  28.156  0.00  0.00    +0.117 A 
ATOM     13  N   LIG    1      -34.543  79.555  29.047  0.00  0.00    -0.341 N 
ATOM     14  H   LIG    1      -34.964  79.469  29.961  0.00  0.00    +0.167 HD
ATOM     15  C   LIG    1      -33.665  78.669  28.483  0.00  0.00    +0.066 A 
ATOM     16  C   LIG    1      -33.161  77.448  28.924  0.00  0.00    +0.028 A 
ATOM     17  C   LIG    1      -32.265  76.798  28.070  0.00  0.00    +0.002 A 
ATOM     18  C   LIG    1      -31.891  77.356  26.844  0.00  0.00    +0.002 A 
ATOM     19  C   LIG    1      -32.409  78.590  26.428  0.00  0.00    +0.030 A 
ATOM     20  C   LIG    1      -33.315  79.248  27.269  0.00  0.00    +0.089 A 
ATOM     21  N   LIG    1      -33.959  80.448  27.101  0.00  0.00    -0.232 NA
ENDBRANCH  11  12
ENDBRANCH   9  11
ENDBRANCH   3   7
BRANCH   1  22
ATOM     22  C   LIG    1      -31.090  86.578  30.785  0.00  0.00    +0.197 C 
ATOM     23  O   LIG    1      -30.303  86.376  29.849  0.00  0.00    -0.287 OA
BRANCH  22  31
ATOM     24  N   LIG    1      -29.686  88.266  33.731  0.00  0.00    -0.326 N 
ATOM     25  C   LIG    1      -30.050  87.074  34.318  0.00  0.00    +0.147 A 
ATOM     26  N   LIG    1      -29.842  86.737  35.602  0.00  0.00    -0.197 NA
ATOM     27  C   LIG    1      -30.320  85.542  35.938  0.00  0.00    +0.214 A 
ATOM     28  N   LIG    1      -31.003  84.720  35.134  0.00  0.00    -0.222 NA
ATOM     29  C   LIG    1      -31.217  85.090  33.844  0.00  0.00    +0.126 A 
ATOM     30  C   LIG    1      -30.688  86.288  33.364  0.00  0.00    +0.048 A 
ATOM     31  C   LIG    1      -30.615  86.985  32.109  0.00  0.00    +0.051 A 
ATOM     32  C   LIG    1      -29.934  88.166  32.380  0.00  0.00    +0.100 A 
BRANCH  24  34
ATOM     33  C   LIG    1      -30.256  89.866  35.513  0.00  0.00    +0.034 C 
ATOM     34  C   LIG    1      -29.225  89.489  34.430  0.00  0.00    +0.039 C 
ATOM     35  C   LIG    1      -27.839  89.310  35.088  0.00  0.00    +0.034 C 
ATOM     36  C   LIG    1      -29.094  90.691  33.465  0.00  0.00    +0.034 C 
ENDBRANCH  24  34
BRANCH  27  37
ATOM     37  N   LIG    1      -30.037  85.090  37.216  0.00  0.00    -0.327 N 
ATOM     38  H   LIG    1      -30.883  84.752  37.654  0.00  0.00    +0.145 HD
ATOM     39  H   LIG    1      -29.525  85.807  37.710  0.00  0.00    +0.145 HD
ENDBRANCH  27  37
ENDBRANCH  22  31
ENDBRANCH   1  22
TORSDOF 7
ENDMDL
MODEL 9
REMARK VINA RESULT:      -6.0     11.346     15.639
REMARK  Name = pdb/CHEMBL3671404.pdb
REMARK                            x       y       z     vdW  Elec       q    Type
REMARK                         _______ _______ _______ _____ _____    ______ ____
ROOT
ATOM      1  C   LIG    1      -25.421  75.046  31.805  0.00  0.00    +0.042 A 
ATOM      2  C   LIG    1      -25.157  73.919  31.009  0.00  0.00    +0.038 A 
ATOM      3  C   LIG    1      -25.548  72.648  31.458  0.00  0.00    +0.052 A 
ATOM      4  C   LIG    1      -26.155  72.565  32.709  0.00  0.00    +0.134 A 
ATOM      5  N   LIG    1      -26.418  73.626  33.500  0.00  0.00    -0.261 NA
ATOM      6  C   LIG    1      -26.043  74.833  33.029  0.00  0.00    +0.122 A 
ENDROOT
BRANCH   3   7
ATOM      7  N   LIG    1      -25.325  71.522  30.640  0.00  0.00    -0.284 N 
ATOM      8  H   LIG    1      -25.808  71.500  29.741  0.00  0.00    +0.155 HD
ATOM      9  C   LIG    1      -24.536  70.427  30.967  0.00  0.00    +0.225 C 
ATOM     10  O   LIG    1      -23.904  70.287  32.014  0.00  0.00    -0.275 OA
BRANCH   9  11
ATOM     11  C   LIG    1      -24.519  69.295  29.964  0.00  0.00    +0.170 C 
BRANCH  11  12
ATOM     12  C   LIG    1      -24.598  69.810  28.580  0.00  0.00    +0.117 A 
ATOM     13  N   LIG    1      -25.624  69.492  27.728  0.00  0.00    -0.341 N 
ATOM     14  H   LIG    1      -26.417  68.901  27.938  0.00  0.00    +0.167 HD
ATOM     15  C   LIG    1      -25.381  70.109  26.530  0.00  0.00    +0.066 A 
ATOM     16  C   LIG    1      -26.111  70.162  25.343  0.00  0.00    +0.028 A 
ATOM     17  C   LIG    1      -25.549  70.904  24.299  0.00  0.00    +0.002 A 
ATOM     18  C   LIG    1      -24.316  71.546  24.443  0.00  0.00    +0.002 A 
ATOM     19  C   LIG    1      -23.601  71.471  25.645  0.00  0.00    +0.030 A 
ATOM     20  C   LIG    1      -24.156  70.740  26.703  0.00  0.00    +0.089 A 
ATOM     21  N   LIG    1      -23.667  70.512  27.966  0.00  0.00    -0.232 NA
ENDBRANCH  11  12
ENDBRANCH   9  11
ENDBRANCH   3   7
BRANCH   1  22
ATOM     22  C   LIG    1      -25.004  76.421  31.398  0.00  0.00    +0.197 C 
ATOM     23  O   LIG    1      -25.718  77.043  30.597  0.00  0.00    -0.287 OA
BRANCH  22  31
ATOM     24  N   LIG    1      -22.414  78.230  33.273  0.00  0.00    -0.326 N 
ATOM     25  C   LIG    1      -21.614  77.621  32.331  0.00  0.00    +0.147 A 
ATOM     26  N   LIG    1      -20.285  77.776  32.216  0.00  0.00    -0.197 NA
ATOM     27  C   LIG    1      -19.732  77.050  31.248  0.00  0.00    +0.214 A 
ATOM     28  N   LIG    1      -20.375  76.184  30.457  0.00  0.00    -0.222 NA
ATOM     29  C   LIG    1      -21.717  76.029  30.605  0.00  0.00    +0.126 A 
ATOM     30  C   LIG    1      -22.411  76.803  31.537  0.00  0.00    +0.048 A 
ATOM     31  C   LIG    1      -23.776  77.003  31.940  0.00  0.00    +0.051 A 
ATOM     32  C   LIG    1      -23.725  77.937  32.968  0.00  0.00    +0.100 A 
BRANCH  24  34
ATOM     33  C   LIG    1      -22.966  80.095  34.782  0.00  0.00    +0.034 C 
ATOM     34  C   LIG    1      -21.959  78.968  34.474  0.00  0.00    +0.039 C 
ATOM     35  C   LIG    1      -21.822  78.057  35.714  0.00  0.00    +0.034 C 
ATOM     36  C   LIG    1      -20.573  79.621  34.261  0.00  0.00    +0.034 C 
ENDBRANCH  24  34
BRANCH  27  37
ATOM     37  N   LIG    1      -18.384  77.252  31.003  0.00  0.00    -0.327 N 
ATOM     38  H   LIG    1      -17.834  76.715  31.659  0.00  0.00    +0.145 HD
ATOM     39  H   LIG    1      -18.205  78.246  30.966  0.00  0.00    +0.145 HD
ENDBRANCH  27  37
ENDBRANCH  22  31
ENDBRANCH   1  22
TORSDOF 7
ENDMDL
