MODEL 1
REMARK VINA RESULT:      -6.0      0.000      0.000
REMARK  Name = pdb/CHEMBL3671142.pdb
REMARK                            x       y       z     vdW  Elec       q    Type
REMARK                         _______ _______ _______ _____ _____    ______ ____
ROOT
ATOM      1  C   LIG    1      -23.828  79.652  35.238  0.00  0.00    +0.126 A 
ATOM      2  N   LIG    1      -24.052  78.871  34.198  0.00  0.00    -0.212 NA
ATOM      3  C   LIG    1      -25.262  78.205  34.127  0.00  0.00    +0.170 A 
ATOM      4  C   LIG    1      -25.833  77.364  33.188  0.00  0.00    +0.100 A 
ATOM      5  C   LIG    1      -27.080  77.001  33.748  0.00  0.00    +0.150 A 
ATOM      6  N   LIG    1      -27.307  77.561  34.931  0.00  0.00    -0.173 NA
ATOM      7  N   LIG    1      -26.213  78.320  35.148  0.00  0.00    -0.221 N 
ATOM      8  C   LIG    1      -26.005  79.164  36.222  0.00  0.00    +0.118 A 
ATOM      9  C   LIG    1      -24.875  79.867  36.311  0.00  0.00    +0.063 A 
ENDROOT
BRANCH   1  11
ATOM     10  C   LIG    1      -21.394  79.651  35.886  0.00  0.00    +0.108 C 
ATOM     11  N   LIG    1      -22.609  80.310  35.375  0.00  0.00    -0.308 N 
ATOM     12  C   LIG    1      -22.470  81.765  35.470  0.00  0.00    +0.107 C 
ATOM     13  C   LIG    1      -21.368  81.977  36.495  0.00  0.00    +0.021 C 
ATOM     14  C   LIG    1      -20.439  80.811  36.232  0.00  0.00    +0.029 C 
BRANCH  10  18
ATOM     15  F   LIG    1      -19.875  78.538  31.343  0.00  0.00    -0.205 F 
ATOM     16  C   LIG    1      -19.986  78.202  32.635  0.00  0.00    +0.124 A 
ATOM     17  C   LIG    1      -20.626  79.070  33.515  0.00  0.00    +0.046 A 
ATOM     18  C   LIG    1      -20.748  78.734  34.874  0.00  0.00    +0.011 A 
ATOM     19  C   LIG    1      -20.187  77.527  35.308  0.00  0.00    +0.129 A 
ATOM     20  F   LIG    1      -20.247  77.194  36.604  0.00  0.00    -0.205 F 
ATOM     21  C   LIG    1      -19.546  76.660  34.425  0.00  0.00    +0.041 A 
ATOM     22  C   LIG    1      -19.450  76.997  33.076  0.00  0.00    +0.041 A 
ENDBRANCH  10  18
ENDBRANCH   1  11
BRANCH   4  23
ATOM     23  C   LIG    1      -25.364  76.892  31.898  0.00  0.00    +0.249 C 
ATOM     24  N   LIG    1      -24.013  76.686  31.767  0.00  0.00    -0.308 N 
ATOM     25  H   LIG    1      -23.439  76.895  32.573  0.00  0.00    +0.149 HD
ATOM     26  O   LIG    1      -26.155  76.695  30.970  0.00  0.00    -0.270 OA
BRANCH  24  27
ATOM     27  C   LIG    1      -23.429  76.226  30.488  0.00  0.00    +0.073 C 
ATOM     28  C   LIG    1      -21.984  75.696  30.606  0.00  0.00    +0.022 C 
ATOM     29  C   LIG    1      -21.665  76.445  29.297  0.00  0.00    +0.004 C 
ATOM     30  C   LIG    1      -22.879  77.351  29.585  0.00  0.00    +0.022 C 
ENDBRANCH  24  27
ENDBRANCH   4  23
TORSDOF 4
ENDMDL
MODEL 2
REMARK VINA RESULT:      -5.9      2.524      5.452
REMARK  Name = pdb/CHEMBL3671142.pdb
REMARK                            x       y       z     vdW  Elec       q    Type
REMARK                         _______ _______ _______ _____ _____    ______ ____
ROOT
ATOM      1  C   LIG    1      -24.439  78.477  34.456  0.00  0.00    +0.126 A 
ATOM      2  N   LIG    1      -23.141  78.469  34.217  0.00  0.00    -0.212 NA
ATOM      3  C   LIG    1      -22.362  79.455  34.795  0.00  0.00    +0.170 A 
ATOM      4  C   LIG    1      -21.004  79.719  34.795  0.00  0.00    +0.100 A 
ATOM      5  C   LIG    1      -20.872  80.904  35.555  0.00  0.00    +0.150 A 
ATOM      6  N   LIG    1      -22.029  81.362  36.019  0.00  0.00    -0.173 NA
ATOM      7  N   LIG    1      -22.935  80.462  35.582  0.00  0.00    -0.221 N 
ATOM      8  C   LIG    1      -24.285  80.458  35.870  0.00  0.00    +0.118 A 
ATOM      9  C   LIG    1      -25.071  79.499  35.376  0.00  0.00    +0.063 A 
ENDROOT
BRANCH   1  11
ATOM     10  C   LIG    1      -25.584  77.528  32.423  0.00  0.00    +0.108 C 
ATOM     11  N   LIG    1      -25.270  77.531  33.862  0.00  0.00    -0.308 N 
ATOM     12  C   LIG    1      -26.258  76.735  34.594  0.00  0.00    +0.107 C 
ATOM     13  C   LIG    1      -27.453  76.657  33.658  0.00  0.00    +0.021 C 
ATOM     14  C   LIG    1      -26.803  76.594  32.292  0.00  0.00    +0.029 C 
BRANCH  10  18
ATOM     15  F   LIG    1      -22.131  74.221  31.274  0.00  0.00    -0.205 F 
ATOM     16  C   LIG    1      -22.759  75.372  31.000  0.00  0.00    +0.124 A 
ATOM     17  C   LIG    1      -23.775  75.814  31.844  0.00  0.00    +0.046 A 
ATOM     18  C   LIG    1      -24.447  77.017  31.570  0.00  0.00    +0.011 A 
ATOM     19  C   LIG    1      -24.082  77.729  30.421  0.00  0.00    +0.129 A 
ATOM     20  F   LIG    1      -24.730  78.858  30.106  0.00  0.00    -0.205 F 
ATOM     21  C   LIG    1      -23.066  77.284  29.578  0.00  0.00    +0.041 A 
ATOM     22  C   LIG    1      -22.394  76.099  29.873  0.00  0.00    +0.041 A 
ENDBRANCH  10  18
ENDBRANCH   1  11
BRANCH   4  23
ATOM     23  C   LIG    1      -19.882  79.021  34.194  0.00  0.00    +0.249 C 
ATOM     24  N   LIG    1      -20.124  78.351  33.021  0.00  0.00    -0.308 N 
ATOM     25  H   LIG    1      -21.072  78.376  32.669  0.00  0.00    +0.149 HD
ATOM     26  O   LIG    1      -18.768  79.034  34.729  0.00  0.00    -0.270 OA
BRANCH  24  27
ATOM     27  C   LIG    1      -19.055  77.590  32.339  0.00  0.00    +0.073 C 
ATOM     28  C   LIG    1      -19.250  77.452  30.813  0.00  0.00    +0.022 C 
ATOM     29  C   LIG    1      -18.791  75.987  30.945  0.00  0.00    +0.004 C 
ATOM     30  C   LIG    1      -19.189  76.055  32.433  0.00  0.00    +0.022 C 
ENDBRANCH  24  27
ENDBRANCH   4  23
TORSDOF 4
ENDMDL
MODEL 3
REMARK VINA RESULT:      -5.8      2.448      5.550
REMARK  Name = pdb/CHEMBL3671142.pdb
REMARK                            x       y       z     vdW  Elec       q    Type
REMARK                         _______ _______ _______ _____ _____    ______ ____
ROOT
ATOM      1  C   LIG    1      -25.026  76.689  34.012  0.00  0.00    +0.126 A 
ATOM      2  N   LIG    1      -23.994  77.511  34.084  0.00  0.00    -0.212 NA
ATOM      3  C   LIG    1      -24.145  78.690  34.791  0.00  0.00    +0.170 A 
ATOM      4  C   LIG    1      -23.288  79.731  35.099  0.00  0.00    +0.100 A 
ATOM      5  C   LIG    1      -24.088  80.646  35.824  0.00  0.00    +0.150 A 
ATOM      6  N   LIG    1      -25.341  80.236  35.985  0.00  0.00    -0.173 NA
ATOM      7  N   LIG    1      -25.368  79.029  35.383  0.00  0.00    -0.221 N 
ATOM      8  C   LIG    1      -26.441  78.160  35.345  0.00  0.00    +0.118 A 
ATOM      9  C   LIG    1      -26.331  76.987  34.718  0.00  0.00    +0.063 A 
ENDROOT
BRANCH   1  11
ATOM     10  C   LIG    1      -25.050  75.469  31.809  0.00  0.00    +0.108 C 
ATOM     11  N   LIG    1      -24.936  75.510  33.277  0.00  0.00    -0.308 N 
ATOM     12  C   LIG    1      -25.166  74.177  33.836  0.00  0.00    +0.107 C 
ATOM     13  C   LIG    1      -25.907  73.426  32.742  0.00  0.00    +0.021 C 
ATOM     14  C   LIG    1      -25.286  73.982  31.478  0.00  0.00    +0.029 C 
BRANCH  10  18
ATOM     15  F   LIG    1      -20.256  75.248  30.733  0.00  0.00    -0.205 F 
ATOM     16  C   LIG    1      -21.448  75.836  30.565  0.00  0.00    +0.124 A 
ATOM     17  C   LIG    1      -22.551  75.361  31.270  0.00  0.00    +0.046 A 
ATOM     18  C   LIG    1      -23.808  75.964  31.105  0.00  0.00    +0.011 A 
ATOM     19  C   LIG    1      -23.916  77.025  30.197  0.00  0.00    +0.129 A 
ATOM     20  F   LIG    1      -25.109  77.597  29.982  0.00  0.00    -0.205 F 
ATOM     21  C   LIG    1      -22.811  77.498  29.492  0.00  0.00    +0.041 A 
ATOM     22  C   LIG    1      -21.565  76.903  29.682  0.00  0.00    +0.041 A 
ENDBRANCH  10  18
ENDBRANCH   1  11
BRANCH   4  23
ATOM     23  C   LIG    1      -21.884  79.949  34.806  0.00  0.00    +0.249 C 
ATOM     24  N   LIG    1      -21.281  79.054  33.958  0.00  0.00    -0.308 N 
ATOM     25  H   LIG    1      -21.854  78.295  33.613  0.00  0.00    +0.149 HD
ATOM     26  O   LIG    1      -21.272  80.898  35.308  0.00  0.00    -0.270 OA
BRANCH  24  27
ATOM     27  C   LIG    1      -19.848  79.173  33.611  0.00  0.00    +0.073 C 
ATOM     28  C   LIG    1      -19.473  78.555  32.247  0.00  0.00    +0.022 C 
ATOM     29  C   LIG    1      -18.206  77.989  32.917  0.00  0.00    +0.004 C 
ATOM     30  C   LIG    1      -18.931  78.121  34.271  0.00  0.00    +0.022 C 
ENDBRANCH  24  27
ENDBRANCH   4  23
TORSDOF 4
ENDMDL
MODEL 4
REMARK VINA RESULT:      -5.7      2.553      5.353
REMARK  Name = pdb/CHEMBL3671142.pdb
REMARK                            x       y       z     vdW  Elec       q    Type
REMARK                         _______ _______ _______ _____ _____    ______ ____
ROOT
ATOM      1  C   LIG    1      -23.880  77.746  32.677  0.00  0.00    +0.126 A 
ATOM      2  N   LIG    1      -22.615  77.393  32.538  0.00  0.00    -0.212 NA
ATOM      3  C   LIG    1      -22.149  77.117  31.265  0.00  0.00    +0.170 A 
ATOM      4  C   LIG    1      -20.909  76.771  30.759  0.00  0.00    +0.100 A 
ATOM      5  C   LIG    1      -21.127  76.598  29.372  0.00  0.00    +0.150 A 
ATOM      6  N   LIG    1      -22.384  76.823  29.006  0.00  0.00    -0.173 NA
ATOM      7  N   LIG    1      -23.001  77.171  30.154  0.00  0.00    -0.221 N 
ATOM      8  C   LIG    1      -24.315  77.575  30.285  0.00  0.00    +0.118 A 
ATOM      9  C   LIG    1      -24.799  77.900  31.485  0.00  0.00    +0.063 A 
ENDROOT
BRANCH   1  11
ATOM     10  C   LIG    1      -23.581  78.029  35.162  0.00  0.00    +0.108 C 
ATOM     11  N   LIG    1      -24.406  77.991  33.943  0.00  0.00    -0.308 N 
ATOM     12  C   LIG    1      -25.814  77.800  34.295  0.00  0.00    +0.107 C 
ATOM     13  C   LIG    1      -25.781  77.227  35.702  0.00  0.00    +0.021 C 
ATOM     14  C   LIG    1      -24.593  77.932  36.321  0.00  0.00    +0.029 C 
BRANCH  10  18
ATOM     15  F   LIG    1      -23.142  82.896  35.721  0.00  0.00    -0.205 F 
ATOM     16  C   LIG    1      -22.563  81.695  35.584  0.00  0.00    +0.124 A 
ATOM     17  C   LIG    1      -23.360  80.564  35.432  0.00  0.00    +0.046 A 
ATOM     18  C   LIG    1      -22.770  79.298  35.289  0.00  0.00    +0.011 A 
ATOM     19  C   LIG    1      -21.373  79.213  35.334  0.00  0.00    +0.129 A 
ATOM     20  F   LIG    1      -20.777  78.016  35.244  0.00  0.00    -0.205 F 
ATOM     21  C   LIG    1      -20.577  80.347  35.487  0.00  0.00    +0.041 A 
ATOM     22  C   LIG    1      -21.176  81.599  35.607  0.00  0.00    +0.041 A 
ENDBRANCH  10  18
ENDBRANCH   1  11
BRANCH   4  23
ATOM     23  C   LIG    1      -19.618  76.595  31.397  0.00  0.00    +0.249 C 
ATOM     24  N   LIG    1      -19.316  77.446  32.431  0.00  0.00    -0.308 N 
ATOM     25  H   LIG    1      -20.007  78.147  32.662  0.00  0.00    +0.149 HD
ATOM     26  O   LIG    1      -18.836  75.719  31.014  0.00  0.00    -0.270 OA
BRANCH  24  27
ATOM     27  C   LIG    1      -18.017  77.365  33.135  0.00  0.00    +0.073 C 
ATOM     28  C   LIG    1      -18.043  76.503  34.415  0.00  0.00    +0.022 C 
ATOM     29  C   LIG    1      -17.175  77.582  35.090  0.00  0.00    +0.004 C 
ATOM     30  C   LIG    1      -17.688  78.579  34.031  0.00  0.00    +0.022 C 
ENDBRANCH  24  27
ENDBRANCH   4  23
TORSDOF 4
ENDMDL
MODEL 5
REMARK VINA RESULT:      -5.6     18.853     21.876
REMARK  Name = pdb/CHEMBL3671142.pdb
REMARK                            x       y       z     vdW  Elec       q    Type
REMARK                         _______ _______ _______ _____ _____    ______ ____
ROOT
ATOM      1  C   LIG    1      -23.155  86.089  12.231  0.00  0.00    +0.126 A 
ATOM      2  N   LIG    1      -23.618  84.916  12.623  0.00  0.00    -0.212 NA
ATOM      3  C   LIG    1      -24.357  84.170  11.723  0.00  0.00    +0.170 A 
ATOM      4  C   LIG    1      -24.942  82.917  11.778  0.00  0.00    +0.100 A 
ATOM      5  C   LIG    1      -25.581  82.768  10.525  0.00  0.00    +0.150 A 
ATOM      6  N   LIG    1      -25.418  83.815   9.724  0.00  0.00    -0.173 NA
ATOM      7  N   LIG    1      -24.645  84.657  10.442  0.00  0.00    -0.221 N 
ATOM      8  C   LIG    1      -24.135  85.865  10.009  0.00  0.00    +0.118 A 
ATOM      9  C   LIG    1      -23.374  86.600  10.823  0.00  0.00    +0.063 A 
ENDROOT
BRANCH   1  11
ATOM     10  C   LIG    1      -21.641  86.355  14.226  0.00  0.00    +0.108 C 
ATOM     11  N   LIG    1      -22.442  86.895  13.114  0.00  0.00    -0.308 N 
ATOM     12  C   LIG    1      -22.731  88.312  13.345  0.00  0.00    +0.107 C 
ATOM     13  C   LIG    1      -22.524  88.505  14.837  0.00  0.00    +0.021 C 
ATOM     14  C   LIG    1      -21.374  87.568  15.139  0.00  0.00    +0.029 C 
BRANCH  10  18
ATOM     15  F   LIG    1      -16.994  86.674  12.650  0.00  0.00    -0.205 F 
ATOM     16  C   LIG    1      -18.037  85.916  13.015  0.00  0.00    +0.124 A 
ATOM     17  C   LIG    1      -19.231  86.528  13.386  0.00  0.00    +0.046 A 
ATOM     18  C   LIG    1      -20.333  85.749  13.774  0.00  0.00    +0.011 A 
ATOM     19  C   LIG    1      -20.180  84.358  13.802  0.00  0.00    +0.129 A 
ATOM     20  F   LIG    1      -21.196  83.585  14.208  0.00  0.00    -0.205 F 
ATOM     21  C   LIG    1      -18.983  83.747  13.432  0.00  0.00    +0.041 A 
ATOM     22  C   LIG    1      -17.904  84.532  13.029  0.00  0.00    +0.041 A 
ENDBRANCH  10  18
ENDBRANCH   1  11
BRANCH   4  23
ATOM     23  C   LIG    1      -24.965  81.904  12.817  0.00  0.00    +0.249 C 
ATOM     24  N   LIG    1      -24.128  82.095  13.888  0.00  0.00    -0.308 N 
ATOM     25  H   LIG    1      -23.541  82.919  13.868  0.00  0.00    +0.149 HD
ATOM     26  O   LIG    1      -25.706  80.919  12.725  0.00  0.00    -0.270 OA
BRANCH  24  27
ATOM     27  C   LIG    1      -24.059  81.112  14.991  0.00  0.00    +0.073 C 
ATOM     28  C   LIG    1      -23.049  81.475  16.101  0.00  0.00    +0.022 C 
ATOM     29  C   LIG    1      -22.633  79.991  16.126  0.00  0.00    +0.004 C 
ATOM     30  C   LIG    1      -23.196  79.866  14.696  0.00  0.00    +0.022 C 
ENDBRANCH  24  27
ENDBRANCH   4  23
TORSDOF 4
ENDMDL
MODEL 6
REMARK VINA RESULT:      -5.6      2.052      5.413
REMARK  Name = pdb/CHEMBL3671142.pdb
REMARK                            x       y       z     vdW  Elec       q    Type
REMARK                         _______ _______ _______ _____ _____    ______ ____
ROOT
ATOM      1  C   LIG    1      -20.550  77.178  31.208  0.00  0.00    +0.126 A 
ATOM      2  N   LIG    1      -21.523  77.678  31.947  0.00  0.00    -0.212 NA
ATOM      3  C   LIG    1      -22.820  77.579  31.477  0.00  0.00    +0.170 A 
ATOM      4  C   LIG    1      -24.051  77.943  31.993  0.00  0.00    +0.100 A 
ATOM      5  C   LIG    1      -24.978  77.589  30.985  0.00  0.00    +0.150 A 
ATOM      6  N   LIG    1      -24.410  77.034  29.920  0.00  0.00    -0.173 NA
ATOM      7  N   LIG    1      -23.097  76.998  30.233  0.00  0.00    -0.221 N 
ATOM      8  C   LIG    1      -22.092  76.438  29.470  0.00  0.00    +0.118 A 
ATOM      9  C   LIG    1      -20.830  76.464  29.903  0.00  0.00    +0.063 A 
ENDROOT
BRANCH   1  11
ATOM     10  C   LIG    1      -18.770  78.300  32.591  0.00  0.00    +0.108 C 
ATOM     11  N   LIG    1      -19.225  77.292  31.618  0.00  0.00    -0.308 N 
ATOM     12  C   LIG    1      -18.085  76.777  30.857  0.00  0.00    +0.107 C 
ATOM     13  C   LIG    1      -17.004  77.832  31.028  0.00  0.00    +0.021 C 
ATOM     14  C   LIG    1      -17.235  78.320  32.443  0.00  0.00    +0.029 C 
BRANCH  10  18
ATOM     15  F   LIG    1      -19.027  75.243  36.434  0.00  0.00    -0.205 F 
ATOM     16  C   LIG    1      -19.253  76.455  35.909  0.00  0.00    +0.124 A 
ATOM     17  C   LIG    1      -18.920  76.698  34.580  0.00  0.00    +0.046 A 
ATOM     18  C   LIG    1      -19.147  77.963  34.014  0.00  0.00    +0.011 A 
ATOM     19  C   LIG    1      -19.685  78.964  34.833  0.00  0.00    +0.129 A 
ATOM     20  F   LIG    1      -19.875  80.195  34.340  0.00  0.00    -0.205 F 
ATOM     21  C   LIG    1      -20.016  78.719  36.164  0.00  0.00    +0.041 A 
ATOM     22  C   LIG    1      -19.805  77.452  36.706  0.00  0.00    +0.041 A 
ENDBRANCH  10  18
ENDBRANCH   1  11
BRANCH   4  23
ATOM     23  C   LIG    1      -24.430  78.552  33.254  0.00  0.00    +0.249 C 
ATOM     24  N   LIG    1      -23.546  79.449  33.801  0.00  0.00    -0.308 N 
ATOM     25  H   LIG    1      -22.685  79.607  33.295  0.00  0.00    +0.149 HD
ATOM     26  O   LIG    1      -25.500  78.263  33.801  0.00  0.00    -0.270 OA
BRANCH  24  27
ATOM     27  C   LIG    1      -23.827  80.109  35.095  0.00  0.00    +0.073 C 
ATOM     28  C   LIG    1      -22.791  81.181  35.496  0.00  0.00    +0.022 C 
ATOM     29  C   LIG    1      -22.864  80.630  36.934  0.00  0.00    +0.004 C 
ATOM     30  C   LIG    1      -23.391  79.308  36.340  0.00  0.00    +0.022 C 
ENDBRANCH  24  27
ENDBRANCH   4  23
TORSDOF 4
ENDMDL
MODEL 7
REMARK VINA RESULT:      -5.5      2.769      5.325
REMARK  Name = pdb/CHEMBL3671142.pdb
REMARK                            x       y       z     vdW  Elec       q    Type
REMARK                         _______ _______ _______ _____ _____    ______ ____
ROOT
ATOM      1  C   LIG    1      -19.734  78.835  34.012  0.00  0.00    +0.126 A 
ATOM      2  N   LIG    1      -20.391  78.398  32.953  0.00  0.00    -0.212 NA
ATOM      3  C   LIG    1      -19.673  77.788  31.942  0.00  0.00    +0.170 A 
ATOM      4  C   LIG    1      -20.029  77.191  30.746  0.00  0.00    +0.100 A 
ATOM      5  C   LIG    1      -18.802  76.795  30.165  0.00  0.00    +0.150 A 
ATOM      6  N   LIG    1      -17.747  77.092  30.916  0.00  0.00    -0.173 NA
ATOM      7  N   LIG    1      -18.279  77.668  32.014  0.00  0.00    -0.221 N 
ATOM      8  C   LIG    1      -17.586  78.087  33.133  0.00  0.00    +0.118 A 
ATOM      9  C   LIG    1      -18.240  78.638  34.157  0.00  0.00    +0.063 A 
ENDROOT
BRANCH   1  11
ATOM     10  C   LIG    1      -21.838  79.838  34.965  0.00  0.00    +0.108 C 
ATOM     11  N   LIG    1      -20.408  79.494  35.036  0.00  0.00    -0.308 N 
ATOM     12  C   LIG    1      -19.747  80.302  36.064  0.00  0.00    +0.107 C 
ATOM     13  C   LIG    1      -20.676  81.486  36.274  0.00  0.00    +0.021 C 
ATOM     14  C   LIG    1      -22.047  80.870  36.091  0.00  0.00    +0.029 C 
BRANCH  10  18
ATOM     15  F   LIG    1      -23.204  75.759  37.348  0.00  0.00    -0.205 F 
ATOM     16  C   LIG    1      -23.421  76.650  36.370  0.00  0.00    +0.124 A 
ATOM     17  C   LIG    1      -22.531  77.705  36.196  0.00  0.00    +0.046 A 
ATOM     18  C   LIG    1      -22.745  78.649  35.179  0.00  0.00    +0.011 A 
ATOM     19  C   LIG    1      -23.885  78.508  34.378  0.00  0.00    +0.129 A 
ATOM     20  F   LIG    1      -24.144  79.414  33.425  0.00  0.00    -0.205 F 
ATOM     21  C   LIG    1      -24.776  77.451  34.555  0.00  0.00    +0.041 A 
ATOM     22  C   LIG    1      -24.539  76.510  35.556  0.00  0.00    +0.041 A 
ENDBRANCH  10  18
ENDBRANCH   1  11
BRANCH   4  23
ATOM     23  C   LIG    1      -21.321  76.966  30.124  0.00  0.00    +0.249 C 
ATOM     24  N   LIG    1      -22.431  77.211  30.893  0.00  0.00    -0.308 N 
ATOM     25  H   LIG    1      -22.269  77.514  31.845  0.00  0.00    +0.149 HD
ATOM     26  O   LIG    1      -21.402  76.566  28.957  0.00  0.00    -0.270 OA
BRANCH  24  27
ATOM     27  C   LIG    1      -23.795  76.993  30.362  0.00  0.00    +0.073 C 
ATOM     28  C   LIG    1      -24.776  78.152  30.641  0.00  0.00    +0.022 C 
ATOM     29  C   LIG    1      -25.845  77.091  30.967  0.00  0.00    +0.004 C 
ATOM     30  C   LIG    1      -24.697  76.098  31.239  0.00  0.00    +0.022 C 
ENDBRANCH  24  27
ENDBRANCH   4  23
TORSDOF 4
ENDMDL
MODEL 8
REMARK VINA RESULT:      -5.4      2.213      5.644
REMARK  Name = pdb/CHEMBL3671142.pdb
REMARK                            x       y       z     vdW  Elec       q    Type
REMARK                         _______ _______ _______ _____ _____    ______ ____
ROOT
ATOM      1  C   LIG    1      -22.902  77.489  32.412  0.00  0.00    +0.126 A 
ATOM      2  N   LIG    1      -22.553  78.460  33.237  0.00  0.00    -0.212 NA
ATOM      3  C   LIG    1      -23.506  78.951  34.109  0.00  0.00    +0.170 A 
ATOM      4  C   LIG    1      -23.480  79.906  35.110  0.00  0.00    +0.100 A 
ATOM      5  C   LIG    1      -24.808  79.950  35.595  0.00  0.00    +0.150 A 
ATOM      6  N   LIG    1      -25.620  79.097  34.981  0.00  0.00    -0.173 NA
ATOM      7  N   LIG    1      -24.820  78.465  34.096  0.00  0.00    -0.221 N 
ATOM      8  C   LIG    1      -25.185  77.424  33.265  0.00  0.00    +0.118 A 
ATOM      9  C   LIG    1      -24.288  76.882  32.439  0.00  0.00    +0.063 A 
ENDROOT
BRANCH   1  11
ATOM     10  C   LIG    1      -20.690  77.630  31.215  0.00  0.00    +0.108 C 
ATOM     11  N   LIG    1      -21.989  76.991  31.486  0.00  0.00    -0.308 N 
ATOM     12  C   LIG    1      -22.346  76.093  30.386  0.00  0.00    +0.107 C 
ATOM     13  C   LIG    1      -21.497  76.564  29.217  0.00  0.00    +0.021 C 
ATOM     14  C   LIG    1      -20.213  76.998  29.892  0.00  0.00    +0.029 C 
BRANCH  10  18
ATOM     15  F   LIG    1      -17.863  74.698  33.970  0.00  0.00    -0.205 F 
ATOM     16  C   LIG    1      -18.267  75.933  33.643  0.00  0.00    +0.124 A 
ATOM     17  C   LIG    1      -19.238  76.097  32.659  0.00  0.00    +0.046 A 
ATOM     18  C   LIG    1      -19.671  77.385  32.302  0.00  0.00    +0.011 A 
ATOM     19  C   LIG    1      -19.078  78.481  32.941  0.00  0.00    +0.129 A 
ATOM     20  F   LIG    1      -19.435  79.725  32.596  0.00  0.00    -0.205 F 
ATOM     21  C   LIG    1      -18.105  78.314  33.925  0.00  0.00    +0.041 A 
ATOM     22  C   LIG    1      -17.700  77.029  34.284  0.00  0.00    +0.041 A 
ENDBRANCH  10  18
ENDBRANCH   1  11
BRANCH   4  23
ATOM     23  C   LIG    1      -22.407  80.734  35.630  0.00  0.00    +0.249 C 
ATOM     24  N   LIG    1      -21.279  80.085  36.067  0.00  0.00    -0.308 N 
ATOM     25  H   LIG    1      -21.284  79.075  36.013  0.00  0.00    +0.149 HD
ATOM     26  O   LIG    1      -22.521  81.964  35.675  0.00  0.00    -0.270 OA
BRANCH  24  27
ATOM     27  C   LIG    1      -20.137  80.834  36.635  0.00  0.00    +0.073 C 
ATOM     28  C   LIG    1      -18.964  79.943  37.099  0.00  0.00    +0.022 C 
ATOM     29  C   LIG    1      -18.847  80.846  38.343  0.00  0.00    +0.004 C 
ATOM     30  C   LIG    1      -20.312  81.267  38.106  0.00  0.00    +0.022 C 
ENDBRANCH  24  27
ENDBRANCH   4  23
TORSDOF 4
ENDMDL
MODEL 9
REMARK VINA RESULT:      -5.2     18.684     22.111
REMARK  Name = pdb/CHEMBL3671142.pdb
REMARK                            x       y       z     vdW  Elec       q    Type
REMARK                         _______ _______ _______ _____ _____    ______ ____
ROOT
ATOM      1  C   LIG    1      -20.708  82.328  11.788  0.00  0.00    +0.126 A 
ATOM      2  N   LIG    1      -20.370  83.483  12.332  0.00  0.00    -0.212 NA
ATOM      3  C   LIG    1      -19.063  83.914  12.195  0.00  0.00    +0.170 A 
ATOM      4  C   LIG    1      -18.391  85.058  12.587  0.00  0.00    +0.100 A 
ATOM      5  C   LIG    1      -17.058  84.850  12.162  0.00  0.00    +0.150 A 
ATOM      6  N   LIG    1      -16.880  83.690  11.540  0.00  0.00    -0.173 NA
ATOM      7  N   LIG    1      -18.109  83.132  11.532  0.00  0.00    -0.221 N 
ATOM      8  C   LIG    1      -18.460  81.942  10.927  0.00  0.00    +0.118 A 
ATOM      9  C   LIG    1      -19.720  81.507  10.988  0.00  0.00    +0.063 A 
ENDROOT
BRANCH   1  11
ATOM     10  C   LIG    1      -22.337  80.728  12.852  0.00  0.00    +0.108 C 
ATOM     11  N   LIG    1      -22.000  81.832  11.937  0.00  0.00    -0.308 N 
ATOM     12  C   LIG    1      -23.061  82.001  10.941  0.00  0.00    +0.107 C 
ATOM     13  C   LIG    1      -23.807  80.677  10.951  0.00  0.00    +0.021 C 
ATOM     14  C   LIG    1      -23.739  80.267  12.407  0.00  0.00    +0.029 C 
BRANCH  10  18
ATOM     15  F   LIG    1      -23.039  84.033  16.426  0.00  0.00    -0.205 F 
ATOM     16  C   LIG    1      -22.734  82.781  16.058  0.00  0.00    +0.124 A 
ATOM     17  C   LIG    1      -22.683  82.458  14.705  0.00  0.00    +0.046 A 
ATOM     18  C   LIG    1      -22.368  81.151  14.302  0.00  0.00    +0.011 A 
ATOM     19  C   LIG    1      -22.140  80.191  15.296  0.00  0.00    +0.129 A 
ATOM     20  F   LIG    1      -21.879  78.924  14.950  0.00  0.00    -0.205 F 
ATOM     21  C   LIG    1      -22.193  80.517  16.651  0.00  0.00    +0.041 A 
ATOM     22  C   LIG    1      -22.486  81.824  17.035  0.00  0.00    +0.041 A 
ENDBRANCH  10  18
ENDBRANCH   1  11
BRANCH   4  23
ATOM     23  C   LIG    1      -18.837  86.254  13.277  0.00  0.00    +0.249 C 
ATOM     24  N   LIG    1      -20.034  86.176  13.945  0.00  0.00    -0.308 N 
ATOM     25  H   LIG    1      -20.528  85.295  13.893  0.00  0.00    +0.149 HD
ATOM     26  O   LIG    1      -18.162  87.289  13.251  0.00  0.00    -0.270 OA
BRANCH  24  27
ATOM     27  C   LIG    1      -20.588  87.345  14.662  0.00  0.00    +0.073 C 
ATOM     28  C   LIG    1      -21.916  87.064  15.398  0.00  0.00    +0.022 C 
ATOM     29  C   LIG    1      -22.417  88.432  14.895  0.00  0.00    +0.004 C 
ATOM     30  C   LIG    1      -21.362  88.343  13.774  0.00  0.00    +0.022 C 
ENDBRANCH  24  27
ENDBRANCH   4  23
TORSDOF 4
ENDMDL
