MODEL 1
REMARK VINA RESULT:      -7.0      0.000      0.000
REMARK  Name = pdb/CHEMBL3967617.pdb
REMARK                            x       y       z     vdW  Elec       q    Type
REMARK                         _______ _______ _______ _____ _____    ______ ____
ROOT
ATOM      1  C   LIG    1      -31.789  74.362  29.982  0.00  0.00    +0.118 A 
ATOM      2  N   LIG    1      -31.909  75.692  29.852  0.00  0.00    -0.165 NA
ATOM      3  N   LIG    1      -32.787  75.869  28.817  0.00  0.00    -0.218 N 
ATOM      4  C   LIG    1      -33.364  74.645  28.433  0.00  0.00    +0.129 A 
ATOM      5  C   LIG    1      -32.690  73.679  29.149  0.00  0.00    +0.073 A 
ENDROOT
BRANCH   3   6
ATOM      6  C   LIG    1      -33.034  77.198  28.346  0.00  0.00    +0.067 A 
ATOM      7  C   LIG    1      -34.007  78.022  28.918  0.00  0.00    +0.028 A 
ATOM      8  C   LIG    1      -34.215  79.323  28.440  0.00  0.00    +0.002 A 
ATOM      9  C   LIG    1      -33.472  79.804  27.367  0.00  0.00    +0.000 A 
ATOM     10  C   LIG    1      -32.522  78.984  26.765  0.00  0.00    +0.002 A 
ATOM     11  C   LIG    1      -32.307  77.686  27.244  0.00  0.00    +0.028 A 
ENDBRANCH   3   6
BRANCH   4  12
ATOM     12  N   LIG    1      -34.426  74.396  27.553  0.00  0.00    -0.266 N 
ATOM     13  H   LIG    1      -34.198  74.170  26.592  0.00  0.00    +0.157 HD
ATOM     14  C   LIG    1      -35.831  74.543  27.915  0.00  0.00    +0.251 C 
ATOM     15  O   LIG    1      -36.148  74.936  29.008  0.00  0.00    -0.270 OA
BRANCH  14  16
ATOM     16  C   LIG    1      -36.863  74.256  26.875  0.00  0.00    +0.056 A 
ATOM     17  C   LIG    1      -37.204  72.978  26.405  0.00  0.00    +0.056 A 
ATOM     18 CL   LIG    1      -36.490  71.504  26.923  0.00  0.00    -0.083 Cl
ATOM     19  C   LIG    1      -38.193  72.830  25.441  0.00  0.00    +0.059 A 
ATOM     20  C   LIG    1      -38.860  73.937  24.933  0.00  0.00    +0.134 A 
ATOM     21  F   LIG    1      -39.746  73.697  23.960  0.00  0.00    -0.205 F 
ATOM     22  C   LIG    1      -38.601  75.238  25.383  0.00  0.00    +0.039 A 
ATOM     23  C   LIG    1      -37.575  75.368  26.347  0.00  0.00    +0.027 A 
BRANCH  22  24
ATOM     24  C   LIG    1      -39.359  76.409  24.877  0.00  0.00    +0.109 A 
ATOM     25  C   LIG    1      -38.836  77.348  23.978  0.00  0.00    +0.149 A 
ATOM     26  F   LIG    1      -37.606  77.228  23.458  0.00  0.00    -0.203 F 
ATOM     27  C   LIG    1      -39.608  78.423  23.556  0.00  0.00    +0.042 A 
ATOM     28  C   LIG    1      -40.910  78.540  24.016  0.00  0.00    +0.023 A 
ATOM     29  C   LIG    1      -41.379  77.570  24.887  0.00  0.00    +0.111 A 
ATOM     30  N   LIG    1      -40.641  76.515  25.325  0.00  0.00    -0.252 NA
ENDBRANCH  22  24
ENDBRANCH  14  16
ENDBRANCH   4  12
BRANCH   1  31
ATOM     31  C   LIG    1      -30.872  73.784  30.955  0.00  0.00    +0.229 C 
BRANCH  31  32
ATOM     32  O   LIG    1      -30.347  72.594  30.585  0.00  0.00    -0.365 OA
ATOM     33  H   LIG    1      -30.211  72.053  31.387  0.00  0.00    +0.212 HD
ENDBRANCH  31  32
BRANCH  31  34
ATOM     34  N   LIG    1      -30.602  74.386  32.058  0.00  0.00    -0.192 NA
BRANCH  34  35
ATOM     35  C   LIG    1      -29.185  74.399  32.421  0.00  0.00    +0.162 C 
BRANCH  35  36
ATOM     36  C   LIG    1      -28.601  75.691  32.000  0.00  0.00    +0.071 A 
ATOM     37  N   LIG    1      -29.357  76.784  31.680  0.00  0.00    -0.260 N 
ATOM     38  H   LIG    1      -30.364  76.879  31.649  0.00  0.00    +0.190 HD
ATOM     39  N   LIG    1      -28.592  77.840  31.363  0.00  0.00    -0.068 NA
ATOM     40  N   LIG    1      -27.327  77.454  31.451  0.00  0.00    -0.138 NA
ATOM     41  C   LIG    1      -27.311  76.142  31.835  0.00  0.00    +0.160 A 
ENDBRANCH  35  36
ENDBRANCH  34  35
ENDBRANCH  31  34
ENDBRANCH   1  31
TORSDOF 9
ENDMDL
MODEL 2
REMARK VINA RESULT:      -6.8      5.867      8.877
REMARK  Name = pdb/CHEMBL3967617.pdb
REMARK                            x       y       z     vdW  Elec       q    Type
REMARK                         _______ _______ _______ _____ _____    ______ ____
ROOT
ATOM      1  C   LIG    1      -35.968  71.906  26.979  0.00  0.00    +0.118 A 
ATOM      2  N   LIG    1      -37.042  72.684  26.775  0.00  0.00    -0.165 NA
ATOM      3  N   LIG    1      -37.449  72.397  25.500  0.00  0.00    -0.218 N 
ATOM      4  C   LIG    1      -36.745  71.295  24.983  0.00  0.00    +0.129 A 
ATOM      5  C   LIG    1      -35.767  71.014  25.914  0.00  0.00    +0.073 A 
ENDROOT
BRANCH   3   6
ATOM      6  C   LIG    1      -38.517  73.163  24.932  0.00  0.00    +0.067 A 
ATOM      7  C   LIG    1      -38.536  74.560  24.973  0.00  0.00    +0.028 A 
ATOM      8  C   LIG    1      -39.591  75.278  24.396  0.00  0.00    +0.002 A 
ATOM      9  C   LIG    1      -40.653  74.609  23.796  0.00  0.00    +0.000 A 
ATOM     10  C   LIG    1      -40.665  73.217  23.776  0.00  0.00    +0.002 A 
ATOM     11  C   LIG    1      -39.609  72.496  24.346  0.00  0.00    +0.028 A 
ENDBRANCH   3   6
BRANCH   4  12
ATOM     12  N   LIG    1      -36.964  70.567  23.807  0.00  0.00    -0.266 N 
ATOM     13  H   LIG    1      -36.589  70.942  22.943  0.00  0.00    +0.157 HD
ATOM     14  C   LIG    1      -37.784  69.363  23.739  0.00  0.00    +0.251 C 
ATOM     15  O   LIG    1      -38.358  68.952  24.715  0.00  0.00    -0.270 OA
BRANCH  14  16
ATOM     16  C   LIG    1      -37.946  68.691  22.416  0.00  0.00    +0.056 A 
ATOM     17  C   LIG    1      -39.074  68.797  21.587  0.00  0.00    +0.056 A 
ATOM     18 CL   LIG    1      -40.488  69.706  21.942  0.00  0.00    -0.083 Cl
ATOM     19  C   LIG    1      -39.108  68.135  20.367  0.00  0.00    +0.059 A 
ATOM     20  C   LIG    1      -38.032  67.366  19.946  0.00  0.00    +0.134 A 
ATOM     21  F   LIG    1      -38.189  66.714  18.789  0.00  0.00    -0.205 F 
ATOM     22  C   LIG    1      -36.858  67.246  20.701  0.00  0.00    +0.039 A 
ATOM     23  C   LIG    1      -36.853  67.908  21.950  0.00  0.00    +0.027 A 
BRANCH  22  24
ATOM     24  C   LIG    1      -35.689  66.469  20.218  0.00  0.00    +0.109 A 
ATOM     25  C   LIG    1      -35.005  66.748  19.028  0.00  0.00    +0.149 A 
ATOM     26  F   LIG    1      -35.327  67.791  18.249  0.00  0.00    -0.203 F 
ATOM     27  C   LIG    1      -33.922  65.968  18.640  0.00  0.00    +0.042 A 
ATOM     28  C   LIG    1      -33.514  64.926  19.457  0.00  0.00    +0.023 A 
ATOM     29  C   LIG    1      -34.218  64.710  20.631  0.00  0.00    +0.111 A 
ATOM     30  N   LIG    1      -35.287  65.451  21.029  0.00  0.00    -0.252 NA
ENDBRANCH  22  24
ENDBRANCH  14  16
ENDBRANCH   4  12
BRANCH   1  31
ATOM     31  C   LIG    1      -35.211  71.986  28.221  0.00  0.00    +0.229 C 
BRANCH  31  32
ATOM     32  O   LIG    1      -34.792  70.790  28.694  0.00  0.00    -0.365 OA
ATOM     33  H   LIG    1      -35.281  70.084  28.226  0.00  0.00    +0.212 HD
ENDBRANCH  31  32
BRANCH  31  34
ATOM     34  N   LIG    1      -34.973  73.115  28.787  0.00  0.00    -0.192 NA
BRANCH  34  35
ATOM     35  C   LIG    1      -33.768  73.797  28.317  0.00  0.00    +0.162 C 
BRANCH  35  36
ATOM     36  C   LIG    1      -34.157  75.104  27.745  0.00  0.00    +0.071 A 
ATOM     37  N   LIG    1      -35.404  75.361  27.249  0.00  0.00    -0.260 N 
ATOM     38  H   LIG    1      -36.201  74.742  27.166  0.00  0.00    +0.190 HD
ATOM     39  N   LIG    1      -35.515  76.628  26.819  0.00  0.00    -0.068 NA
ATOM     40  N   LIG    1      -34.342  77.215  27.008  0.00  0.00    -0.138 NA
ATOM     41  C   LIG    1      -33.497  76.300  27.569  0.00  0.00    +0.160 A 
ENDBRANCH  35  36
ENDBRANCH  34  35
ENDBRANCH  31  34
ENDBRANCH   1  31
TORSDOF 9
ENDMDL
MODEL 3
REMARK VINA RESULT:      -6.6      4.270      7.025
REMARK  Name = pdb/CHEMBL3967617.pdb
REMARK                            x       y       z     vdW  Elec       q    Type
REMARK                         _______ _______ _______ _____ _____    ______ ____
ROOT
ATOM      1  C   LIG    1      -37.110  79.296  27.986  0.00  0.00    +0.118 A 
ATOM      2  N   LIG    1      -38.069  79.990  27.354  0.00  0.00    -0.165 NA
ATOM      3  N   LIG    1      -38.681  79.081  26.534  0.00  0.00    -0.218 N 
ATOM      4  C   LIG    1      -38.229  77.777  26.802  0.00  0.00    +0.129 A 
ATOM      5  C   LIG    1      -37.192  77.924  27.699  0.00  0.00    +0.073 A 
ENDROOT
BRANCH   3   6
ATOM      6  C   LIG    1      -39.684  79.545  25.623  0.00  0.00    +0.067 A 
ATOM      7  C   LIG    1      -39.529  80.716  24.876  0.00  0.00    +0.028 A 
ATOM      8  C   LIG    1      -40.526  81.134  23.986  0.00  0.00    +0.002 A 
ATOM      9  C   LIG    1      -41.701  80.402  23.852  0.00  0.00    +0.000 A 
ATOM     10  C   LIG    1      -41.885  79.251  24.612  0.00  0.00    +0.002 A 
ATOM     11  C   LIG    1      -40.888  78.826  25.499  0.00  0.00    +0.028 A 
ENDBRANCH   3   6
BRANCH   4  12
ATOM     12  N   LIG    1      -38.712  76.549  26.330  0.00  0.00    -0.266 N 
ATOM     13  H   LIG    1      -39.386  76.056  26.905  0.00  0.00    +0.157 HD
ATOM     14  C   LIG    1      -38.226  75.897  25.120  0.00  0.00    +0.251 C 
ATOM     15  O   LIG    1      -37.333  76.382  24.474  0.00  0.00    -0.270 OA
BRANCH  14  16
ATOM     16  C   LIG    1      -38.820  74.581  24.738  0.00  0.00    +0.056 A 
ATOM     17  C   LIG    1      -40.029  74.410  24.046  0.00  0.00    +0.056 A 
ATOM     18 CL   LIG    1      -41.064  75.677  23.523  0.00  0.00    -0.083 Cl
ATOM     19  C   LIG    1      -40.479  73.134  23.733  0.00  0.00    +0.059 A 
ATOM     20  C   LIG    1      -39.741  72.013  24.090  0.00  0.00    +0.134 A 
ATOM     21  F   LIG    1      -40.291  70.829  23.804  0.00  0.00    -0.205 F 
ATOM     22  C   LIG    1      -38.506  72.109  24.746  0.00  0.00    +0.039 A 
ATOM     23  C   LIG    1      -38.079  73.415  25.077  0.00  0.00    +0.027 A 
BRANCH  22  24
ATOM     24  C   LIG    1      -37.696  70.909  25.073  0.00  0.00    +0.109 A 
ATOM     25  C   LIG    1      -37.216  70.007  24.115  0.00  0.00    +0.149 A 
ATOM     26  F   LIG    1      -37.411  70.192  22.801  0.00  0.00    -0.203 F 
ATOM     27  C   LIG    1      -36.469  68.901  24.502  0.00  0.00    +0.042 A 
ATOM     28  C   LIG    1      -36.185  68.717  25.846  0.00  0.00    +0.023 A 
ATOM     29  C   LIG    1      -36.671  69.652  26.745  0.00  0.00    +0.111 A 
ATOM     30  N   LIG    1      -37.413  70.737  26.394  0.00  0.00    -0.252 NA
ENDBRANCH  22  24
ENDBRANCH  14  16
ENDBRANCH   4  12
BRANCH   1  31
ATOM     31  C   LIG    1      -36.192  79.954  28.906  0.00  0.00    +0.229 C 
BRANCH  31  32
ATOM     32  O   LIG    1      -36.721  80.225  30.120  0.00  0.00    -0.365 OA
ATOM     33  H   LIG    1      -36.030  80.083  30.797  0.00  0.00    +0.212 HD
ENDBRANCH  31  32
BRANCH  31  34
ATOM     34  N   LIG    1      -34.985  80.232  28.560  0.00  0.00    -0.192 NA
BRANCH  34  35
ATOM     35  C   LIG    1      -33.976  79.285  29.034  0.00  0.00    +0.162 C 
BRANCH  35  36
ATOM     36  C   LIG    1      -33.295  78.695  27.860  0.00  0.00    +0.071 A 
ATOM     37  N   LIG    1      -33.125  79.363  26.681  0.00  0.00    -0.260 N 
ATOM     38  H   LIG    1      -33.439  80.289  26.418  0.00  0.00    +0.190 HD
ATOM     39  N   LIG    1      -32.449  78.625  25.787  0.00  0.00    -0.068 NA
ATOM     40  N   LIG    1      -32.181  77.459  26.356  0.00  0.00    -0.138 NA
ATOM     41  C   LIG    1      -32.693  77.480  27.623  0.00  0.00    +0.160 A 
ENDBRANCH  35  36
ENDBRANCH  34  35
ENDBRANCH  31  34
ENDBRANCH   1  31
TORSDOF 9
ENDMDL
MODEL 4
REMARK VINA RESULT:      -6.6      8.015     10.404
REMARK  Name = pdb/CHEMBL3967617.pdb
REMARK                            x       y       z     vdW  Elec       q    Type
REMARK                         _______ _______ _______ _____ _____    ______ ____
ROOT
ATOM      1  C   LIG    1      -31.177  87.152  30.796  0.00  0.00    +0.118 A 
ATOM      2  N   LIG    1      -32.198  87.989  30.557  0.00  0.00    -0.165 NA
ATOM      3  N   LIG    1      -33.086  87.261  29.812  0.00  0.00    -0.218 N 
ATOM      4  C   LIG    1      -32.704  85.909  29.755  0.00  0.00    +0.129 A 
ATOM      5  C   LIG    1      -31.460  85.852  30.347  0.00  0.00    +0.073 A 
ENDROOT
BRANCH   3   6
ATOM      6  C   LIG    1      -34.243  87.920  29.287  0.00  0.00    +0.067 A 
ATOM      7  C   LIG    1      -35.541  87.525  29.621  0.00  0.00    +0.028 A 
ATOM      8  C   LIG    1      -36.652  88.199  29.098  0.00  0.00    +0.002 A 
ATOM      9  C   LIG    1      -36.478  89.259  28.213  0.00  0.00    +0.000 A 
ATOM     10  C   LIG    1      -35.193  89.644  27.846  0.00  0.00    +0.002 A 
ATOM     11  C   LIG    1      -34.080  88.976  28.371  0.00  0.00    +0.028 A 
ENDBRANCH   3   6
BRANCH   4  12
ATOM     12  N   LIG    1      -33.407  84.802  29.260  0.00  0.00    -0.266 N 
ATOM     13  H   LIG    1      -33.307  84.584  28.275  0.00  0.00    +0.157 HD
ATOM     14  C   LIG    1      -34.347  84.018  30.052  0.00  0.00    +0.251 C 
ATOM     15  O   LIG    1      -34.597  84.320  31.190  0.00  0.00    -0.270 OA
BRANCH  14  16
ATOM     16  C   LIG    1      -35.039  82.869  29.394  0.00  0.00    +0.056 A 
ATOM     17  C   LIG    1      -36.408  82.818  29.088  0.00  0.00    +0.056 A 
ATOM     18 CL   LIG    1      -37.550  84.056  29.426  0.00  0.00    -0.083 Cl
ATOM     19  C   LIG    1      -36.942  81.699  28.462  0.00  0.00    +0.059 A 
ATOM     20  C   LIG    1      -36.134  80.622  28.125  0.00  0.00    +0.134 A 
ATOM     21  F   LIG    1      -36.753  79.565  27.588  0.00  0.00    -0.205 F 
ATOM     22  C   LIG    1      -34.753  80.619  28.362  0.00  0.00    +0.039 A 
ATOM     23  C   LIG    1      -34.235  81.757  29.022  0.00  0.00    +0.027 A 
BRANCH  22  24
ATOM     24  C   LIG    1      -33.887  79.488  27.946  0.00  0.00    +0.109 A 
ATOM     25  C   LIG    1      -33.770  78.290  28.664  0.00  0.00    +0.149 A 
ATOM     26  F   LIG    1      -34.486  78.051  29.772  0.00  0.00    -0.203 F 
ATOM     27  C   LIG    1      -32.932  77.279  28.211  0.00  0.00    +0.042 A 
ATOM     28  C   LIG    1      -32.232  77.461  27.029  0.00  0.00    +0.023 A 
ATOM     29  C   LIG    1      -32.403  78.659  26.353  0.00  0.00    +0.111 A 
ATOM     30  N   LIG    1      -33.208  79.669  26.779  0.00  0.00    -0.252 NA
ENDBRANCH  22  24
ENDBRANCH  14  16
ENDBRANCH   4  12
BRANCH   1  31
ATOM     31  C   LIG    1      -29.993  87.601  31.516  0.00  0.00    +0.229 C 
BRANCH  31  32
ATOM     32  O   LIG    1      -28.886  87.716  30.748  0.00  0.00    -0.365 OA
ATOM     33  H   LIG    1      -28.380  88.496  31.050  0.00  0.00    +0.212 HD
ENDBRANCH  31  32
BRANCH  31  34
ATOM     34  N   LIG    1      -30.035  87.863  32.774  0.00  0.00    -0.192 NA
BRANCH  34  35
ATOM     35  C   LIG    1      -30.058  86.689  33.646  0.00  0.00    +0.162 C 
BRANCH  35  36
ATOM     36  C   LIG    1      -28.755  86.593  34.342  0.00  0.00    +0.071 A 
ATOM     37  N   LIG    1      -27.839  87.606  34.356  0.00  0.00    -0.260 N 
ATOM     38  H   LIG    1      -27.877  88.510  33.902  0.00  0.00    +0.190 HD
ATOM     39  N   LIG    1      -26.756  87.285  35.081  0.00  0.00    -0.068 NA
ATOM     40  N   LIG    1      -26.936  86.054  35.538  0.00  0.00    -0.138 NA
ATOM     41  C   LIG    1      -28.150  85.611  35.095  0.00  0.00    +0.160 A 
ENDBRANCH  35  36
ENDBRANCH  34  35
ENDBRANCH  31  34
ENDBRANCH   1  31
TORSDOF 9
ENDMDL
MODEL 5
REMARK VINA RESULT:      -6.4      4.325      8.991
REMARK  Name = pdb/CHEMBL3967617.pdb
REMARK                            x       y       z     vdW  Elec       q    Type
REMARK                         _______ _______ _______ _____ _____    ______ ____
ROOT
ATOM      1  C   LIG    1      -38.703  70.080  24.913  0.00  0.00    +0.118 A 
ATOM      2  N   LIG    1      -39.215  71.211  24.404  0.00  0.00    -0.165 NA
ATOM      3  N   LIG    1      -38.478  72.218  24.967  0.00  0.00    -0.218 N 
ATOM      4  C   LIG    1      -37.378  71.701  25.675  0.00  0.00    +0.129 A 
ATOM      5  C   LIG    1      -37.552  70.333  25.676  0.00  0.00    +0.073 A 
ENDROOT
BRANCH   3   6
ATOM      6  C   LIG    1      -38.863  73.573  24.714  0.00  0.00    +0.067 A 
ATOM      7  C   LIG    1      -38.029  74.653  25.016  0.00  0.00    +0.028 A 
ATOM      8  C   LIG    1      -38.432  75.967  24.744  0.00  0.00    +0.002 A 
ATOM      9  C   LIG    1      -39.685  76.218  24.194  0.00  0.00    +0.000 A 
ATOM     10  C   LIG    1      -40.540  75.156  23.918  0.00  0.00    +0.002 A 
ATOM     11  C   LIG    1      -40.138  73.841  24.182  0.00  0.00    +0.028 A 
ENDBRANCH   3   6
BRANCH   4  12
ATOM     12  N   LIG    1      -36.286  72.371  26.242  0.00  0.00    -0.266 N 
ATOM     13  H   LIG    1      -35.444  72.455  25.684  0.00  0.00    +0.157 HD
ATOM     14  C   LIG    1      -36.257  72.858  27.616  0.00  0.00    +0.251 C 
ATOM     15  O   LIG    1      -37.185  72.665  28.358  0.00  0.00    -0.270 OA
BRANCH  14  16
ATOM     16  C   LIG    1      -35.021  73.544  28.097  0.00  0.00    +0.056 A 
ATOM     17  C   LIG    1      -33.923  72.907  28.694  0.00  0.00    +0.056 A 
ATOM     18 CL   LIG    1      -33.796  71.221  29.001  0.00  0.00    -0.083 Cl
ATOM     19  C   LIG    1      -32.818  73.648  29.093  0.00  0.00    +0.059 A 
ATOM     20  C   LIG    1      -32.779  75.023  28.902  0.00  0.00    +0.134 A 
ATOM     21  F   LIG    1      -31.702  75.654  29.381  0.00  0.00    -0.205 F 
ATOM     22  C   LIG    1      -33.820  75.721  28.277  0.00  0.00    +0.039 A 
ATOM     23  C   LIG    1      -34.946  74.951  27.901  0.00  0.00    +0.027 A 
BRANCH  22  24
ATOM     24  C   LIG    1      -33.746  77.181  28.025  0.00  0.00    +0.109 A 
ATOM     25  C   LIG    1      -32.878  77.770  27.096  0.00  0.00    +0.149 A 
ATOM     26  F   LIG    1      -32.071  77.039  26.313  0.00  0.00    -0.203 F 
ATOM     27  C   LIG    1      -32.863  79.148  26.923  0.00  0.00    +0.042 A 
ATOM     28  C   LIG    1      -33.735  79.930  27.664  0.00  0.00    +0.023 A 
ATOM     29  C   LIG    1      -34.584  79.290  28.552  0.00  0.00    +0.111 A 
ATOM     30  N   LIG    1      -34.611  77.945  28.749  0.00  0.00    -0.252 NA
ENDBRANCH  22  24
ENDBRANCH  14  16
ENDBRANCH   4  12
BRANCH   1  31
ATOM     31  C   LIG    1      -39.283  68.783  24.591  0.00  0.00    +0.229 C 
BRANCH  31  32
ATOM     32  O   LIG    1      -40.179  68.335  25.500  0.00  0.00    -0.365 OA
ATOM     33  H   LIG    1      -40.964  68.916  25.472  0.00  0.00    +0.212 HD
ENDBRANCH  31  32
BRANCH  31  34
ATOM     34  N   LIG    1      -38.954  68.151  23.522  0.00  0.00    -0.192 NA
BRANCH  34  35
ATOM     35  C   LIG    1      -38.217  66.907  23.745  0.00  0.00    +0.162 C 
BRANCH  35  36
ATOM     36  C   LIG    1      -36.768  67.206  23.717  0.00  0.00    +0.071 A 
ATOM     37  N   LIG    1      -36.149  67.807  22.658  0.00  0.00    -0.260 N 
ATOM     38  H   LIG    1      -36.539  68.099  21.770  0.00  0.00    +0.190 HD
ATOM     39  N   LIG    1      -34.841  67.998  22.891  0.00  0.00    -0.068 NA
ATOM     40  N   LIG    1      -34.577  67.509  24.094  0.00  0.00    -0.138 NA
ATOM     41  C   LIG    1      -35.741  67.017  24.615  0.00  0.00    +0.160 A 
ENDBRANCH  35  36
ENDBRANCH  34  35
ENDBRANCH  31  34
ENDBRANCH   1  31
TORSDOF 9
ENDMDL
MODEL 6
REMARK VINA RESULT:      -6.3      4.192      9.730
REMARK  Name = pdb/CHEMBL3967617.pdb
REMARK                            x       y       z     vdW  Elec       q    Type
REMARK                         _______ _______ _______ _____ _____    ______ ____
ROOT
ATOM      1  C   LIG    1      -40.458  71.906  23.867  0.00  0.00    +0.118 A 
ATOM      2  N   LIG    1      -40.635  73.188  23.513  0.00  0.00    -0.165 NA
ATOM      3  N   LIG    1      -39.691  73.883  24.219  0.00  0.00    -0.218 N 
ATOM      4  C   LIG    1      -38.798  73.008  24.863  0.00  0.00    +0.129 A 
ATOM      5  C   LIG    1      -39.320  71.745  24.673  0.00  0.00    +0.073 A 
ENDROOT
BRANCH   3   6
ATOM      6  C   LIG    1      -39.699  75.313  24.151  0.00  0.00    +0.067 A 
ATOM      7  C   LIG    1      -38.619  76.086  24.586  0.00  0.00    +0.028 A 
ATOM      8  C   LIG    1      -38.655  77.483  24.494  0.00  0.00    +0.002 A 
ATOM      9  C   LIG    1      -39.783  78.126  23.993  0.00  0.00    +0.000 A 
ATOM     10  C   LIG    1      -40.879  77.372  23.586  0.00  0.00    +0.002 A 
ATOM     11  C   LIG    1      -40.844  75.975  23.670  0.00  0.00    +0.028 A 
ENDBRANCH   3   6
BRANCH   4  12
ATOM     12  N   LIG    1      -37.599  73.287  25.532  0.00  0.00    -0.266 N 
ATOM     13  H   LIG    1      -36.737  73.211  25.003  0.00  0.00    +0.157 HD
ATOM     14  C   LIG    1      -37.514  73.577  26.958  0.00  0.00    +0.251 C 
ATOM     15  O   LIG    1      -38.496  73.550  27.653  0.00  0.00    -0.270 OA
BRANCH  14  16
ATOM     16  C   LIG    1      -36.167  73.845  27.546  0.00  0.00    +0.056 A 
ATOM     17  C   LIG    1      -35.381  72.903  28.227  0.00  0.00    +0.056 A 
ATOM     18 CL   LIG    1      -35.823  71.270  28.530  0.00  0.00    -0.083 Cl
ATOM     19  C   LIG    1      -34.134  73.262  28.722  0.00  0.00    +0.059 A 
ATOM     20  C   LIG    1      -33.645  74.549  28.547  0.00  0.00    +0.134 A 
ATOM     21  F   LIG    1      -32.465  74.815  29.118  0.00  0.00    -0.205 F 
ATOM     22  C   LIG    1      -34.355  75.530  27.842  0.00  0.00    +0.039 A 
ATOM     23  C   LIG    1      -35.632  75.151  27.369  0.00  0.00    +0.027 A 
BRANCH  22  24
ATOM     24  C   LIG    1      -33.800  76.886  27.610  0.00  0.00    +0.109 A 
ATOM     25  C   LIG    1      -34.217  78.030  28.303  0.00  0.00    +0.149 A 
ATOM     26  F   LIG    1      -35.129  77.975  29.284  0.00  0.00    -0.203 F 
ATOM     27  C   LIG    1      -33.652  79.267  28.021  0.00  0.00    +0.042 A 
ATOM     28  C   LIG    1      -32.654  79.351  27.064  0.00  0.00    +0.023 A 
ATOM     29  C   LIG    1      -32.269  78.183  26.426  0.00  0.00    +0.111 A 
ATOM     30  N   LIG    1      -32.813  76.962  26.674  0.00  0.00    -0.252 NA
ENDBRANCH  22  24
ENDBRANCH  14  16
ENDBRANCH   4  12
BRANCH   1  31
ATOM     31  C   LIG    1      -41.338  70.861  23.362  0.00  0.00    +0.229 C 
BRANCH  31  32
ATOM     32  O   LIG    1      -42.351  70.535  24.197  0.00  0.00    -0.365 OA
ATOM     33  H   LIG    1      -42.481  71.271  24.827  0.00  0.00    +0.212 HD
ENDBRANCH  31  32
BRANCH  31  34
ATOM     34  N   LIG    1      -41.143  70.321  22.211  0.00  0.00    -0.192 NA
BRANCH  34  35
ATOM     35  C   LIG    1      -40.623  68.955  22.253  0.00  0.00    +0.162 C 
BRANCH  35  36
ATOM     36  C   LIG    1      -39.202  68.977  21.840  0.00  0.00    +0.071 A 
ATOM     37  N   LIG    1      -38.803  68.935  20.534  0.00  0.00    -0.260 N 
ATOM     38  H   LIG    1      -39.364  68.855  19.695  0.00  0.00    +0.190 HD
ATOM     39  N   LIG    1      -37.468  69.001  20.422  0.00  0.00    -0.068 NA
ATOM     40  N   LIG    1      -36.969  69.069  21.648  0.00  0.00    -0.138 NA
ATOM     41  C   LIG    1      -38.013  69.052  22.530  0.00  0.00    +0.160 A 
ENDBRANCH  35  36
ENDBRANCH  34  35
ENDBRANCH  31  34
ENDBRANCH   1  31
TORSDOF 9
ENDMDL
MODEL 7
REMARK VINA RESULT:      -6.3      4.518      7.516
REMARK  Name = pdb/CHEMBL3967617.pdb
REMARK                            x       y       z     vdW  Elec       q    Type
REMARK                         _______ _______ _______ _____ _____    ______ ____
ROOT
ATOM      1  C   LIG    1      -32.952  73.607  29.221  0.00  0.00    +0.118 A 
ATOM      2  N   LIG    1      -32.665  72.386  29.699  0.00  0.00    -0.165 NA
ATOM      3  N   LIG    1      -33.431  71.528  28.958  0.00  0.00    -0.218 N 
ATOM      4  C   LIG    1      -34.048  72.199  27.887  0.00  0.00    +0.129 A 
ATOM      5  C   LIG    1      -33.775  73.537  28.086  0.00  0.00    +0.073 A 
ENDROOT
BRANCH   3   6
ATOM      6  C   LIG    1      -33.443  70.140  29.311  0.00  0.00    +0.067 A 
ATOM      7  C   LIG    1      -34.621  69.464  29.638  0.00  0.00    +0.028 A 
ATOM      8  C   LIG    1      -34.598  68.103  29.967  0.00  0.00    +0.002 A 
ATOM      9  C   LIG    1      -33.393  67.408  29.999  0.00  0.00    +0.000 A 
ATOM     10  C   LIG    1      -32.207  68.074  29.707  0.00  0.00    +0.002 A 
ATOM     11  C   LIG    1      -32.227  69.434  29.372  0.00  0.00    +0.028 A 
ENDBRANCH   3   6
BRANCH   4  12
ATOM     12  N   LIG    1      -34.759  71.680  26.798  0.00  0.00    -0.266 N 
ATOM     13  H   LIG    1      -34.273  71.604  25.911  0.00  0.00    +0.157 HD
ATOM     14  C   LIG    1      -36.177  71.344  26.841  0.00  0.00    +0.251 C 
ATOM     15  O   LIG    1      -36.828  71.541  27.835  0.00  0.00    -0.270 OA
BRANCH  14  16
ATOM     16  C   LIG    1      -36.816  70.810  25.601  0.00  0.00    +0.056 A 
ATOM     17  C   LIG    1      -37.862  71.430  24.899  0.00  0.00    +0.056 A 
ATOM     18 CL   LIG    1      -38.618  72.908  25.340  0.00  0.00    -0.083 Cl
ATOM     19  C   LIG    1      -38.370  70.846  23.746  0.00  0.00    +0.059 A 
ATOM     20  C   LIG    1      -37.852  69.650  23.268  0.00  0.00    +0.134 A 
ATOM     21  F   LIG    1      -38.454  69.135  22.191  0.00  0.00    -0.205 F 
ATOM     22  C   LIG    1      -36.782  68.996  23.893  0.00  0.00    +0.039 A 
ATOM     23  C   LIG    1      -36.295  69.594  25.078  0.00  0.00    +0.027 A 
BRANCH  22  24
ATOM     24  C   LIG    1      -36.196  67.749  23.343  0.00  0.00    +0.109 A 
ATOM     25  C   LIG    1      -36.812  66.494  23.426  0.00  0.00    +0.149 A 
ATOM     26  F   LIG    1      -38.026  66.332  23.973  0.00  0.00    -0.203 F 
ATOM     27  C   LIG    1      -36.195  65.370  22.891  0.00  0.00    +0.042 A 
ATOM     28  C   LIG    1      -34.973  65.511  22.253  0.00  0.00    +0.023 A 
ATOM     29  C   LIG    1      -34.421  66.780  22.184  0.00  0.00    +0.111 A 
ATOM     30  N   LIG    1      -34.998  67.895  22.709  0.00  0.00    -0.252 NA
ENDBRANCH  22  24
ENDBRANCH  14  16
ENDBRANCH   4  12
BRANCH   1  31
ATOM     31  C   LIG    1      -32.368  74.801  29.817  0.00  0.00    +0.229 C 
BRANCH  31  32
ATOM     32  O   LIG    1      -32.222  74.737  31.160  0.00  0.00    -0.365 OA
ATOM     33  H   LIG    1      -32.191  73.796  31.423  0.00  0.00    +0.212 HD
ENDBRANCH  31  32
BRANCH  31  34
ATOM     34  N   LIG    1      -32.026  75.809  29.096  0.00  0.00    -0.192 NA
BRANCH  34  35
ATOM     35  C   LIG    1      -32.925  76.959  29.180  0.00  0.00    +0.162 C 
BRANCH  35  36
ATOM     36  C   LIG    1      -32.831  77.725  27.918  0.00  0.00    +0.071 A 
ATOM     37  N   LIG    1      -33.211  79.032  27.807  0.00  0.00    -0.260 N 
ATOM     38  H   LIG    1      -33.619  79.643  28.504  0.00  0.00    +0.190 HD
ATOM     39  N   LIG    1      -32.996  79.508  26.570  0.00  0.00    -0.068 NA
ATOM     40  N   LIG    1      -32.491  78.519  25.847  0.00  0.00    -0.138 NA
ATOM     41  C   LIG    1      -32.385  77.419  26.651  0.00  0.00    +0.160 A 
ENDBRANCH  35  36
ENDBRANCH  34  35
ENDBRANCH  31  34
ENDBRANCH   1  31
TORSDOF 9
ENDMDL
MODEL 8
REMARK VINA RESULT:      -6.3      4.596      9.300
REMARK  Name = pdb/CHEMBL3967617.pdb
REMARK                            x       y       z     vdW  Elec       q    Type
REMARK                         _______ _______ _______ _____ _____    ______ ____
ROOT
ATOM      1  C   LIG    1      -35.860  69.176  25.410  0.00  0.00    +0.118 A 
ATOM      2  N   LIG    1      -36.847  70.058  25.190  0.00  0.00    -0.165 NA
ATOM      3  N   LIG    1      -36.450  71.200  25.832  0.00  0.00    -0.218 N 
ATOM      4  C   LIG    1      -35.124  71.087  26.286  0.00  0.00    +0.129 A 
ATOM      5  C   LIG    1      -34.766  69.775  26.055  0.00  0.00    +0.073 A 
ENDROOT
BRANCH   3   6
ATOM      6  C   LIG    1      -37.357  72.307  25.887  0.00  0.00    +0.067 A 
ATOM      7  C   LIG    1      -37.899  72.885  24.736  0.00  0.00    +0.028 A 
ATOM      8  C   LIG    1      -38.792  73.959  24.827  0.00  0.00    +0.002 A 
ATOM      9  C   LIG    1      -39.133  74.487  26.068  0.00  0.00    +0.000 A 
ATOM     10  C   LIG    1      -38.577  73.944  27.222  0.00  0.00    +0.002 A 
ATOM     11  C   LIG    1      -37.688  72.866  27.135  0.00  0.00    +0.028 A 
ENDBRANCH   3   6
BRANCH   4  12
ATOM     12  N   LIG    1      -34.277  72.066  26.824  0.00  0.00    -0.266 N 
ATOM     13  H   LIG    1      -33.603  72.498  26.202  0.00  0.00    +0.157 HD
ATOM     14  C   LIG    1      -34.241  72.419  28.237  0.00  0.00    +0.251 C 
ATOM     15  O   LIG    1      -34.931  71.840  29.036  0.00  0.00    -0.270 OA
BRANCH  14  16
ATOM     16  C   LIG    1      -33.279  73.472  28.679  0.00  0.00    +0.056 A 
ATOM     17  C   LIG    1      -32.092  73.237  29.391  0.00  0.00    +0.056 A 
ATOM     18 CL   LIG    1      -31.529  71.697  29.905  0.00  0.00    -0.083 Cl
ATOM     19  C   LIG    1      -31.265  74.297  29.738  0.00  0.00    +0.059 A 
ATOM     20  C   LIG    1      -31.593  75.599  29.384  0.00  0.00    +0.134 A 
ATOM     21  F   LIG    1      -30.767  76.555  29.823  0.00  0.00    -0.205 F 
ATOM     22  C   LIG    1      -32.739  75.905  28.639  0.00  0.00    +0.039 A 
ATOM     23  C   LIG    1      -33.579  74.815  28.317  0.00  0.00    +0.027 A 
BRANCH  22  24
ATOM     24  C   LIG    1      -33.051  77.292  28.214  0.00  0.00    +0.109 A 
ATOM     25  C   LIG    1      -32.451  77.927  27.119  0.00  0.00    +0.149 A 
ATOM     26  F   LIG    1      -31.572  77.299  26.326  0.00  0.00    -0.203 F 
ATOM     27  C   LIG    1      -32.793  79.233  26.790  0.00  0.00    +0.042 A 
ATOM     28  C   LIG    1      -33.753  79.889  27.543  0.00  0.00    +0.023 A 
ATOM     29  C   LIG    1      -34.326  79.204  28.602  0.00  0.00    +0.111 A 
ATOM     30  N   LIG    1      -34.002  77.930  28.953  0.00  0.00    -0.252 NA
ENDBRANCH  22  24
ENDBRANCH  14  16
ENDBRANCH   4  12
BRANCH   1  31
ATOM     31  C   LIG    1      -35.961  67.804  24.930  0.00  0.00    +0.229 C 
BRANCH  31  32
ATOM     32  O   LIG    1      -34.793  67.281  24.494  0.00  0.00    -0.365 OA
ATOM     33  H   LIG    1      -34.862  67.132  23.530  0.00  0.00    +0.212 HD
ENDBRANCH  31  32
BRANCH  31  34
ATOM     34  N   LIG    1      -37.081  67.173  24.942  0.00  0.00    -0.192 NA
BRANCH  34  35
ATOM     35  C   LIG    1      -37.448  66.549  23.671  0.00  0.00    +0.162 C 
BRANCH  35  36
ATOM     36  C   LIG    1      -38.017  67.587  22.783  0.00  0.00    +0.071 A 
ATOM     37  N   LIG    1      -38.937  68.506  23.201  0.00  0.00    -0.260 N 
ATOM     38  H   LIG    1      -39.376  68.606  24.108  0.00  0.00    +0.190 HD
ATOM     39  N   LIG    1      -39.270  69.357  22.218  0.00  0.00    -0.068 NA
ATOM     40  N   LIG    1      -38.590  69.000  21.137  0.00  0.00    -0.138 NA
ATOM     41  C   LIG    1      -37.821  67.917  21.460  0.00  0.00    +0.160 A 
ENDBRANCH  35  36
ENDBRANCH  34  35
ENDBRANCH  31  34
ENDBRANCH   1  31
TORSDOF 9
ENDMDL
MODEL 9
REMARK VINA RESULT:      -6.3     11.564     17.357
REMARK  Name = pdb/CHEMBL3967617.pdb
REMARK                            x       y       z     vdW  Elec       q    Type
REMARK                         _______ _______ _______ _____ _____    ______ ____
ROOT
ATOM      1  C   LIG    1      -23.474  77.496  31.240  0.00  0.00    +0.118 A 
ATOM      2  N   LIG    1      -22.488  76.699  30.802  0.00  0.00    -0.165 NA
ATOM      3  N   LIG    1      -21.438  76.938  31.646  0.00  0.00    -0.218 N 
ATOM      4  C   LIG    1      -21.836  77.741  32.730  0.00  0.00    +0.129 A 
ATOM      5  C   LIG    1      -23.127  78.133  32.443  0.00  0.00    +0.073 A 
ENDROOT
BRANCH   3   6
ATOM      6  C   LIG    1      -20.177  76.320  31.366  0.00  0.00    +0.067 A 
ATOM      7  C   LIG    1      -19.213  76.926  30.556  0.00  0.00    +0.028 A 
ATOM      8  C   LIG    1      -17.985  76.298  30.312  0.00  0.00    +0.002 A 
ATOM      9  C   LIG    1      -17.717  75.045  30.853  0.00  0.00    +0.000 A 
ATOM     10  C   LIG    1      -18.678  74.413  31.635  0.00  0.00    +0.002 A 
ATOM     11  C   LIG    1      -19.905  75.040  31.886  0.00  0.00    +0.028 A 
ENDBRANCH   3   6
BRANCH   4  12
ATOM     12  N   LIG    1      -21.140  78.072  33.900  0.00  0.00    -0.266 N 
ATOM     13  H   LIG    1      -21.503  77.720  34.779  0.00  0.00    +0.157 HD
ATOM     14  C   LIG    1      -19.994  78.971  33.935  0.00  0.00    +0.251 C 
ATOM     15  O   LIG    1      -19.607  79.516  32.934  0.00  0.00    -0.270 OA
BRANCH  14  16
ATOM     16  C   LIG    1      -19.352  79.249  35.255  0.00  0.00    +0.056 A 
ATOM     17  C   LIG    1      -18.047  78.879  35.613  0.00  0.00    +0.056 A 
ATOM     18 CL   LIG    1      -16.945  78.022  34.612  0.00  0.00    -0.083 Cl
ATOM     19  C   LIG    1      -17.549  79.203  36.869  0.00  0.00    +0.059 A 
ATOM     20  C   LIG    1      -18.329  79.900  37.783  0.00  0.00    +0.134 A 
ATOM     21  F   LIG    1      -17.785  80.104  38.987  0.00  0.00    -0.205 F 
ATOM     22  C   LIG    1      -19.625  80.337  37.480  0.00  0.00    +0.039 A 
ATOM     23  C   LIG    1      -20.120  79.976  36.206  0.00  0.00    +0.027 A 
BRANCH  22  24
ATOM     24  C   LIG    1      -20.429  81.131  38.442  0.00  0.00    +0.109 A 
ATOM     25  C   LIG    1      -20.477  82.532  38.449  0.00  0.00    +0.149 A 
ATOM     26  F   LIG    1      -19.829  83.271  37.538  0.00  0.00    -0.203 F 
ATOM     27  C   LIG    1      -21.250  83.203  39.388  0.00  0.00    +0.042 A 
ATOM     28  C   LIG    1      -21.993  82.470  40.300  0.00  0.00    +0.023 A 
ATOM     29  C   LIG    1      -21.921  81.088  40.231  0.00  0.00    +0.111 A 
ATOM     30  N   LIG    1      -21.164  80.406  39.330  0.00  0.00    -0.252 NA
ENDBRANCH  22  24
ENDBRANCH  14  16
ENDBRANCH   4  12
BRANCH   1  31
ATOM     31  C   LIG    1      -24.748  77.567  30.538  0.00  0.00    +0.229 C 
BRANCH  31  32
ATOM     32  O   LIG    1      -25.014  78.774  29.990  0.00  0.00    -0.365 OA
ATOM     33  H   LIG    1      -24.469  78.876  29.185  0.00  0.00    +0.212 HD
ENDBRANCH  31  32
BRANCH  31  34
ATOM     34  N   LIG    1      -25.525  76.546  30.460  0.00  0.00    -0.192 NA
BRANCH  34  35
ATOM     35  C   LIG    1      -25.837  75.911  31.740  0.00  0.00    +0.162 C 
BRANCH  35  36
ATOM     36  C   LIG    1      -27.020  76.582  32.323  0.00  0.00    +0.071 A 
ATOM     37  N   LIG    1      -28.094  76.982  31.581  0.00  0.00    -0.260 N 
ATOM     38  H   LIG    1      -28.240  76.923  30.580  0.00  0.00    +0.190 HD
ATOM     39  N   LIG    1      -29.049  77.534  32.347  0.00  0.00    -0.068 NA
ATOM     40  N   LIG    1      -28.610  77.522  33.597  0.00  0.00    -0.138 NA
ATOM     41  C   LIG    1      -27.370  76.947  33.604  0.00  0.00    +0.160 A 
ENDBRANCH  35  36
ENDBRANCH  34  35
ENDBRANCH  31  34
ENDBRANCH   1  31
TORSDOF 9
ENDMDL
