MODEL 1
REMARK VINA RESULT:      -5.1      0.000      0.000
REMARK  Name = pdb/CHEMBL3676015.pdb
REMARK                            x       y       z     vdW  Elec       q    Type
REMARK                         _______ _______ _______ _____ _____    ______ ____
ROOT
ATOM      1  C   LIG    1      -32.380  67.915  16.937  0.00  0.00    +0.126 A 
ATOM      2  N   LIG    1      -33.519  67.878  17.589  0.00  0.00    -0.212 NA
ATOM      3  C   LIG    1      -34.527  67.108  17.055  0.00  0.00    +0.170 A 
ATOM      4  C   LIG    1      -35.849  66.918  17.422  0.00  0.00    +0.100 A 
ATOM      5  C   LIG    1      -36.384  66.082  16.423  0.00  0.00    +0.150 A 
ATOM      6  N   LIG    1      -35.482  65.711  15.514  0.00  0.00    -0.173 NA
ATOM      7  N   LIG    1      -34.351  66.351  15.892  0.00  0.00    -0.221 N 
ATOM      8  C   LIG    1      -33.124  66.325  15.253  0.00  0.00    +0.118 A 
ATOM      9  C   LIG    1      -32.117  67.070  15.714  0.00  0.00    +0.063 A 
ENDROOT
BRANCH   1  11
ATOM     10  C   LIG    1      -30.702  68.731  18.622  0.00  0.00    +0.110 C 
ATOM     11  N   LIG    1      -31.372  68.796  17.302  0.00  0.00    -0.308 N 
ATOM     12  C   LIG    1      -31.575  70.210  16.936  0.00  0.00    +0.107 C 
ATOM     13  C   LIG    1      -30.854  71.036  17.992  0.00  0.00    +0.021 C 
ATOM     14  C   LIG    1      -29.917  70.051  18.661  0.00  0.00    +0.029 C 
BRANCH  10  16
ATOM     15  C   LIG    1      -30.161  66.339  19.330  0.00  0.00    +0.220 A 
ATOM     16  C   LIG    1      -29.763  67.551  18.755  0.00  0.00    +0.037 A 
ATOM     17  C   LIG    1      -28.414  67.639  18.372  0.00  0.00    +0.050 A 
ATOM     18  C   LIG    1      -27.574  66.545  18.491  0.00  0.00    +0.142 A 
ATOM     19  F   LIG    1      -26.292  66.634  18.122  0.00  0.00    -0.204 F 
ATOM     20  C   LIG    1      -28.082  65.375  19.004  0.00  0.00    +0.153 A 
ATOM     21  N   LIG    1      -29.356  65.251  19.430  0.00  0.00    -0.218 NA
BRANCH  15  23
ATOM     22  C   LIG    1      -32.207  65.196  19.377  0.00  0.00    +0.279 C 
ATOM     23  O   LIG    1      -31.415  66.265  19.902  0.00  0.00    -0.479 OA
ENDBRANCH  15  23
ENDBRANCH  10  16
ENDBRANCH   1  11
BRANCH   4  24
ATOM     24  C   LIG    1      -36.543  67.439  18.574  0.00  0.00    +0.249 C 
ATOM     25  N   LIG    1      -35.973  67.092  19.773  0.00  0.00    -0.311 N 
ATOM     26  H   LIG    1      -35.055  66.654  19.741  0.00  0.00    +0.149 HD
ATOM     27  O   LIG    1      -37.595  68.066  18.472  0.00  0.00    -0.270 OA
BRANCH  25  28
ATOM     28  C   LIG    1      -36.548  67.484  21.037  0.00  0.00    +0.106 C 
BRANCH  28  29
ATOM     29  C   LIG    1      -35.483  67.563  22.128  0.00  0.00    +0.037 C 
BRANCH  29  30
ATOM     30  C   LIG    1      -34.497  66.409  22.024  0.00  0.00    +0.109 C 
BRANCH  30  31
ATOM     31  N   LIG    1      -34.830  65.370  22.965  0.00  0.00    -0.281 N 
ATOM     32  H   LIG    1      -34.763  65.545  23.960  0.00  0.00    +0.152 HD
ATOM     33  C   LIG    1      -35.002  64.038  22.680  0.00  0.00    +0.401 C 
ATOM     34  O   LIG    1      -35.181  63.226  23.560  0.00  0.00    -0.226 OA
BRANCH  33  35
ATOM     35  O   LIG    1      -34.856  63.780  21.350  0.00  0.00    -0.445 OA
BRANCH  35  36
ATOM     36  C   LIG    1      -35.982  63.239  20.618  0.00  0.00    +0.107 C 
ATOM     37  C   LIG    1      -35.993  61.712  20.744  0.00  0.00    +0.055 C 
ATOM     38  C   LIG    1      -35.714  63.587  19.142  0.00  0.00    +0.055 C 
ATOM     39  C   LIG    1      -37.311  63.866  21.049  0.00  0.00    +0.055 C 
ENDBRANCH  35  36
ENDBRANCH  33  35
ENDBRANCH  30  31
ENDBRANCH  29  30
ENDBRANCH  28  29
ENDBRANCH  25  28
ENDBRANCH   4  24
TORSDOF 10
ENDMDL
MODEL 2
REMARK VINA RESULT:      -5.0     14.661     16.956
REMARK  Name = pdb/CHEMBL3676015.pdb
REMARK                            x       y       z     vdW  Elec       q    Type
REMARK                         _______ _______ _______ _____ _____    ______ ____
ROOT
ATOM      1  C   LIG    1      -26.156  76.731  31.813  0.00  0.00    +0.126 A 
ATOM      2  N   LIG    1      -27.353  76.525  31.315  0.00  0.00    -0.212 NA
ATOM      3  C   LIG    1      -28.418  76.594  32.185  0.00  0.00    +0.170 A 
ATOM      4  C   LIG    1      -29.771  76.349  32.022  0.00  0.00    +0.100 A 
ATOM      5  C   LIG    1      -30.324  76.506  33.308  0.00  0.00    +0.150 A 
ATOM      6  N   LIG    1      -29.425  76.875  34.220  0.00  0.00    -0.173 NA
ATOM      7  N   LIG    1      -28.257  76.914  33.537  0.00  0.00    -0.221 N 
ATOM      8  C   LIG    1      -27.005  77.213  34.041  0.00  0.00    +0.118 A 
ATOM      9  C   LIG    1      -25.932  77.140  33.248  0.00  0.00    +0.063 A 
ENDROOT
BRANCH   1  11
ATOM     10  C   LIG    1      -23.832  75.799  31.591  0.00  0.00    +0.110 C 
ATOM     11  N   LIG    1      -25.016  76.510  31.054  0.00  0.00    -0.308 N 
ATOM     12  C   LIG    1      -24.560  77.634  30.216  0.00  0.00    +0.107 C 
ATOM     13  C   LIG    1      -23.047  77.502  30.102  0.00  0.00    +0.021 C 
ATOM     14  C   LIG    1      -22.766  76.072  30.519  0.00  0.00    +0.029 C 
BRANCH  10  16
ATOM     15  C   LIG    1      -24.129  73.693  33.003  0.00  0.00    +0.220 A 
ATOM     16  C   LIG    1      -24.054  74.309  31.750  0.00  0.00    +0.037 A 
ATOM     17  C   LIG    1      -24.123  73.455  30.637  0.00  0.00    +0.050 A 
ATOM     18  C   LIG    1      -24.339  72.097  30.802  0.00  0.00    +0.142 A 
ATOM     19  F   LIG    1      -24.407  71.288  29.739  0.00  0.00    -0.204 F 
ATOM     20  C   LIG    1      -24.470  71.600  32.078  0.00  0.00    +0.153 A 
ATOM     21  N   LIG    1      -24.365  72.369  33.181  0.00  0.00    -0.218 NA
BRANCH  15  23
ATOM     22  C   LIG    1      -22.633  74.116  34.759  0.00  0.00    +0.279 C 
ATOM     23  O   LIG    1      -23.870  74.456  34.125  0.00  0.00    -0.479 OA
ENDBRANCH  15  23
ENDBRANCH  10  16
ENDBRANCH   1  11
BRANCH   4  24
ATOM     24  C   LIG    1      -30.484  76.018  30.812  0.00  0.00    +0.249 C 
ATOM     25  N   LIG    1      -31.296  74.917  30.926  0.00  0.00    -0.311 N 
ATOM     26  H   LIG    1      -31.444  74.545  31.862  0.00  0.00    +0.149 HD
ATOM     27  O   LIG    1      -30.304  76.629  29.761  0.00  0.00    -0.270 OA
BRANCH  25  28
ATOM     28  C   LIG    1      -32.056  74.406  29.812  0.00  0.00    +0.106 C 
BRANCH  28  29
ATOM     29  C   LIG    1      -33.385  75.142  29.665  0.00  0.00    +0.037 C 
BRANCH  29  30
ATOM     30  C   LIG    1      -33.564  75.689  28.257  0.00  0.00    +0.109 C 
BRANCH  30  31
ATOM     31  N   LIG    1      -32.603  76.729  27.990  0.00  0.00    -0.281 N 
ATOM     32  H   LIG    1      -31.650  76.639  28.321  0.00  0.00    +0.152 HD
ATOM     33  C   LIG    1      -32.879  77.994  27.534  0.00  0.00    +0.401 C 
ATOM     34  O   LIG    1      -32.009  78.831  27.438  0.00  0.00    -0.226 OA
BRANCH  33  35
ATOM     35  O   LIG    1      -34.211  78.176  27.312  0.00  0.00    -0.445 OA
BRANCH  35  36
ATOM     36  C   LIG    1      -34.937  79.101  28.156  0.00  0.00    +0.107 C 
ATOM     37  C   LIG    1      -36.445  78.899  27.964  0.00  0.00    +0.055 C 
ATOM     38  C   LIG    1      -34.580  80.502  27.626  0.00  0.00    +0.055 C 
ATOM     39  C   LIG    1      -34.521  78.998  29.626  0.00  0.00    +0.055 C 
ENDBRANCH  35  36
ENDBRANCH  33  35
ENDBRANCH  30  31
ENDBRANCH  29  30
ENDBRANCH  28  29
ENDBRANCH  25  28
ENDBRANCH   4  24
TORSDOF 10
ENDMDL
MODEL 3
REMARK VINA RESULT:      -4.9     20.304     23.026
REMARK  Name = pdb/CHEMBL3676015.pdb
REMARK                            x       y       z     vdW  Elec       q    Type
REMARK                         _______ _______ _______ _____ _____    ______ ____
ROOT
ATOM      1  C   LIG    1      -21.022  79.183  34.328  0.00  0.00    +0.126 A 
ATOM      2  N   LIG    1      -21.039  78.570  33.167  0.00  0.00    -0.212 NA
ATOM      3  C   LIG    1      -19.830  78.152  32.658  0.00  0.00    +0.170 A 
ATOM      4  C   LIG    1      -19.479  77.569  31.451  0.00  0.00    +0.100 A 
ATOM      5  C   LIG    1      -18.076  77.464  31.495  0.00  0.00    +0.150 A 
ATOM      6  N   LIG    1      -17.557  77.888  32.647  0.00  0.00    -0.173 NA
ATOM      7  N   LIG    1      -18.628  78.323  33.352  0.00  0.00    -0.221 N 
ATOM      8  C   LIG    1      -18.623  78.893  34.612  0.00  0.00    +0.118 A 
ATOM      9  C   LIG    1      -19.763  79.338  35.147  0.00  0.00    +0.063 A 
ENDROOT
BRANCH   1  11
ATOM     10  C   LIG    1      -22.465  79.821  36.285  0.00  0.00    +0.110 C 
ATOM     11  N   LIG    1      -22.161  79.792  34.835  0.00  0.00    -0.308 N 
ATOM     12  C   LIG    1      -23.411  79.565  34.087  0.00  0.00    +0.107 C 
ATOM     13  C   LIG    1      -24.541  79.625  35.107  0.00  0.00    +0.021 C 
ATOM     14  C   LIG    1      -23.921  80.310  36.309  0.00  0.00    +0.029 C 
BRANCH  10  16
ATOM     15  C   LIG    1      -20.973  80.408  38.271  0.00  0.00    +0.220 A 
ATOM     16  C   LIG    1      -21.574  80.768  37.061  0.00  0.00    +0.037 A 
ATOM     17  C   LIG    1      -21.366  82.092  36.637  0.00  0.00    +0.050 A 
ATOM     18  C   LIG    1      -20.538  82.940  37.354  0.00  0.00    +0.142 A 
ATOM     19  F   LIG    1      -20.341  84.197  36.945  0.00  0.00    -0.204 F 
ATOM     20  C   LIG    1      -19.936  82.465  38.496  0.00  0.00    +0.153 A 
ATOM     21  N   LIG    1      -20.140  81.219  38.971  0.00  0.00    -0.218 NA
BRANCH  15  23
ATOM     22  C   LIG    1      -22.144  79.314  39.983  0.00  0.00    +0.279 C 
ATOM     23  O   LIG    1      -21.304  79.190  38.831  0.00  0.00    -0.479 OA
ENDBRANCH  15  23
ENDBRANCH  10  16
ENDBRANCH   1  11
BRANCH   4  24
ATOM     24  C   LIG    1      -20.342  77.143  30.377  0.00  0.00    +0.249 C 
ATOM     25  N   LIG    1      -21.617  76.827  30.776  0.00  0.00    -0.311 N 
ATOM     26  H   LIG    1      -21.877  77.069  31.730  0.00  0.00    +0.149 HD
ATOM     27  O   LIG    1      -19.931  77.003  29.226  0.00  0.00    -0.270 OA
BRANCH  25  28
ATOM     28  C   LIG    1      -22.612  76.340  29.852  0.00  0.00    +0.106 C 
BRANCH  28  29
ATOM     29  C   LIG    1      -23.556  77.458  29.417  0.00  0.00    +0.037 C 
BRANCH  29  30
ATOM     30  C   LIG    1      -24.225  78.116  30.615  0.00  0.00    +0.109 C 
BRANCH  30  31
ATOM     31  N   LIG    1      -25.636  77.825  30.631  0.00  0.00    -0.281 N 
ATOM     32  H   LIG    1      -26.236  78.174  29.893  0.00  0.00    +0.152 HD
ATOM     33  C   LIG    1      -26.351  77.319  31.688  0.00  0.00    +0.401 C 
ATOM     34  O   LIG    1      -27.555  77.205  31.635  0.00  0.00    -0.226 OA
BRANCH  33  35
ATOM     35  O   LIG    1      -25.556  77.070  32.767  0.00  0.00    -0.445 OA
BRANCH  35  36
ATOM     36  C   LIG    1      -25.168  75.703  33.044  0.00  0.00    +0.107 C 
ATOM     37  C   LIG    1      -25.537  74.811  31.853  0.00  0.00    +0.055 C 
ATOM     38  C   LIG    1      -26.032  75.269  34.242  0.00  0.00    +0.055 C 
ATOM     39  C   LIG    1      -23.689  75.584  33.422  0.00  0.00    +0.055 C 
ENDBRANCH  35  36
ENDBRANCH  33  35
ENDBRANCH  30  31
ENDBRANCH  29  30
ENDBRANCH  28  29
ENDBRANCH  25  28
ENDBRANCH   4  24
TORSDOF 10
ENDMDL
MODEL 4
REMARK VINA RESULT:      -4.9     15.721     18.082
REMARK  Name = pdb/CHEMBL3676015.pdb
REMARK                            x       y       z     vdW  Elec       q    Type
REMARK                         _______ _______ _______ _____ _____    ______ ____
ROOT
ATOM      1  C   LIG    1      -23.397  76.577  30.796  0.00  0.00    +0.126 A 
ATOM      2  N   LIG    1      -24.130  75.554  31.172  0.00  0.00    -0.212 NA
ATOM      3  C   LIG    1      -25.465  75.788  31.410  0.00  0.00    +0.170 A 
ATOM      4  C   LIG    1      -26.481  74.980  31.893  0.00  0.00    +0.100 A 
ATOM      5  C   LIG    1      -27.601  75.828  31.992  0.00  0.00    +0.150 A 
ATOM      6  N   LIG    1      -27.357  77.066  31.562  0.00  0.00    -0.173 NA
ATOM      7  N   LIG    1      -26.047  77.045  31.221  0.00  0.00    -0.221 N 
ATOM      8  C   LIG    1      -25.292  78.101  30.744  0.00  0.00    +0.118 A 
ATOM      9  C   LIG    1      -23.986  77.938  30.518  0.00  0.00    +0.063 A 
ENDROOT
BRANCH   1  11
ATOM     10  C   LIG    1      -21.105  77.301  31.531  0.00  0.00    +0.110 C 
ATOM     11  N   LIG    1      -22.017  76.476  30.704  0.00  0.00    -0.308 N 
ATOM     12  C   LIG    1      -21.458  76.360  29.345  0.00  0.00    +0.107 C 
ATOM     13  C   LIG    1      -20.076  76.997  29.390  0.00  0.00    +0.021 C 
ATOM     14  C   LIG    1      -19.741  77.055  30.868  0.00  0.00    +0.029 C 
BRANCH  10  16
ATOM     15  C   LIG    1      -21.643  77.648  34.002  0.00  0.00    +0.220 A 
ATOM     16  C   LIG    1      -21.072  76.877  32.984  0.00  0.00    +0.037 A 
ATOM     17  C   LIG    1      -20.397  75.715  33.394  0.00  0.00    +0.050 A 
ATOM     18  C   LIG    1      -20.388  75.338  34.727  0.00  0.00    +0.142 A 
ATOM     19  F   LIG    1      -19.747  74.229  35.112  0.00  0.00    -0.204 F 
ATOM     20  C   LIG    1      -21.041  76.130  35.642  0.00  0.00    +0.153 A 
ATOM     21  N   LIG    1      -21.664  77.279  35.308  0.00  0.00    -0.218 NA
BRANCH  15  23
ATOM     22  C   LIG    1      -23.509  79.066  34.071  0.00  0.00    +0.279 C 
ATOM     23  O   LIG    1      -22.144  78.894  33.679  0.00  0.00    -0.479 OA
ENDBRANCH  15  23
ENDBRANCH  10  16
ENDBRANCH   1  11
BRANCH   4  24
ATOM     24  C   LIG    1      -26.433  73.575  32.216  0.00  0.00    +0.249 C 
ATOM     25  N   LIG    1      -25.840  72.800  31.251  0.00  0.00    -0.311 N 
ATOM     26  H   LIG    1      -25.358  73.286  30.497  0.00  0.00    +0.149 HD
ATOM     27  O   LIG    1      -26.955  73.121  33.233  0.00  0.00    -0.270 OA
BRANCH  25  28
ATOM     28  C   LIG    1      -25.736  71.367  31.375  0.00  0.00    +0.106 C 
BRANCH  28  29
ATOM     29  C   LIG    1      -26.808  70.662  30.548  0.00  0.00    +0.037 C 
BRANCH  29  30
ATOM     30  C   LIG    1      -26.284  69.363  29.953  0.00  0.00    +0.109 C 
BRANCH  30  31
ATOM     31  N   LIG    1      -26.111  69.490  28.528  0.00  0.00    -0.281 N 
ATOM     32  H   LIG    1      -26.854  69.212  27.899  0.00  0.00    +0.152 HD
ATOM     33  C   LIG    1      -24.930  69.724  27.869  0.00  0.00    +0.401 C 
ATOM     34  O   LIG    1      -24.873  69.712  26.660  0.00  0.00    -0.226 OA
BRANCH  33  35
ATOM     35  O   LIG    1      -23.885  69.866  28.733  0.00  0.00    -0.445 OA
BRANCH  35  36
ATOM     36  C   LIG    1      -22.918  68.794  28.837  0.00  0.00    +0.107 C 
ATOM     37  C   LIG    1      -22.424  68.685  30.284  0.00  0.00    +0.055 C 
ATOM     38  C   LIG    1      -21.726  69.234  27.966  0.00  0.00    +0.055 C 
ATOM     39  C   LIG    1      -23.462  67.465  28.309  0.00  0.00    +0.055 C 
ENDBRANCH  35  36
ENDBRANCH  33  35
ENDBRANCH  30  31
ENDBRANCH  29  30
ENDBRANCH  28  29
ENDBRANCH  25  28
ENDBRANCH   4  24
TORSDOF 10
ENDMDL
MODEL 5
REMARK VINA RESULT:      -4.9     19.226     21.931
REMARK  Name = pdb/CHEMBL3676015.pdb
REMARK                            x       y       z     vdW  Elec       q    Type
REMARK                         _______ _______ _______ _____ _____    ______ ____
ROOT
ATOM      1  C   LIG    1      -23.127  76.967  31.594  0.00  0.00    +0.126 A 
ATOM      2  N   LIG    1      -22.205  77.558  32.318  0.00  0.00    -0.212 NA
ATOM      3  C   LIG    1      -20.926  77.585  31.810  0.00  0.00    +0.170 A 
ATOM      4  C   LIG    1      -19.725  78.034  32.334  0.00  0.00    +0.100 A 
ATOM      5  C   LIG    1      -18.761  77.702  31.362  0.00  0.00    +0.150 A 
ATOM      6  N   LIG    1      -19.288  77.138  30.276  0.00  0.00    -0.173 NA
ATOM      7  N   LIG    1      -20.610  77.052  30.556  0.00  0.00    -0.221 N 
ATOM      8  C   LIG    1      -21.598  76.505  29.759  0.00  0.00    +0.118 A 
ATOM      9  C   LIG    1      -22.853  76.432  30.210  0.00  0.00    +0.063 A 
ENDROOT
BRANCH   1  11
ATOM     10  C   LIG    1      -24.882  75.379  32.441  0.00  0.00    +0.110 C 
ATOM     11  N   LIG    1      -24.399  76.737  32.099  0.00  0.00    -0.308 N 
ATOM     12  C   LIG    1      -25.499  77.493  31.472  0.00  0.00    +0.107 C 
ATOM     13  C   LIG    1      -26.742  76.623  31.588  0.00  0.00    +0.021 C 
ATOM     14  C   LIG    1      -26.386  75.605  32.655  0.00  0.00    +0.029 C 
BRANCH  10  16
ATOM     15  C   LIG    1      -23.091  74.032  33.664  0.00  0.00    +0.220 A 
ATOM     16  C   LIG    1      -24.246  74.820  33.697  0.00  0.00    +0.037 A 
ATOM     17  C   LIG    1      -24.833  75.004  34.960  0.00  0.00    +0.050 A 
ATOM     18  C   LIG    1      -24.229  74.496  36.099  0.00  0.00    +0.142 A 
ATOM     19  F   LIG    1      -24.790  74.677  37.299  0.00  0.00    -0.204 F 
ATOM     20  C   LIG    1      -23.054  73.794  35.966  0.00  0.00    +0.153 A 
ATOM     21  N   LIG    1      -22.475  73.548  34.772  0.00  0.00    -0.218 NA
BRANCH  15  23
ATOM     22  C   LIG    1      -21.168  73.798  32.343  0.00  0.00    +0.279 C 
ATOM     23  O   LIG    1      -22.589  73.656  32.434  0.00  0.00    -0.479 OA
ENDBRANCH  15  23
ENDBRANCH  10  16
ENDBRANCH   1  11
BRANCH   4  24
ATOM     24  C   LIG    1      -19.489  78.707  33.587  0.00  0.00    +0.249 C 
ATOM     25  N   LIG    1      -20.598  79.329  34.105  0.00  0.00    -0.311 N 
ATOM     26  H   LIG    1      -21.492  79.130  33.659  0.00  0.00    +0.149 HD
ATOM     27  O   LIG    1      -18.370  78.775  34.091  0.00  0.00    -0.270 OA
BRANCH  25  28
ATOM     28  C   LIG    1      -20.550  80.089  35.329  0.00  0.00    +0.106 C 
BRANCH  28  29
ATOM     29  C   LIG    1      -21.319  81.401  35.196  0.00  0.00    +0.037 C 
BRANCH  29  30
ATOM     30  C   LIG    1      -21.975  81.796  36.510  0.00  0.00    +0.109 C 
BRANCH  30  31
ATOM     31  N   LIG    1      -23.360  82.134  36.305  0.00  0.00    -0.281 N 
ATOM     32  H   LIG    1      -23.630  83.095  36.138  0.00  0.00    +0.152 HD
ATOM     33  C   LIG    1      -24.441  81.325  36.557  0.00  0.00    +0.401 C 
ATOM     34  O   LIG    1      -25.574  81.739  36.448  0.00  0.00    -0.226 OA
BRANCH  33  35
ATOM     35  O   LIG    1      -24.063  80.097  37.010  0.00  0.00    -0.445 OA
BRANCH  35  36
ATOM     36  C   LIG    1      -24.350  78.935  36.193  0.00  0.00    +0.107 C 
ATOM     37  C   LIG    1      -25.659  78.289  36.660  0.00  0.00    +0.055 C 
ATOM     38  C   LIG    1      -23.207  77.944  36.480  0.00  0.00    +0.055 C 
ATOM     39  C   LIG    1      -24.366  79.265  34.698  0.00  0.00    +0.055 C 
ENDBRANCH  35  36
ENDBRANCH  33  35
ENDBRANCH  30  31
ENDBRANCH  29  30
ENDBRANCH  28  29
ENDBRANCH  25  28
ENDBRANCH   4  24
TORSDOF 10
ENDMDL
MODEL 6
REMARK VINA RESULT:      -4.8      8.682     11.955
REMARK  Name = pdb/CHEMBL3676015.pdb
REMARK                            x       y       z     vdW  Elec       q    Type
REMARK                         _______ _______ _______ _____ _____    ______ ____
ROOT
ATOM      1  C   LIG    1      -38.258  71.379  24.484  0.00  0.00    +0.126 A 
ATOM      2  N   LIG    1      -37.902  72.622  24.711  0.00  0.00    -0.212 NA
ATOM      3  C   LIG    1      -38.855  73.596  24.515  0.00  0.00    +0.170 A 
ATOM      4  C   LIG    1      -38.800  74.979  24.573  0.00  0.00    +0.100 A 
ATOM      5  C   LIG    1      -40.084  75.408  24.186  0.00  0.00    +0.150 A 
ATOM      6  N   LIG    1      -40.922  74.399  23.950  0.00  0.00    -0.173 NA
ATOM      7  N   LIG    1      -40.166  73.291  24.136  0.00  0.00    -0.221 N 
ATOM      8  C   LIG    1      -40.562  71.975  23.980  0.00  0.00    +0.118 A 
ATOM      9  C   LIG    1      -39.673  70.990  24.134  0.00  0.00    +0.063 A 
ENDROOT
BRANCH   1  11
ATOM     10  C   LIG    1      -37.710  68.928  24.376  0.00  0.00    +0.110 C 
ATOM     11  N   LIG    1      -37.323  70.354  24.484  0.00  0.00    -0.308 N 
ATOM     12  C   LIG    1      -36.216  70.478  25.450  0.00  0.00    +0.107 C 
ATOM     13  C   LIG    1      -35.803  69.059  25.817  0.00  0.00    +0.021 C 
ATOM     14  C   LIG    1      -36.402  68.201  24.721  0.00  0.00    +0.029 C 
BRANCH  10  16
ATOM     15  C   LIG    1      -39.282  67.707  22.778  0.00  0.00    +0.220 A 
ATOM     16  C   LIG    1      -38.181  68.543  22.989  0.00  0.00    +0.037 A 
ATOM     17  C   LIG    1      -37.484  68.949  21.839  0.00  0.00    +0.050 A 
ATOM     18  C   LIG    1      -37.938  68.597  20.578  0.00  0.00    +0.142 A 
ATOM     19  F   LIG    1      -37.273  68.989  19.486  0.00  0.00    -0.204 F 
ATOM     20  C   LIG    1      -39.074  67.829  20.476  0.00  0.00    +0.153 A 
ATOM     21  N   LIG    1      -39.753  67.373  21.549  0.00  0.00    -0.218 NA
BRANCH  15  23
ATOM     22  C   LIG    1      -39.636  65.713  23.960  0.00  0.00    +0.279 C 
ATOM     23  O   LIG    1      -39.881  67.120  23.875  0.00  0.00    -0.479 OA
ENDBRANCH  15  23
ENDBRANCH  10  16
ENDBRANCH   1  11
BRANCH   4  24
ATOM     24  C   LIG    1      -37.689  75.817  24.955  0.00  0.00    +0.249 C 
ATOM     25  N   LIG    1      -37.101  75.458  26.142  0.00  0.00    -0.311 N 
ATOM     26  H   LIG    1      -37.384  74.569  26.550  0.00  0.00    +0.149 HD
ATOM     27  O   LIG    1      -37.366  76.808  24.303  0.00  0.00    -0.270 OA
BRANCH  25  28
ATOM     28  C   LIG    1      -36.004  76.202  26.710  0.00  0.00    +0.106 C 
BRANCH  28  29
ATOM     29  C   LIG    1      -36.505  77.312  27.629  0.00  0.00    +0.037 C 
BRANCH  29  30
ATOM     30  C   LIG    1      -35.360  78.182  28.124  0.00  0.00    +0.109 C 
BRANCH  30  31
ATOM     31  N   LIG    1      -34.212  78.049  27.263  0.00  0.00    -0.281 N 
ATOM     32  H   LIG    1      -34.331  78.013  26.259  0.00  0.00    +0.152 HD
ATOM     33  C   LIG    1      -32.940  77.706  27.650  0.00  0.00    +0.401 C 
ATOM     34  O   LIG    1      -32.064  77.521  26.835  0.00  0.00    -0.226 OA
BRANCH  33  35
ATOM     35  O   LIG    1      -32.849  77.528  28.998  0.00  0.00    -0.445 OA
BRANCH  35  36
ATOM     36  C   LIG    1      -32.583  76.199  29.508  0.00  0.00    +0.107 C 
ATOM     37  C   LIG    1      -33.097  76.087  30.947  0.00  0.00    +0.055 C 
ATOM     38  C   LIG    1      -31.048  76.077  29.546  0.00  0.00    +0.055 C 
ATOM     39  C   LIG    1      -33.152  75.104  28.602  0.00  0.00    +0.055 C 
ENDBRANCH  35  36
ENDBRANCH  33  35
ENDBRANCH  30  31
ENDBRANCH  29  30
ENDBRANCH  28  29
ENDBRANCH  25  28
ENDBRANCH   4  24
TORSDOF 10
ENDMDL
MODEL 7
REMARK VINA RESULT:      -4.8     16.244     19.097
REMARK  Name = pdb/CHEMBL3676015.pdb
REMARK                            x       y       z     vdW  Elec       q    Type
REMARK                         _______ _______ _______ _____ _____    ______ ____
ROOT
ATOM      1  C   LIG    1      -24.165  73.292  32.085  0.00  0.00    +0.126 A 
ATOM      2  N   LIG    1      -23.409  74.204  31.520  0.00  0.00    -0.212 NA
ATOM      3  C   LIG    1      -24.029  75.353  31.082  0.00  0.00    +0.170 A 
ATOM      4  C   LIG    1      -23.563  76.453  30.381  0.00  0.00    +0.100 A 
ATOM      5  C   LIG    1      -24.704  77.248  30.158  0.00  0.00    +0.150 A 
ATOM      6  N   LIG    1      -25.807  76.744  30.711  0.00  0.00    -0.173 NA
ATOM      7  N   LIG    1      -25.397  75.578  31.262  0.00  0.00    -0.221 N 
ATOM      8  C   LIG    1      -26.176  74.652  31.932  0.00  0.00    +0.118 A 
ATOM      9  C   LIG    1      -25.633  73.509  32.360  0.00  0.00    +0.063 A 
ENDROOT
BRANCH   1  11
ATOM     10  C   LIG    1      -24.449  70.797  32.199  0.00  0.00    +0.110 C 
ATOM     11  N   LIG    1      -23.663  72.037  32.397  0.00  0.00    -0.308 N 
ATOM     12  C   LIG    1      -22.909  71.929  33.660  0.00  0.00    +0.107 C 
ATOM     13  C   LIG    1      -23.112  70.507  34.164  0.00  0.00    +0.021 C 
ATOM     14  C   LIG    1      -23.613  69.749  32.951  0.00  0.00    +0.029 C 
BRANCH  10  16
ATOM     15  C   LIG    1      -25.840  70.154  30.157  0.00  0.00    +0.220 A 
ATOM     16  C   LIG    1      -24.596  70.412  30.742  0.00  0.00    +0.037 A 
ATOM     17  C   LIG    1      -23.474  70.221  29.917  0.00  0.00    +0.050 A 
ATOM     18  C   LIG    1      -23.629  69.881  28.584  0.00  0.00    +0.142 A 
ATOM     19  F   LIG    1      -22.558  69.704  27.802  0.00  0.00    -0.204 F 
ATOM     20  C   LIG    1      -24.901  69.719  28.087  0.00  0.00    +0.153 A 
ATOM     21  N   LIG    1      -26.009  69.844  28.847  0.00  0.00    -0.218 NA
BRANCH  15  23
ATOM     22  C   LIG    1      -27.648  68.882  30.939  0.00  0.00    +0.279 C 
ATOM     23  O   LIG    1      -26.955  70.133  30.971  0.00  0.00    -0.479 OA
ENDBRANCH  15  23
ENDBRANCH  10  16
ENDBRANCH   1  11
BRANCH   4  24
ATOM     24  C   LIG    1      -22.213  76.749  29.970  0.00  0.00    +0.249 C 
ATOM     25  N   LIG    1      -21.507  77.504  30.872  0.00  0.00    -0.311 N 
ATOM     26  H   LIG    1      -21.927  77.645  31.789  0.00  0.00    +0.149 HD
ATOM     27  O   LIG    1      -21.778  76.414  28.869  0.00  0.00    -0.270 OA
BRANCH  25  28
ATOM     28  C   LIG    1      -20.154  77.936  30.619  0.00  0.00    +0.106 C 
BRANCH  28  29
ATOM     29  C   LIG    1      -19.391  78.156  31.922  0.00  0.00    +0.037 C 
BRANCH  29  30
ATOM     30  C   LIG    1      -20.275  77.898  33.133  0.00  0.00    +0.109 C 
BRANCH  30  31
ATOM     31  N   LIG    1      -20.615  79.137  33.787  0.00  0.00    -0.281 N 
ATOM     32  H   LIG    1      -20.016  79.947  33.684  0.00  0.00    +0.152 HD
ATOM     33  C   LIG    1      -21.557  79.306  34.771  0.00  0.00    +0.401 C 
ATOM     34  O   LIG    1      -21.697  80.371  35.329  0.00  0.00    -0.226 OA
BRANCH  33  35
ATOM     35  O   LIG    1      -22.200  78.142  35.065  0.00  0.00    -0.445 OA
BRANCH  35  36
ATOM     36  C   LIG    1      -23.594  78.005  34.697  0.00  0.00    +0.107 C 
ATOM     37  C   LIG    1      -23.881  78.842  33.445  0.00  0.00    +0.055 C 
ATOM     38  C   LIG    1      -24.386  78.620  35.865  0.00  0.00    +0.055 C 
ATOM     39  C   LIG    1      -24.009  76.542  34.523  0.00  0.00    +0.055 C 
ENDBRANCH  35  36
ENDBRANCH  33  35
ENDBRANCH  30  31
ENDBRANCH  29  30
ENDBRANCH  28  29
ENDBRANCH  25  28
ENDBRANCH   4  24
TORSDOF 10
ENDMDL
MODEL 8
REMARK VINA RESULT:      -4.8      8.390     12.112
REMARK  Name = pdb/CHEMBL3676015.pdb
REMARK                            x       y       z     vdW  Elec       q    Type
REMARK                         _______ _______ _______ _____ _____    ______ ____
ROOT
ATOM      1  C   LIG    1      -38.292  70.016  23.460  0.00  0.00    +0.126 A 
ATOM      2  N   LIG    1      -37.525  70.113  24.522  0.00  0.00    -0.212 NA
ATOM      3  C   LIG    1      -36.379  69.350  24.543  0.00  0.00    +0.170 A 
ATOM      4  C   LIG    1      -35.414  69.145  25.516  0.00  0.00    +0.100 A 
ATOM      5  C   LIG    1      -34.543  68.186  24.963  0.00  0.00    +0.150 A 
ATOM      6  N   LIG    1      -34.873  67.836  23.721  0.00  0.00    -0.173 NA
ATOM      7  N   LIG    1      -36.005  68.536  23.469  0.00  0.00    -0.221 N 
ATOM      8  C   LIG    1      -36.769  68.501  22.318  0.00  0.00    +0.118 A 
ATOM      9  C   LIG    1      -37.904  69.202  22.250  0.00  0.00    +0.063 A 
ENDROOT
BRANCH   1  11
ATOM     10  C   LIG    1      -40.159  71.237  24.618  0.00  0.00    +0.110 C 
ATOM     11  N   LIG    1      -39.546  70.608  23.425  0.00  0.00    -0.308 N 
ATOM     12  C   LIG    1      -40.590  69.884  22.676  0.00  0.00    +0.107 C 
ATOM     13  C   LIG    1      -41.915  70.224  23.344  0.00  0.00    +0.021 C 
ATOM     14  C   LIG    1      -41.611  71.460  24.168  0.00  0.00    +0.029 C 
BRANCH  10  16
ATOM     15  C   LIG    1      -38.740  72.706  26.149  0.00  0.00    +0.220 A 
ATOM     16  C   LIG    1      -39.512  72.554  24.993  0.00  0.00    +0.037 A 
ATOM     17  C   LIG    1      -39.720  73.717  24.232  0.00  0.00    +0.050 A 
ATOM     18  C   LIG    1      -39.110  74.909  24.585  0.00  0.00    +0.142 A 
ATOM     19  F   LIG    1      -39.308  76.012  23.855  0.00  0.00    -0.204 F 
ATOM     20  C   LIG    1      -38.310  74.936  25.703  0.00  0.00    +0.153 A 
ATOM     21  N   LIG    1      -38.116  73.861  26.495  0.00  0.00    -0.218 NA
BRANCH  15  23
ATOM     22  C   LIG    1      -39.129  71.986  28.347  0.00  0.00    +0.279 C 
ATOM     23  O   LIG    1      -38.669  71.648  27.034  0.00  0.00    -0.479 OA
ENDBRANCH  15  23
ENDBRANCH  10  16
ENDBRANCH   1  11
BRANCH   4  24
ATOM     24  C   LIG    1      -35.298  69.771  26.810  0.00  0.00    +0.249 C 
ATOM     25  N   LIG    1      -35.499  71.129  26.793  0.00  0.00    -0.311 N 
ATOM     26  H   LIG    1      -35.860  71.534  25.932  0.00  0.00    +0.149 HD
ATOM     27  O   LIG    1      -34.968  69.141  27.812  0.00  0.00    -0.270 OA
BRANCH  25  28
ATOM     28  C   LIG    1      -35.383  71.936  27.983  0.00  0.00    +0.106 C 
BRANCH  28  29
ATOM     29  C   LIG    1      -34.094  72.753  27.972  0.00  0.00    +0.037 C 
BRANCH  29  30
ATOM     30  C   LIG    1      -34.333  74.172  28.466  0.00  0.00    +0.109 C 
BRANCH  30  31
ATOM     31  N   LIG    1      -35.092  74.925  27.499  0.00  0.00    -0.281 N 
ATOM     32  H   LIG    1      -35.507  74.458  26.702  0.00  0.00    +0.152 HD
ATOM     33  C   LIG    1      -35.129  76.292  27.380  0.00  0.00    +0.401 C 
ATOM     34  O   LIG    1      -35.719  76.827  26.468  0.00  0.00    -0.226 OA
BRANCH  33  35
ATOM     35  O   LIG    1      -34.369  76.907  28.330  0.00  0.00    -0.445 OA
BRANCH  35  36
ATOM     36  C   LIG    1      -33.099  77.483  27.940  0.00  0.00    +0.107 C 
ATOM     37  C   LIG    1      -32.006  77.025  28.913  0.00  0.00    +0.055 C 
ATOM     38  C   LIG    1      -33.273  79.003  28.109  0.00  0.00    +0.055 C 
ATOM     39  C   LIG    1      -32.744  77.176  26.483  0.00  0.00    +0.055 C 
ENDBRANCH  35  36
ENDBRANCH  33  35
ENDBRANCH  30  31
ENDBRANCH  29  30
ENDBRANCH  28  29
ENDBRANCH  25  28
ENDBRANCH   4  24
TORSDOF 10
ENDMDL
MODEL 9
REMARK VINA RESULT:      -4.7     11.868     15.089
REMARK  Name = pdb/CHEMBL3676015.pdb
REMARK                            x       y       z     vdW  Elec       q    Type
REMARK                         _______ _______ _______ _____ _____    ______ ____
ROOT
ATOM      1  C   LIG    1      -39.497  76.632  24.717  0.00  0.00    +0.126 A 
ATOM      2  N   LIG    1      -38.984  77.268  25.745  0.00  0.00    -0.212 NA
ATOM      3  C   LIG    1      -39.105  78.640  25.762  0.00  0.00    +0.170 A 
ATOM      4  C   LIG    1      -38.617  79.607  26.625  0.00  0.00    +0.100 A 
ATOM      5  C   LIG    1      -39.009  80.832  26.051  0.00  0.00    +0.150 A 
ATOM      6  N   LIG    1      -39.736  80.682  24.945  0.00  0.00    -0.173 NA
ATOM      7  N   LIG    1      -39.782  79.341  24.759  0.00  0.00    -0.221 N 
ATOM      8  C   LIG    1      -40.393  78.663  23.721  0.00  0.00    +0.118 A 
ATOM      9  C   LIG    1      -40.289  77.334  23.642  0.00  0.00    +0.063 A 
ENDROOT
BRANCH   1  11
ATOM     10  C   LIG    1      -40.199  74.240  25.037  0.00  0.00    +0.110 C 
ATOM     11  N   LIG    1      -39.272  75.277  24.527  0.00  0.00    -0.308 N 
ATOM     12  C   LIG    1      -37.885  74.812  24.713  0.00  0.00    +0.107 C 
ATOM     13  C   LIG    1      -37.974  73.372  25.199  0.00  0.00    +0.021 C 
ATOM     14  C   LIG    1      -39.388  72.949  24.854  0.00  0.00    +0.029 C 
BRANCH  10  16
ATOM     15  C   LIG    1      -42.660  74.818  24.679  0.00  0.00    +0.220 A 
ATOM     16  C   LIG    1      -41.496  74.167  24.257  0.00  0.00    +0.037 A 
ATOM     17  C   LIG    1      -41.614  73.375  23.103  0.00  0.00    +0.050 A 
ATOM     18  C   LIG    1      -42.805  73.331  22.397  0.00  0.00    +0.142 A 
ATOM     19  F   LIG    1      -42.911  72.578  21.297  0.00  0.00    -0.204 F 
ATOM     20  C   LIG    1      -43.873  74.066  22.857  0.00  0.00    +0.153 A 
ATOM     21  N   LIG    1      -43.826  74.804  23.985  0.00  0.00    -0.218 NA
BRANCH  15  23
ATOM     22  C   LIG    1      -43.479  74.791  26.876  0.00  0.00    +0.279 C 
ATOM     23  O   LIG    1      -42.652  75.446  25.909  0.00  0.00    -0.479 OA
ENDBRANCH  15  23
ENDBRANCH  10  16
ENDBRANCH   1  11
BRANCH   4  24
ATOM     24  C   LIG    1      -37.879  79.426  27.850  0.00  0.00    +0.249 C 
ATOM     25  N   LIG    1      -36.521  79.326  27.676  0.00  0.00    -0.311 N 
ATOM     26  H   LIG    1      -36.155  79.544  26.751  0.00  0.00    +0.149 HD
ATOM     27  O   LIG    1      -38.441  79.294  28.936  0.00  0.00    -0.270 OA
BRANCH  25  28
ATOM     28  C   LIG    1      -35.621  79.100  28.779  0.00  0.00    +0.106 C 
BRANCH  28  29
ATOM     29  C   LIG    1      -34.301  79.840  28.576  0.00  0.00    +0.037 C 
BRANCH  29  30
ATOM     30  C   LIG    1      -33.387  79.090  27.618  0.00  0.00    +0.109 C 
BRANCH  30  31
ATOM     31  N   LIG    1      -32.400  78.333  28.346  0.00  0.00    -0.281 N 
ATOM     32  H   LIG    1      -31.610  78.803  28.771  0.00  0.00    +0.152 HD
ATOM     33  C   LIG    1      -32.252  76.969  28.336  0.00  0.00    +0.401 C 
ATOM     34  O   LIG    1      -31.325  76.434  28.903  0.00  0.00    -0.226 OA
BRANCH  33  35
ATOM     35  O   LIG    1      -33.194  76.360  27.562  0.00  0.00    -0.445 OA
BRANCH  35  36
ATOM     36  C   LIG    1      -34.158  75.486  28.198  0.00  0.00    +0.107 C 
ATOM     37  C   LIG    1      -33.758  74.024  27.970  0.00  0.00    +0.055 C 
ATOM     38  C   LIG    1      -35.483  75.733  27.453  0.00  0.00    +0.055 C 
ATOM     39  C   LIG    1      -34.348  75.811  29.682  0.00  0.00    +0.055 C 
ENDBRANCH  35  36
ENDBRANCH  33  35
ENDBRANCH  30  31
ENDBRANCH  29  30
ENDBRANCH  28  29
ENDBRANCH  25  28
ENDBRANCH   4  24
TORSDOF 10
ENDMDL
