MODEL 1
REMARK VINA RESULT:      -7.0      0.000      0.000
REMARK  Name = pdb/CHEMBL3910605.pdb
REMARK                            x       y       z     vdW  Elec       q    Type
REMARK                         _______ _______ _______ _____ _____    ______ ____
ROOT
ATOM      1  C   LIG    1      -22.094  82.618  15.594  0.00  0.00    +0.149 A 
ATOM      2  N   LIG    1      -20.829  82.180  15.557  0.00  0.00    -0.160 NA
ATOM      3  N   LIG    1      -20.906  80.819  15.594  0.00  0.00    -0.218 N 
ATOM      4  C   LIG    1      -22.240  80.377  15.578  0.00  0.00    +0.129 A 
ATOM      5  C   LIG    1      -22.991  81.528  15.667  0.00  0.00    +0.078 A 
ENDROOT
BRANCH   3   6
ATOM      6  C   LIG    1      -19.698  80.065  15.706  0.00  0.00    +0.067 A 
ATOM      7  C   LIG    1      -19.641  78.827  16.350  0.00  0.00    +0.028 A 
ATOM      8  C   LIG    1      -18.415  78.174  16.518  0.00  0.00    +0.002 A 
ATOM      9  C   LIG    1      -17.245  78.735  16.013  0.00  0.00    +0.000 A 
ATOM     10  C   LIG    1      -17.297  79.942  15.323  0.00  0.00    +0.002 A 
ATOM     11  C   LIG    1      -18.517  80.603  15.161  0.00  0.00    +0.028 A 
ENDBRANCH   3   6
BRANCH   4  12
ATOM     12  N   LIG    1      -22.750  79.068  15.563  0.00  0.00    -0.266 N 
ATOM     13  H   LIG    1      -23.177  78.711  16.404  0.00  0.00    +0.157 HD
ATOM     14  C   LIG    1      -22.724  78.201  14.416  0.00  0.00    +0.251 C 
ATOM     15  O   LIG    1      -22.308  78.599  13.331  0.00  0.00    -0.270 OA
BRANCH  14  16
ATOM     16  C   LIG    1      -23.142  76.786  14.564  0.00  0.00    +0.056 A 
ATOM     17  C   LIG    1      -24.216  76.208  13.895  0.00  0.00    +0.054 A 
ATOM     18 CL   LIG    1      -25.214  77.066  12.781  0.00  0.00    -0.083 Cl
ATOM     19  C   LIG    1      -24.487  74.851  14.077  0.00  0.00    +0.041 A 
ATOM     20  C   LIG    1      -23.688  74.047  14.913  0.00  0.00    +0.052 A 
ATOM     21 CL   LIG    1      -24.083  72.363  14.885  0.00  0.00    -0.083 Cl
ATOM     22  C   LIG    1      -22.604  74.593  15.627  0.00  0.00    +0.022 A 
ATOM     23  C   LIG    1      -22.358  75.975  15.417  0.00  0.00    +0.026 A 
BRANCH  22  24
ATOM     24  C   LIG    1      -21.673  73.839  16.513  0.00  0.00    +0.107 A 
ATOM     25  C   LIG    1      -21.935  73.455  17.830  0.00  0.00    +0.149 A 
ATOM     26  F   LIG    1      -23.056  73.819  18.466  0.00  0.00    -0.203 F 
ATOM     27  C   LIG    1      -20.993  72.721  18.548  0.00  0.00    +0.042 A 
ATOM     28  C   LIG    1      -19.768  72.429  17.964  0.00  0.00    +0.023 A 
ATOM     29  C   LIG    1      -19.543  72.886  16.679  0.00  0.00    +0.111 A 
ATOM     30  N   LIG    1      -20.458  73.567  15.948  0.00  0.00    -0.252 NA
ENDBRANCH  22  24
ENDBRANCH  14  16
ENDBRANCH   4  12
BRANCH   1  32
ATOM     31  N   LIG    1      -22.241  84.713  14.513  0.00  0.00    -0.243 NA
ATOM     32  C   LIG    1      -22.482  84.031  15.571  0.00  0.00    +0.236 C 
BRANCH  31  34
ATOM     33  C   LIG    1      -21.673  87.091  14.915  0.00  0.00    +0.165 C 
ATOM     34  C   LIG    1      -22.703  86.096  14.354  0.00  0.00    +0.142 C 
ATOM     35  C   LIG    1      -22.919  86.310  12.854  0.00  0.00    +0.057 C 
ATOM     36  C   LIG    1      -23.173  87.773  12.537  0.00  0.00    +0.162 C 
ATOM     37  O   LIG    1      -22.087  88.571  13.003  0.00  0.00    -0.377 OA
ATOM     38  C   LIG    1      -21.961  88.513  14.420  0.00  0.00    +0.193 C 
BRANCH  33  39
ATOM     39  O   LIG    1      -21.736  87.045  16.349  0.00  0.00    -0.387 OA
ATOM     40  H   LIG    1      -21.364  86.182  16.615  0.00  0.00    +0.210 HD
ENDBRANCH  33  39
ENDBRANCH  31  34
BRANCH  32  41
ATOM     41  O   LIG    1      -23.061  84.520  16.684  0.00  0.00    -0.491 OA
ATOM     42  H   LIG    1      -22.941  83.897  17.424  0.00  0.00    +0.294 HD
ENDBRANCH  32  41
ENDBRANCH   1  32
TORSDOF 8
ENDMDL
MODEL 2
REMARK VINA RESULT:      -7.0     18.240     19.208
REMARK  Name = pdb/CHEMBL3910605.pdb
REMARK                            x       y       z     vdW  Elec       q    Type
REMARK                         _______ _______ _______ _____ _____    ______ ____
ROOT
ATOM      1  C   LIG    1      -34.828  78.002  27.699  0.00  0.00    +0.149 A 
ATOM      2  N   LIG    1      -34.000  77.014  28.062  0.00  0.00    -0.160 NA
ATOM      3  N   LIG    1      -34.661  75.855  27.786  0.00  0.00    -0.218 N 
ATOM      4  C   LIG    1      -35.898  76.101  27.167  0.00  0.00    +0.129 A 
ATOM      5  C   LIG    1      -36.036  77.471  27.194  0.00  0.00    +0.078 A 
ENDROOT
BRANCH   3   6
ATOM      6  C   LIG    1      -34.079  74.617  28.196  0.00  0.00    +0.067 A 
ATOM      7  C   LIG    1      -34.672  73.381  27.928  0.00  0.00    +0.028 A 
ATOM      8  C   LIG    1      -34.112  72.204  28.436  0.00  0.00    +0.002 A 
ATOM      9  C   LIG    1      -32.938  72.249  29.183  0.00  0.00    +0.000 A 
ATOM     10  C   LIG    1      -32.308  73.468  29.411  0.00  0.00    +0.002 A 
ATOM     11  C   LIG    1      -32.869  74.648  28.915  0.00  0.00    +0.028 A 
ENDBRANCH   3   6
BRANCH   4  12
ATOM     12  N   LIG    1      -36.857  75.193  26.687  0.00  0.00    -0.266 N 
ATOM     13  H   LIG    1      -37.162  74.451  27.298  0.00  0.00    +0.157 HD
ATOM     14  C   LIG    1      -37.455  75.260  25.380  0.00  0.00    +0.251 C 
ATOM     15  O   LIG    1      -37.206  76.190  24.618  0.00  0.00    -0.270 OA
BRANCH  14  16
ATOM     16  C   LIG    1      -38.331  74.155  24.924  0.00  0.00    +0.056 A 
ATOM     17  C   LIG    1      -39.576  74.332  24.329  0.00  0.00    +0.054 A 
ATOM     18 CL   LIG    1      -40.274  75.879  24.027  0.00  0.00    -0.083 Cl
ATOM     19  C   LIG    1      -40.293  73.215  23.894  0.00  0.00    +0.041 A 
ATOM     20  C   LIG    1      -39.778  71.912  24.032  0.00  0.00    +0.052 A 
ATOM     21 CL   LIG    1      -40.738  70.677  23.292  0.00  0.00    -0.083 Cl
ATOM     22  C   LIG    1      -38.532  71.683  24.648  0.00  0.00    +0.022 A 
ATOM     23  C   LIG    1      -37.833  72.841  25.076  0.00  0.00    +0.026 A 
BRANCH  22  24
ATOM     24  C   LIG    1      -37.874  70.357  24.822  0.00  0.00    +0.107 A 
ATOM     25  C   LIG    1      -37.296  69.596  23.803  0.00  0.00    +0.149 A 
ATOM     26  F   LIG    1      -37.359  69.964  22.517  0.00  0.00    -0.203 F 
ATOM     27  C   LIG    1      -36.679  68.382  24.099  0.00  0.00    +0.042 A 
ATOM     28  C   LIG    1      -36.700  67.907  25.403  0.00  0.00    +0.023 A 
ATOM     29  C   LIG    1      -37.338  68.676  26.358  0.00  0.00    +0.111 A 
ATOM     30  N   LIG    1      -37.910  69.878  26.101  0.00  0.00    -0.252 NA
ENDBRANCH  22  24
ENDBRANCH  14  16
ENDBRANCH   4  12
BRANCH   1  32
ATOM     31  N   LIG    1      -35.144  80.118  28.701  0.00  0.00    -0.243 NA
ATOM     32  C   LIG    1      -34.518  79.430  27.820  0.00  0.00    +0.236 C 
BRANCH  31  34
ATOM     33  C   LIG    1      -35.721  82.469  28.174  0.00  0.00    +0.165 C 
ATOM     34  C   LIG    1      -34.814  81.520  28.975  0.00  0.00    +0.142 C 
ATOM     35  C   LIG    1      -34.996  81.721  30.482  0.00  0.00    +0.057 C 
ATOM     36  C   LIG    1      -34.911  83.189  30.856  0.00  0.00    +0.162 C 
ATOM     37  O   LIG    1      -35.886  83.937  30.133  0.00  0.00    -0.377 OA
ATOM     38  C   LIG    1      -35.647  83.895  28.729  0.00  0.00    +0.193 C 
BRANCH  33  39
ATOM     39  O   LIG    1      -35.295  82.449  26.803  0.00  0.00    -0.387 OA
ATOM     40  H   LIG    1      -34.530  83.052  26.742  0.00  0.00    +0.210 HD
ENDBRANCH  33  39
ENDBRANCH  31  34
BRANCH  32  41
ATOM     41  O   LIG    1      -33.594  79.924  26.974  0.00  0.00    -0.491 OA
ATOM     42  H   LIG    1      -32.728  79.973  27.417  0.00  0.00    +0.294 HD
ENDBRANCH  32  41
ENDBRANCH   1  32
TORSDOF 8
ENDMDL
MODEL 3
REMARK VINA RESULT:      -7.0     18.296     19.883
REMARK  Name = pdb/CHEMBL3910605.pdb
REMARK                            x       y       z     vdW  Elec       q    Type
REMARK                         _______ _______ _______ _____ _____    ______ ____
ROOT
ATOM      1  C   LIG    1      -31.573  87.099  30.393  0.00  0.00    +0.149 A 
ATOM      2  N   LIG    1      -32.640  87.834  30.052  0.00  0.00    -0.160 NA
ATOM      3  N   LIG    1      -33.537  86.958  29.517  0.00  0.00    -0.218 N 
ATOM      4  C   LIG    1      -33.072  85.635  29.585  0.00  0.00    +0.129 A 
ATOM      5  C   LIG    1      -31.785  85.741  30.064  0.00  0.00    +0.078 A 
ENDROOT
BRANCH   3   6
ATOM      6  C   LIG    1      -34.733  87.474  28.931  0.00  0.00    +0.067 A 
ATOM      7  C   LIG    1      -35.960  86.812  29.021  0.00  0.00    +0.028 A 
ATOM      8  C   LIG    1      -37.082  87.309  28.347  0.00  0.00    +0.002 A 
ATOM      9  C   LIG    1      -36.994  88.486  27.609  0.00  0.00    +0.000 A 
ATOM     10  C   LIG    1      -35.791  89.183  27.555  0.00  0.00    +0.002 A 
ATOM     11  C   LIG    1      -34.665  88.686  28.218  0.00  0.00    +0.028 A 
ENDBRANCH   3   6
BRANCH   4  12
ATOM     12  N   LIG    1      -33.699  84.442  29.189  0.00  0.00    -0.266 N 
ATOM     13  H   LIG    1      -33.754  84.235  28.203  0.00  0.00    +0.157 HD
ATOM     14  C   LIG    1      -34.256  83.477  30.099  0.00  0.00    +0.251 C 
ATOM     15  O   LIG    1      -34.140  83.614  31.314  0.00  0.00    -0.270 OA
BRANCH  14  16
ATOM     16  C   LIG    1      -35.038  82.338  29.562  0.00  0.00    +0.056 A 
ATOM     17  C   LIG    1      -36.427  82.274  29.546  0.00  0.00    +0.054 A 
ATOM     18 CL   LIG    1      -37.443  83.532  30.145  0.00  0.00    -0.083 Cl
ATOM     19  C   LIG    1      -37.056  81.169  28.970  0.00  0.00    +0.041 A 
ATOM     20  C   LIG    1      -36.316  80.120  28.391  0.00  0.00    +0.052 A 
ATOM     21 CL   LIG    1      -37.271  78.921  27.589  0.00  0.00    -0.083 Cl
ATOM     22  C   LIG    1      -34.907  80.131  28.403  0.00  0.00    +0.022 A 
ATOM     23  C   LIG    1      -34.303  81.270  28.997  0.00  0.00    +0.026 A 
BRANCH  22  24
ATOM     24  C   LIG    1      -34.020  79.098  27.798  0.00  0.00    +0.107 A 
ATOM     25  C   LIG    1      -33.976  77.750  28.160  0.00  0.00    +0.149 A 
ATOM     26  F   LIG    1      -34.694  77.265  29.181  0.00  0.00    -0.203 F 
ATOM     27  C   LIG    1      -33.124  76.872  27.494  0.00  0.00    +0.042 A 
ATOM     28  C   LIG    1      -32.275  77.361  26.511  0.00  0.00    +0.023 A 
ATOM     29  C   LIG    1      -32.321  78.715  26.236  0.00  0.00    +0.111 A 
ATOM     30  N   LIG    1      -33.169  79.581  26.843  0.00  0.00    -0.252 NA
ENDBRANCH  22  24
ENDBRANCH  14  16
ENDBRANCH   4  12
BRANCH   1  32
ATOM     31  N   LIG    1      -30.311  87.721  32.291  0.00  0.00    -0.243 NA
ATOM     32  C   LIG    1      -30.359  87.639  31.013  0.00  0.00    +0.236 C 
BRANCH  31  34
ATOM     33  C   LIG    1      -29.292  89.491  33.693  0.00  0.00    +0.165 C 
ATOM     34  C   LIG    1      -29.095  88.132  33.001  0.00  0.00    +0.142 C 
ATOM     35  C   LIG    1      -28.796  87.029  34.021  0.00  0.00    +0.057 C 
ATOM     36  C   LIG    1      -27.696  87.449  34.978  0.00  0.00    +0.162 C 
ATOM     37  O   LIG    1      -28.058  88.657  35.642  0.00  0.00    -0.377 OA
ATOM     38  C   LIG    1      -28.190  89.742  34.729  0.00  0.00    +0.193 C 
BRANCH  33  39
ATOM     39  O   LIG    1      -29.268  90.517  32.688  0.00  0.00    -0.387 OA
ATOM     40  H   LIG    1      -30.120  90.461  32.216  0.00  0.00    +0.210 HD
ENDBRANCH  33  39
ENDBRANCH  31  34
BRANCH  32  41
ATOM     41  O   LIG    1      -29.374  88.026  30.181  0.00  0.00    -0.491 OA
ATOM     42  H   LIG    1      -29.043  88.905  30.442  0.00  0.00    +0.294 HD
ENDBRANCH  32  41
ENDBRANCH   1  32
TORSDOF 8
ENDMDL
MODEL 4
REMARK VINA RESULT:      -6.9      2.472      4.048
REMARK  Name = pdb/CHEMBL3910605.pdb
REMARK                            x       y       z     vdW  Elec       q    Type
REMARK                         _______ _______ _______ _____ _____    ______ ____
ROOT
ATOM      1  C   LIG    1      -22.748  82.990  15.199  0.00  0.00    +0.149 A 
ATOM      2  N   LIG    1      -23.900  82.457  14.774  0.00  0.00    -0.160 NA
ATOM      3  N   LIG    1      -23.751  81.107  14.895  0.00  0.00    -0.218 N 
ATOM      4  C   LIG    1      -22.517  80.773  15.476  0.00  0.00    +0.129 A 
ATOM      5  C   LIG    1      -21.847  81.972  15.587  0.00  0.00    +0.078 A 
ENDROOT
BRANCH   3   6
ATOM      6  C   LIG    1      -24.778  80.255  14.385  0.00  0.00    +0.067 A 
ATOM      7  C   LIG    1      -25.361  79.241  15.148  0.00  0.00    +0.028 A 
ATOM      8  C   LIG    1      -26.293  78.370  14.572  0.00  0.00    +0.002 A 
ATOM      9  C   LIG    1      -26.675  78.528  13.242  0.00  0.00    +0.000 A 
ATOM     10  C   LIG    1      -26.140  79.567  12.487  0.00  0.00    +0.002 A 
ATOM     11  C   LIG    1      -25.202  80.433  13.055  0.00  0.00    +0.028 A 
ENDBRANCH   3   6
BRANCH   4  12
ATOM     12  N   LIG    1      -21.995  79.513  15.810  0.00  0.00    -0.266 N 
ATOM     13  H   LIG    1      -21.993  79.237  16.781  0.00  0.00    +0.157 HD
ATOM     14  C   LIG    1      -21.476  78.571  14.855  0.00  0.00    +0.251 C 
ATOM     15  O   LIG    1      -21.535  78.796  13.649  0.00  0.00    -0.270 OA
BRANCH  14  16
ATOM     16  C   LIG    1      -20.802  77.342  15.338  0.00  0.00    +0.056 A 
ATOM     17  C   LIG    1      -19.481  77.287  15.773  0.00  0.00    +0.054 A 
ATOM     18 CL   LIG    1      -18.440  78.660  15.821  0.00  0.00    -0.083 Cl
ATOM     19  C   LIG    1      -18.967  76.081  16.252  0.00  0.00    +0.041 A 
ATOM     20  C   LIG    1      -19.759  74.919  16.318  0.00  0.00    +0.052 A 
ATOM     21 CL   LIG    1      -18.995  73.570  17.087  0.00  0.00    -0.083 Cl
ATOM     22  C   LIG    1      -21.094  74.921  15.869  0.00  0.00    +0.022 A 
ATOM     23  C   LIG    1      -21.582  76.164  15.389  0.00  0.00    +0.026 A 
BRANCH  22  24
ATOM     24  C   LIG    1      -22.034  73.765  15.917  0.00  0.00    +0.107 A 
ATOM     25  C   LIG    1      -22.977  73.525  16.919  0.00  0.00    +0.149 A 
ATOM     26  F   LIG    1      -23.065  74.295  18.011  0.00  0.00    -0.203 F 
ATOM     27  C   LIG    1      -23.825  72.423  16.834  0.00  0.00    +0.042 A 
ATOM     28  C   LIG    1      -23.682  71.533  15.779  0.00  0.00    +0.023 A 
ATOM     29  C   LIG    1      -22.693  71.791  14.849  0.00  0.00    +0.111 A 
ATOM     30  N   LIG    1      -21.882  72.877  14.889  0.00  0.00    -0.252 NA
ENDBRANCH  22  24
ENDBRANCH  14  16
ENDBRANCH   4  12
BRANCH   1  32
ATOM     31  N   LIG    1      -22.090  85.011  14.168  0.00  0.00    -0.243 NA
ATOM     32  C   LIG    1      -22.467  84.428  15.245  0.00  0.00    +0.236 C 
BRANCH  31  34
ATOM     33  C   LIG    1      -20.531  86.815  13.496  0.00  0.00    +0.165 C 
ATOM     34  C   LIG    1      -21.906  86.464  14.090  0.00  0.00    +0.142 C 
ATOM     35  C   LIG    1      -23.042  86.998  13.214  0.00  0.00    +0.057 C 
ATOM     36  C   LIG    1      -22.827  88.460  12.865  0.00  0.00    +0.162 C 
ATOM     37  O   LIG    1      -21.571  88.629  12.211  0.00  0.00    -0.377 OA
ATOM     38  C   LIG    1      -20.483  88.285  13.064  0.00  0.00    +0.193 C 
BRANCH  33  39
ATOM     39  O   LIG    1      -19.530  86.560  14.493  0.00  0.00    -0.387 OA
ATOM     40  H   LIG    1      -19.062  87.405  14.637  0.00  0.00    +0.210 HD
ENDBRANCH  33  39
ENDBRANCH  31  34
BRANCH  32  41
ATOM     41  O   LIG    1      -22.615  85.038  16.437  0.00  0.00    -0.491 OA
ATOM     42  H   LIG    1      -23.147  84.480  17.033  0.00  0.00    +0.294 HD
ENDBRANCH  32  41
ENDBRANCH   1  32
TORSDOF 8
ENDMDL
MODEL 5
REMARK VINA RESULT:      -6.8     18.006     19.261
REMARK  Name = pdb/CHEMBL3910605.pdb
REMARK                            x       y       z     vdW  Elec       q    Type
REMARK                         _______ _______ _______ _____ _____    ______ ____
ROOT
ATOM      1  C   LIG    1      -37.083  80.051  27.586  0.00  0.00    +0.149 A 
ATOM      2  N   LIG    1      -36.024  79.292  27.892  0.00  0.00    -0.160 NA
ATOM      3  N   LIG    1      -36.373  78.016  27.562  0.00  0.00    -0.218 N 
ATOM      4  C   LIG    1      -37.644  77.966  26.966  0.00  0.00    +0.129 A 
ATOM      5  C   LIG    1      -38.127  79.253  27.064  0.00  0.00    +0.078 A 
ENDROOT
BRANCH   3   6
ATOM      6  C   LIG    1      -35.486  76.951  27.905  0.00  0.00    +0.067 A 
ATOM      7  C   LIG    1      -34.282  76.729  27.232  0.00  0.00    +0.028 A 
ATOM      8  C   LIG    1      -33.495  75.614  27.542  0.00  0.00    +0.002 A 
ATOM      9  C   LIG    1      -33.887  74.734  28.546  0.00  0.00    +0.000 A 
ATOM     10  C   LIG    1      -35.057  74.973  29.260  0.00  0.00    +0.002 A 
ATOM     11  C   LIG    1      -35.852  76.080  28.948  0.00  0.00    +0.028 A 
ENDBRANCH   3   6
BRANCH   4  12
ATOM     12  N   LIG    1      -38.350  76.867  26.449  0.00  0.00    -0.266 N 
ATOM     13  H   LIG    1      -39.131  76.508  26.976  0.00  0.00    +0.157 HD
ATOM     14  C   LIG    1      -38.045  76.224  25.199  0.00  0.00    +0.251 C 
ATOM     15  O   LIG    1      -37.171  76.665  24.457  0.00  0.00    -0.270 OA
BRANCH  14  16
ATOM     16  C   LIG    1      -38.751  74.973  24.833  0.00  0.00    +0.056 A 
ATOM     17  C   LIG    1      -39.942  74.921  24.116  0.00  0.00    +0.054 A 
ATOM     18 CL   LIG    1      -40.764  76.322  23.538  0.00  0.00    -0.083 Cl
ATOM     19  C   LIG    1      -40.491  73.680  23.788  0.00  0.00    +0.041 A 
ATOM     20  C   LIG    1      -39.860  72.476  24.154  0.00  0.00    +0.052 A 
ATOM     21 CL   LIG    1      -40.606  71.049  23.521  0.00  0.00    -0.083 Cl
ATOM     22  C   LIG    1      -38.664  72.479  24.899  0.00  0.00    +0.022 A 
ATOM     23  C   LIG    1      -38.136  73.758  25.214  0.00  0.00    +0.026 A 
BRANCH  22  24
ATOM     24  C   LIG    1      -37.891  71.275  25.316  0.00  0.00    +0.107 A 
ATOM     25  C   LIG    1      -37.264  70.372  24.455  0.00  0.00    +0.149 A 
ATOM     26  F   LIG    1      -37.378  70.463  23.124  0.00  0.00    -0.203 F 
ATOM     27  C   LIG    1      -36.541  69.298  24.970  0.00  0.00    +0.042 A 
ATOM     28  C   LIG    1      -36.502  69.099  26.343  0.00  0.00    +0.023 A 
ATOM     29  C   LIG    1      -37.190  69.992  27.143  0.00  0.00    +0.111 A 
ATOM     30  N   LIG    1      -37.868  71.066  26.667  0.00  0.00    -0.252 NA
ENDBRANCH  22  24
ENDBRANCH  14  16
ENDBRANCH   4  12
BRANCH   1  32
ATOM     31  N   LIG    1      -37.185  82.253  26.737  0.00  0.00    -0.243 NA
ATOM     32  C   LIG    1      -37.146  81.503  27.776  0.00  0.00    +0.236 C 
BRANCH  31  34
ATOM     33  C   LIG    1      -36.029  84.444  26.699  0.00  0.00    +0.165 C 
ATOM     34  C   LIG    1      -37.371  83.705  26.831  0.00  0.00    +0.142 C 
ATOM     35  C   LIG    1      -38.330  84.092  25.701  0.00  0.00    +0.057 C 
ATOM     36  C   LIG    1      -38.418  85.599  25.546  0.00  0.00    +0.162 C 
ATOM     37  O   LIG    1      -37.122  86.144  25.308  0.00  0.00    -0.377 OA
ATOM     38  C   LIG    1      -36.251  85.934  26.415  0.00  0.00    +0.193 C 
BRANCH  33  39
ATOM     39  O   LIG    1      -35.300  84.278  27.925  0.00  0.00    -0.387 OA
ATOM     40  H   LIG    1      -34.560  84.914  27.896  0.00  0.00    +0.210 HD
ENDBRANCH  33  39
ENDBRANCH  31  34
BRANCH  32  41
ATOM     41  O   LIG    1      -37.143  81.949  29.046  0.00  0.00    -0.491 OA
ATOM     42  H   LIG    1      -37.949  81.651  29.506  0.00  0.00    +0.294 HD
ENDBRANCH  32  41
ENDBRANCH   1  32
TORSDOF 8
ENDMDL
MODEL 6
REMARK VINA RESULT:      -6.8     17.731     21.121
REMARK  Name = pdb/CHEMBL3910605.pdb
REMARK                            x       y       z     vdW  Elec       q    Type
REMARK                         _______ _______ _______ _____ _____    ______ ____
ROOT
ATOM      1  C   LIG    1      -35.108  68.961  24.980  0.00  0.00    +0.149 A 
ATOM      2  N   LIG    1      -36.254  69.652  24.942  0.00  0.00    -0.160 NA
ATOM      3  N   LIG    1      -36.012  70.809  25.621  0.00  0.00    -0.218 N 
ATOM      4  C   LIG    1      -34.673  70.895  26.035  0.00  0.00    +0.129 A 
ATOM      5  C   LIG    1      -34.124  69.677  25.700  0.00  0.00    +0.078 A 
ENDROOT
BRANCH   3   6
ATOM      6  C   LIG    1      -37.100  71.700  25.868  0.00  0.00    +0.067 A 
ATOM      7  C   LIG    1      -37.684  71.843  27.130  0.00  0.00    +0.028 A 
ATOM      8  C   LIG    1      -38.810  72.656  27.299  0.00  0.00    +0.002 A 
ATOM      9  C   LIG    1      -39.339  73.359  26.220  0.00  0.00    +0.000 A 
ATOM     10  C   LIG    1      -38.735  73.266  24.970  0.00  0.00    +0.002 A 
ATOM     11  C   LIG    1      -37.616  72.448  24.793  0.00  0.00    +0.028 A 
ENDBRANCH   3   6
BRANCH   4  12
ATOM     12  N   LIG    1      -34.010  71.929  26.717  0.00  0.00    -0.266 N 
ATOM     13  H   LIG    1      -33.486  72.600  26.177  0.00  0.00    +0.157 HD
ATOM     14  C   LIG    1      -34.042  72.110  28.144  0.00  0.00    +0.251 C 
ATOM     15  O   LIG    1      -34.737  71.391  28.857  0.00  0.00    -0.270 OA
BRANCH  14  16
ATOM     16  C   LIG    1      -33.172  73.136  28.766  0.00  0.00    +0.056 A 
ATOM     17  C   LIG    1      -32.071  72.855  29.569  0.00  0.00    +0.054 A 
ATOM     18 CL   LIG    1      -31.556  71.253  29.946  0.00  0.00    -0.083 Cl
ATOM     19  C   LIG    1      -31.296  73.906  30.063  0.00  0.00    +0.041 A 
ATOM     20  C   LIG    1      -31.593  75.247  29.755  0.00  0.00    +0.052 A 
ATOM     21 CL   LIG    1      -30.429  76.392  30.324  0.00  0.00    -0.083 Cl
ATOM     22  C   LIG    1      -32.710  75.581  28.964  0.00  0.00    +0.022 A 
ATOM     23  C   LIG    1      -33.475  74.488  28.480  0.00  0.00    +0.026 A 
BRANCH  22  24
ATOM     24  C   LIG    1      -33.106  76.957  28.548  0.00  0.00    +0.107 A 
ATOM     25  C   LIG    1      -32.567  77.670  27.475  0.00  0.00    +0.149 A 
ATOM     26  F   LIG    1      -31.546  77.195  26.749  0.00  0.00    -0.203 F 
ATOM     27  C   LIG    1      -33.046  78.940  27.165  0.00  0.00    +0.042 A 
ATOM     28  C   LIG    1      -34.018  79.517  27.970  0.00  0.00    +0.023 A 
ATOM     29  C   LIG    1      -34.473  78.787  29.053  0.00  0.00    +0.111 A 
ATOM     30  N   LIG    1      -34.050  77.534  29.351  0.00  0.00    -0.252 NA
ENDBRANCH  22  24
ENDBRANCH  14  16
ENDBRANCH   4  12
BRANCH   1  32
ATOM     31  N   LIG    1      -34.904  67.563  23.087  0.00  0.00    -0.243 NA
ATOM     32  C   LIG    1      -34.913  67.644  24.366  0.00  0.00    +0.236 C 
BRANCH  31  34
ATOM     33  C   LIG    1      -35.880  65.581  21.965  0.00  0.00    +0.165 C 
ATOM     34  C   LIG    1      -34.594  66.312  22.387  0.00  0.00    +0.142 C 
ATOM     35  C   LIG    1      -33.750  66.695  21.168  0.00  0.00    +0.057 C 
ATOM     36  C   LIG    1      -33.563  65.513  20.234  0.00  0.00    +0.162 C 
ATOM     37  O   LIG    1      -34.831  65.008  19.823  0.00  0.00    -0.377 OA
ATOM     38  C   LIG    1      -35.578  64.498  20.924  0.00  0.00    +0.193 C 
BRANCH  33  39
ATOM     39  O   LIG    1      -36.468  64.992  23.135  0.00  0.00    -0.387 OA
ATOM     40  H   LIG    1      -37.323  65.443  23.273  0.00  0.00    +0.210 HD
ENDBRANCH  33  39
ENDBRANCH  31  34
BRANCH  32  41
ATOM     41  O   LIG    1      -34.769  66.599  25.203  0.00  0.00    -0.491 OA
ATOM     42  H   LIG    1      -35.427  65.912  24.994  0.00  0.00    +0.294 HD
ENDBRANCH  32  41
ENDBRANCH   1  32
TORSDOF 8
ENDMDL
MODEL 7
REMARK VINA RESULT:      -6.8      5.475     10.088
REMARK  Name = pdb/CHEMBL3910605.pdb
REMARK                            x       y       z     vdW  Elec       q    Type
REMARK                         _______ _______ _______ _____ _____    ______ ____
ROOT
ATOM      1  C   LIG    1      -27.110  78.459  12.427  0.00  0.00    +0.149 A 
ATOM      2  N   LIG    1      -26.343  77.530  13.012  0.00  0.00    -0.160 NA
ATOM      3  N   LIG    1      -25.123  78.112  13.186  0.00  0.00    -0.218 N 
ATOM      4  C   LIG    1      -25.128  79.455  12.776  0.00  0.00    +0.129 A 
ATOM      5  C   LIG    1      -26.370  79.645  12.213  0.00  0.00    +0.078 A 
ENDROOT
BRANCH   3   6
ATOM      6  C   LIG    1      -24.043  77.311  13.669  0.00  0.00    +0.067 A 
ATOM      7  C   LIG    1      -23.504  77.469  14.948  0.00  0.00    +0.028 A 
ATOM      8  C   LIG    1      -22.384  76.727  15.339  0.00  0.00    +0.002 A 
ATOM      9  C   LIG    1      -21.817  75.798  14.470  0.00  0.00    +0.000 A 
ATOM     10  C   LIG    1      -22.378  75.594  13.213  0.00  0.00    +0.002 A 
ATOM     11  C   LIG    1      -23.491  76.339  12.814  0.00  0.00    +0.028 A 
ENDBRANCH   3   6
BRANCH   4  12
ATOM     12  N   LIG    1      -24.100  80.412  12.826  0.00  0.00    -0.266 N 
ATOM     13  H   LIG    1      -23.534  80.549  12.002  0.00  0.00    +0.157 HD
ATOM     14  C   LIG    1      -23.808  81.230  13.972  0.00  0.00    +0.251 C 
ATOM     15  O   LIG    1      -24.515  81.188  14.976  0.00  0.00    -0.270 OA
BRANCH  14  16
ATOM     16  C   LIG    1      -22.598  82.086  13.966  0.00  0.00    +0.056 A 
ATOM     17  C   LIG    1      -21.293  81.606  13.991  0.00  0.00    +0.054 A 
ATOM     18 CL   LIG    1      -20.899  79.927  14.022  0.00  0.00    -0.083 Cl
ATOM     19  C   LIG    1      -20.229  82.508  13.932  0.00  0.00    +0.041 A 
ATOM     20  C   LIG    1      -20.446  83.895  13.835  0.00  0.00    +0.052 A 
ATOM     21 CL   LIG    1      -19.011  84.836  13.613  0.00  0.00    -0.083 Cl
ATOM     22  C   LIG    1      -21.749  84.429  13.829  0.00  0.00    +0.022 A 
ATOM     23  C   LIG    1      -22.805  83.483  13.889  0.00  0.00    +0.026 A 
BRANCH  22  24
ATOM     24  C   LIG    1      -22.103  85.872  13.699  0.00  0.00    +0.107 A 
ATOM     25  C   LIG    1      -22.291  86.761  14.759  0.00  0.00    +0.149 A 
ATOM     26  F   LIG    1      -22.255  86.362  16.037  0.00  0.00    -0.203 F 
ATOM     27  C   LIG    1      -22.587  88.099  14.507  0.00  0.00    +0.042 A 
ATOM     28  C   LIG    1      -22.755  88.525  13.197  0.00  0.00    +0.023 A 
ATOM     29  C   LIG    1      -22.613  87.587  12.192  0.00  0.00    +0.111 A 
ATOM     30  N   LIG    1      -22.287  86.289  12.411  0.00  0.00    -0.252 NA
ENDBRANCH  22  24
ENDBRANCH  14  16
ENDBRANCH   4  12
BRANCH   1  32
ATOM     31  N   LIG    1      -28.945  78.812  10.982  0.00  0.00    -0.243 NA
ATOM     32  C   LIG    1      -28.514  78.262  12.056  0.00  0.00    +0.236 C 
BRANCH  31  34
ATOM     33  C   LIG    1      -31.268  79.671  10.929  0.00  0.00    +0.165 C 
ATOM     34  C   LIG    1      -30.298  78.570  10.469  0.00  0.00    +0.142 C 
ATOM     35  C   LIG    1      -30.183  78.534   8.943  0.00  0.00    +0.057 C 
ATOM     36  C   LIG    1      -31.552  78.524   8.288  0.00  0.00    +0.162 C 
ATOM     37  O   LIG    1      -32.303  79.662   8.705  0.00  0.00    -0.377 OA
ATOM     38  C   LIG    1      -32.560  79.639  10.105  0.00  0.00    +0.193 C 
BRANCH  33  39
ATOM     39  O   LIG    1      -31.562  79.461  12.319  0.00  0.00    -0.387 OA
ATOM     40  H   LIG    1      -30.733  79.630  12.805  0.00  0.00    +0.210 HD
ENDBRANCH  33  39
ENDBRANCH  31  34
BRANCH  32  41
ATOM     41  O   LIG    1      -29.264  77.517  12.891  0.00  0.00    -0.491 OA
ATOM     42  H   LIG    1      -30.188  77.501  12.585  0.00  0.00    +0.294 HD
ENDBRANCH  32  41
ENDBRANCH   1  32
TORSDOF 8
ENDMDL
MODEL 8
REMARK VINA RESULT:      -6.6     18.156     20.752
REMARK  Name = pdb/CHEMBL3910605.pdb
REMARK                            x       y       z     vdW  Elec       q    Type
REMARK                         _______ _______ _______ _____ _____    ______ ____
ROOT
ATOM      1  C   LIG    1      -32.995  76.299  28.636  0.00  0.00    +0.149 A 
ATOM      2  N   LIG    1      -33.434  77.526  28.943  0.00  0.00    -0.160 NA
ATOM      3  N   LIG    1      -34.509  77.748  28.136  0.00  0.00    -0.218 N 
ATOM      4  C   LIG    1      -34.811  76.619  27.355  0.00  0.00    +0.129 A 
ATOM      5  C   LIG    1      -33.791  75.732  27.615  0.00  0.00    +0.078 A 
ENDROOT
BRANCH   3   6
ATOM      6  C   LIG    1      -35.114  79.041  28.137  0.00  0.00    +0.067 A 
ATOM      7  C   LIG    1      -36.469  79.238  28.417  0.00  0.00    +0.028 A 
ATOM      8  C   LIG    1      -37.034  80.514  28.310  0.00  0.00    +0.002 A 
ATOM      9  C   LIG    1      -36.245  81.606  27.959  0.00  0.00    +0.000 A 
ATOM     10  C   LIG    1      -34.883  81.431  27.730  0.00  0.00    +0.002 A 
ATOM     11  C   LIG    1      -34.316  80.158  27.826  0.00  0.00    +0.028 A 
ENDBRANCH   3   6
BRANCH   4  12
ATOM     12  N   LIG    1      -35.854  76.418  26.436  0.00  0.00    -0.266 N 
ATOM     13  H   LIG    1      -35.684  76.629  25.465  0.00  0.00    +0.157 HD
ATOM     14  C   LIG    1      -37.154  75.907  26.783  0.00  0.00    +0.251 C 
ATOM     15  O   LIG    1      -37.402  75.536  27.928  0.00  0.00    -0.270 OA
BRANCH  14  16
ATOM     16  C   LIG    1      -38.226  75.891  25.760  0.00  0.00    +0.056 A 
ATOM     17  C   LIG    1      -38.771  74.736  25.208  0.00  0.00    +0.054 A 
ATOM     18 CL   LIG    1      -38.273  73.146  25.650  0.00  0.00    -0.083 Cl
ATOM     19  C   LIG    1      -39.813  74.844  24.285  0.00  0.00    +0.041 A 
ATOM     20  C   LIG    1      -40.337  76.095  23.910  0.00  0.00    +0.052 A 
ATOM     21 CL   LIG    1      -41.726  76.016  22.881  0.00  0.00    -0.083 Cl
ATOM     22  C   LIG    1      -39.803  77.292  24.426  0.00  0.00    +0.022 A 
ATOM     23  C   LIG    1      -38.746  77.144  25.361  0.00  0.00    +0.026 A 
BRANCH  22  24
ATOM     24  C   LIG    1      -40.293  78.668  24.128  0.00  0.00    +0.107 A 
ATOM     25  C   LIG    1      -41.559  79.167  24.443  0.00  0.00    +0.149 A 
ATOM     26  F   LIG    1      -42.512  78.397  24.985  0.00  0.00    -0.203 F 
ATOM     27  C   LIG    1      -41.888  80.486  24.140  0.00  0.00    +0.042 A 
ATOM     28  C   LIG    1      -40.970  81.280  23.468  0.00  0.00    +0.023 A 
ATOM     29  C   LIG    1      -39.755  80.714  23.130  0.00  0.00    +0.111 A 
ATOM     30  N   LIG    1      -39.398  79.445  23.448  0.00  0.00    -0.252 NA
ENDBRANCH  22  24
ENDBRANCH  14  16
ENDBRANCH   4  12
BRANCH   1  32
ATOM     31  N   LIG    1      -31.957  74.420  29.622  0.00  0.00    -0.243 NA
ATOM     32  C   LIG    1      -31.845  75.647  29.270  0.00  0.00    +0.236 C 
BRANCH  31  34
ATOM     33  C   LIG    1      -30.822  73.657  31.688  0.00  0.00    +0.165 C 
ATOM     34  C   LIG    1      -30.823  73.653  30.151  0.00  0.00    +0.142 C 
ATOM     35  C   LIG    1      -30.968  72.231  29.600  0.00  0.00    +0.057 C 
ATOM     36  C   LIG    1      -29.987  71.282  30.262  0.00  0.00    +0.162 C 
ATOM     37  O   LIG    1      -30.173  71.291  31.676  0.00  0.00    -0.377 OA
ATOM     38  C   LIG    1      -29.891  72.570  32.237  0.00  0.00    +0.193 C 
BRANCH  33  39
ATOM     39  O   LIG    1      -30.387  74.951  32.135  0.00  0.00    -0.387 OA
ATOM     40  H   LIG    1      -30.421  74.932  33.111  0.00  0.00    +0.210 HD
ENDBRANCH  33  39
ENDBRANCH  31  34
BRANCH  32  41
ATOM     41  O   LIG    1      -30.744  76.400  29.452  0.00  0.00    -0.491 OA
ATOM     42  H   LIG    1      -30.506  76.421  30.396  0.00  0.00    +0.294 HD
ENDBRANCH  32  41
ENDBRANCH   1  32
TORSDOF 8
ENDMDL
MODEL 9
REMARK VINA RESULT:      -6.6      3.377      5.324
REMARK  Name = pdb/CHEMBL3910605.pdb
REMARK                            x       y       z     vdW  Elec       q    Type
REMARK                         _______ _______ _______ _____ _____    ______ ____
ROOT
ATOM      1  C   LIG    1      -22.352  83.230  15.007  0.00  0.00    +0.149 A 
ATOM      2  N   LIG    1      -21.260  82.458  15.071  0.00  0.00    -0.160 NA
ATOM      3  N   LIG    1      -21.704  81.175  14.955  0.00  0.00    -0.218 N 
ATOM      4  C   LIG    1      -23.091  81.126  14.737  0.00  0.00    +0.129 A 
ATOM      5  C   LIG    1      -23.510  82.432  14.859  0.00  0.00    +0.078 A 
ENDROOT
BRANCH   3   6
ATOM      6  C   LIG    1      -20.772  80.107  15.126  0.00  0.00    +0.067 A 
ATOM      7  C   LIG    1      -20.443  79.223  14.095  0.00  0.00    +0.028 A 
ATOM      8  C   LIG    1      -19.598  78.135  14.340  0.00  0.00    +0.002 A 
ATOM      9  C   LIG    1      -19.049  77.941  15.605  0.00  0.00    +0.000 A 
ATOM     10  C   LIG    1      -19.326  78.845  16.626  0.00  0.00    +0.002 A 
ATOM     11  C   LIG    1      -20.177  79.928  16.389  0.00  0.00    +0.028 A 
ENDBRANCH   3   6
BRANCH   4  12
ATOM     12  N   LIG    1      -23.927  80.017  14.524  0.00  0.00    -0.266 N 
ATOM     13  H   LIG    1      -24.497  79.693  15.290  0.00  0.00    +0.157 HD
ATOM     14  C   LIG    1      -24.042  79.317  13.272  0.00  0.00    +0.251 C 
ATOM     15  O   LIG    1      -23.453  79.713  12.270  0.00  0.00    -0.270 OA
BRANCH  14  16
ATOM     16  C   LIG    1      -24.830  78.063  13.210  0.00  0.00    +0.056 A 
ATOM     17  C   LIG    1      -24.457  76.868  13.816  0.00  0.00    +0.054 A 
ATOM     18 CL   LIG    1      -23.014  76.682  14.742  0.00  0.00    -0.083 Cl
ATOM     19  C   LIG    1      -25.305  75.762  13.730  0.00  0.00    +0.041 A 
ATOM     20  C   LIG    1      -26.538  75.831  13.055  0.00  0.00    +0.052 A 
ATOM     21 CL   LIG    1      -27.517  74.412  13.193  0.00  0.00    -0.083 Cl
ATOM     22  C   LIG    1      -26.948  77.014  12.408  0.00  0.00    +0.022 A 
ATOM     23  C   LIG    1      -26.061  78.117  12.517  0.00  0.00    +0.026 A 
BRANCH  22  24
ATOM     24  C   LIG    1      -28.239  77.216  11.692  0.00  0.00    +0.107 A 
ATOM     25  C   LIG    1      -28.708  76.444  10.626  0.00  0.00    +0.149 A 
ATOM     26  F   LIG    1      -27.971  75.470  10.077  0.00  0.00    -0.203 F 
ATOM     27  C   LIG    1      -29.951  76.712  10.059  0.00  0.00    +0.042 A 
ATOM     28  C   LIG    1      -30.692  77.792  10.521  0.00  0.00    +0.023 A 
ATOM     29  C   LIG    1      -30.151  78.555  11.538  0.00  0.00    +0.111 A 
ATOM     30  N   LIG    1      -28.961  78.290  12.131  0.00  0.00    -0.252 NA
ENDBRANCH  22  24
ENDBRANCH  14  16
ENDBRANCH   4  12
BRANCH   1  32
ATOM     31  N   LIG    1      -22.175  85.363  14.009  0.00  0.00    -0.243 NA
ATOM     32  C   LIG    1      -22.339  84.693  15.089  0.00  0.00    +0.236 C 
BRANCH  31  34
ATOM     33  C   LIG    1      -20.875  87.472  14.010  0.00  0.00    +0.165 C 
ATOM     34  C   LIG    1      -22.270  86.826  13.976  0.00  0.00    +0.142 C 
ATOM     35  C   LIG    1      -23.015  87.183  12.687  0.00  0.00    +0.057 C 
ATOM     36  C   LIG    1      -22.972  88.676  12.421  0.00  0.00    +0.162 C 
ATOM     37  O   LIG    1      -21.620  89.124  12.356  0.00  0.00    -0.377 OA
ATOM     38  C   LIG    1      -20.945  88.947  13.598  0.00  0.00    +0.193 C 
BRANCH  33  39
ATOM     39  O   LIG    1      -20.356  87.356  15.344  0.00  0.00    -0.387 OA
ATOM     40  H   LIG    1      -19.739  86.600  15.336  0.00  0.00    +0.210 HD
ENDBRANCH  33  39
ENDBRANCH  31  34
BRANCH  32  41
ATOM     41  O   LIG    1      -22.490  85.234  16.313  0.00  0.00    -0.491 OA
ATOM     42  H   LIG    1      -21.711  85.036  16.863  0.00  0.00    +0.294 HD
ENDBRANCH  32  41
ENDBRANCH   1  32
TORSDOF 8
ENDMDL
