MODEL 1
REMARK VINA RESULT:      -6.0      0.000      0.000
REMARK  Name = pdb/CHEMBL3675976.pdb
REMARK                            x       y       z     vdW  Elec       q    Type
REMARK                         _______ _______ _______ _____ _____    ______ ____
ROOT
ATOM      1  C   LIG    1      -22.820  76.788  30.576  0.00  0.00    +0.100 A 
ATOM      2  C   LIG    1      -21.906  77.380  31.433  0.00  0.00    +0.170 A 
ATOM      3  N   LIG    1      -22.036  77.910  32.694  0.00  0.00    -0.212 NA
ATOM      4  C   LIG    1      -20.992  78.507  33.230  0.00  0.00    +0.126 A 
ATOM      5  C   LIG    1      -19.663  78.578  32.512  0.00  0.00    +0.063 A 
ATOM      6  C   LIG    1      -19.583  78.016  31.301  0.00  0.00    +0.118 A 
ATOM      7  N   LIG    1      -20.693  77.410  30.741  0.00  0.00    -0.221 N 
ATOM      8  N   LIG    1      -20.780  76.827  29.526  0.00  0.00    -0.173 NA
ATOM      9  C   LIG    1      -22.062  76.470  29.427  0.00  0.00    +0.150 A 
ENDROOT
BRANCH   4  10
ATOM     10  N   LIG    1      -21.106  79.100  34.482  0.00  0.00    -0.308 N 
ATOM     11  C   LIG    1      -22.075  80.177  34.751  0.00  0.00    +0.107 C 
ATOM     12  C   LIG    1      -21.267  81.185  35.579  0.00  0.00    +0.029 C 
ATOM     13  C   LIG    1      -20.312  80.315  36.374  0.00  0.00    +0.021 C 
ATOM     14  C   LIG    1      -19.961  79.205  35.394  0.00  0.00    +0.107 C 
BRANCH  11  15
ATOM     15  C   LIG    1      -23.310  79.665  35.466  0.00  0.00    -0.006 A 
ATOM     16  C   LIG    1      -23.472  78.346  35.909  0.00  0.00    +0.046 A 
ATOM     17  C   LIG    1      -24.650  77.972  36.544  0.00  0.00    +0.142 A 
ATOM     18  F   LIG    1      -24.818  76.711  36.964  0.00  0.00    -0.204 F 
ATOM     19  C   LIG    1      -25.641  78.915  36.735  0.00  0.00    +0.149 A 
ATOM     20  N   LIG    1      -25.522  80.205  36.345  0.00  0.00    -0.260 NA
ATOM     21  C   LIG    1      -24.366  80.542  35.722  0.00  0.00    +0.116 A 
ENDBRANCH  11  15
ENDBRANCH   4  10
BRANCH   1  24
ATOM     22  N   LIG    1      -24.561  75.914  31.961  0.00  0.00    -0.306 N 
ATOM     23  H   LIG    1      -23.772  75.698  32.569  0.00  0.00    +0.150 HD
ATOM     24  C   LIG    1      -24.237  76.554  30.777  0.00  0.00    +0.250 C 
ATOM     25  O   LIG    1      -25.067  76.911  29.953  0.00  0.00    -0.270 OA
BRANCH  22  27
ATOM     26  C   LIG    1      -26.361  74.218  31.812  0.00  0.00    +0.031 C 
ATOM     27  C   LIG    1      -25.948  75.573  32.364  0.00  0.00    +0.032 C 
ATOM     28  C   LIG    1      -26.192  75.718  33.897  0.00  0.00    +0.025 C 
ATOM     29  C   LIG    1      -26.710  77.142  33.640  0.00  0.00    +0.004 C 
ATOM     30  C   LIG    1      -26.956  76.740  32.175  0.00  0.00    +0.025 C 
ENDBRANCH  22  27
ENDBRANCH   1  24
TORSDOF 4
ENDMDL
MODEL 2
REMARK VINA RESULT:      -6.0      1.750      2.278
REMARK  Name = pdb/CHEMBL3675976.pdb
REMARK                            x       y       z     vdW  Elec       q    Type
REMARK                         _______ _______ _______ _____ _____    ______ ____
ROOT
ATOM      1  C   LIG    1      -19.888  76.831  30.648  0.00  0.00    +0.100 A 
ATOM      2  C   LIG    1      -19.437  77.456  31.799  0.00  0.00    +0.170 A 
ATOM      3  N   LIG    1      -20.103  77.998  32.872  0.00  0.00    -0.212 NA
ATOM      4  C   LIG    1      -19.398  78.628  33.789  0.00  0.00    +0.126 A 
ATOM      5  C   LIG    1      -17.891  78.723  33.705  0.00  0.00    +0.063 A 
ATOM      6  C   LIG    1      -17.292  78.149  32.657  0.00  0.00    +0.118 A 
ATOM      7  N   LIG    1      -18.046  77.508  31.691  0.00  0.00    -0.221 N 
ATOM      8  N   LIG    1      -17.596  76.907  30.568  0.00  0.00    -0.173 NA
ATOM      9  C   LIG    1      -18.706  76.517  29.939  0.00  0.00    +0.150 A 
ENDROOT
BRANCH   4  10
ATOM     10  N   LIG    1      -20.046  79.234  34.859  0.00  0.00    -0.308 N 
ATOM     11  C   LIG    1      -21.229  80.091  34.672  0.00  0.00    +0.107 C 
ATOM     12  C   LIG    1      -20.959  81.280  35.604  0.00  0.00    +0.029 C 
ATOM     13  C   LIG    1      -20.195  80.664  36.761  0.00  0.00    +0.021 C 
ATOM     14  C   LIG    1      -19.328  79.615  36.082  0.00  0.00    +0.107 C 
BRANCH  11  15
ATOM     15  C   LIG    1      -22.518  79.359  34.990  0.00  0.00    -0.006 A 
ATOM     16  C   LIG    1      -22.577  78.063  35.518  0.00  0.00    +0.046 A 
ATOM     17  C   LIG    1      -23.811  77.474  35.763  0.00  0.00    +0.142 A 
ATOM     18  F   LIG    1      -23.878  76.231  36.260  0.00  0.00    -0.204 F 
ATOM     19  C   LIG    1      -24.963  78.185  35.488  0.00  0.00    +0.149 A 
ATOM     20  N   LIG    1      -24.958  79.446  35.000  0.00  0.00    -0.260 NA
ATOM     21  C   LIG    1      -23.741  79.995  34.763  0.00  0.00    +0.116 A 
ENDBRANCH  11  15
ENDBRANCH   4  10
BRANCH   1  24
ATOM     22  N   LIG    1      -22.154  76.386  31.263  0.00  0.00    -0.306 N 
ATOM     23  H   LIG    1      -21.767  76.483  32.201  0.00  0.00    +0.150 HD
ATOM     24  C   LIG    1      -21.250  76.564  30.230  0.00  0.00    +0.250 C 
ATOM     25  O   LIG    1      -21.557  76.512  29.047  0.00  0.00    -0.270 OA
BRANCH  22  27
ATOM     26  C   LIG    1      -23.818  74.636  30.709  0.00  0.00    +0.031 C 
ATOM     27  C   LIG    1      -23.596  76.099  31.061  0.00  0.00    +0.032 C 
ATOM     28  C   LIG    1      -24.489  76.595  32.238  0.00  0.00    +0.025 C 
ATOM     29  C   LIG    1      -24.728  77.896  31.456  0.00  0.00    +0.004 C 
ATOM     30  C   LIG    1      -24.322  77.148  30.174  0.00  0.00    +0.025 C 
ENDBRANCH  22  27
ENDBRANCH   1  24
TORSDOF 4
ENDMDL
MODEL 3
REMARK VINA RESULT:      -5.9     18.212     21.313
REMARK  Name = pdb/CHEMBL3675976.pdb
REMARK                            x       y       z     vdW  Elec       q    Type
REMARK                         _______ _______ _______ _____ _____    ______ ____
ROOT
ATOM      1  C   LIG    1      -18.854  85.816  13.199  0.00  0.00    +0.100 A 
ATOM      2  C   LIG    1      -19.013  84.488  13.561  0.00  0.00    +0.170 A 
ATOM      3  N   LIG    1      -20.080  83.800  14.088  0.00  0.00    -0.212 NA
ATOM      4  C   LIG    1      -19.901  82.541  14.431  0.00  0.00    +0.126 A 
ATOM      5  C   LIG    1      -18.577  81.840  14.215  0.00  0.00    +0.063 A 
ATOM      6  C   LIG    1      -17.584  82.548  13.668  0.00  0.00    +0.118 A 
ATOM      7  N   LIG    1      -17.780  83.875  13.331  0.00  0.00    -0.221 N 
ATOM      8  N   LIG    1      -16.875  84.725  12.799  0.00  0.00    -0.173 NA
ATOM      9  C   LIG    1      -17.521  85.891  12.737  0.00  0.00    +0.150 A 
ENDROOT
BRANCH   4  10
ATOM     10  N   LIG    1      -20.943  81.832  15.017  0.00  0.00    -0.308 N 
ATOM     11  C   LIG    1      -22.210  82.478  15.397  0.00  0.00    +0.107 C 
ATOM     12  C   LIG    1      -22.512  81.888  16.781  0.00  0.00    +0.029 C 
ATOM     13  C   LIG    1      -21.954  80.479  16.700  0.00  0.00    +0.021 C 
ATOM     14  C   LIG    1      -20.699  80.654  15.858  0.00  0.00    +0.107 C 
BRANCH  11  15
ATOM     15  C   LIG    1      -23.307  82.220  14.383  0.00  0.00    -0.006 A 
ATOM     16  C   LIG    1      -23.408  82.876  13.149  0.00  0.00    +0.046 A 
ATOM     17  C   LIG    1      -24.460  82.577  12.293  0.00  0.00    +0.142 A 
ATOM     18  F   LIG    1      -24.571  83.205  11.115  0.00  0.00    -0.204 F 
ATOM     19  C   LIG    1      -25.389  81.626  12.673  0.00  0.00    +0.149 A 
ATOM     20  N   LIG    1      -25.321  80.951  13.843  0.00  0.00    -0.260 NA
ATOM     21  C   LIG    1      -24.289  81.266  14.663  0.00  0.00    +0.116 A 
ENDBRANCH  11  15
ENDBRANCH   4  10
BRANCH   1  24
ATOM     22  N   LIG    1      -21.138  86.516  13.273  0.00  0.00    -0.306 N 
ATOM     23  H   LIG    1      -21.298  85.510  13.230  0.00  0.00    +0.150 HD
ATOM     24  C   LIG    1      -19.809  86.903  13.282  0.00  0.00    +0.250 C 
ATOM     25  O   LIG    1      -19.446  88.069  13.363  0.00  0.00    -0.270 OA
BRANCH  22  27
ATOM     26  C   LIG    1      -22.433  88.026  14.749  0.00  0.00    +0.031 C 
ATOM     27  C   LIG    1      -22.278  87.464  13.345  0.00  0.00    +0.032 C 
ATOM     28  C   LIG    1      -22.231  88.562  12.240  0.00  0.00    +0.025 C 
ATOM     29  C   LIG    1      -23.139  87.673  11.374  0.00  0.00    +0.004 C 
ATOM     30  C   LIG    1      -23.569  86.940  12.657  0.00  0.00    +0.025 C 
ENDBRANCH  22  27
ENDBRANCH   1  24
TORSDOF 4
ENDMDL
MODEL 4
REMARK VINA RESULT:      -5.8      2.200      5.088
REMARK  Name = pdb/CHEMBL3675976.pdb
REMARK                            x       y       z     vdW  Elec       q    Type
REMARK                         _______ _______ _______ _____ _____    ______ ____
ROOT
ATOM      1  C   LIG    1      -25.839  77.350  33.248  0.00  0.00    +0.100 A 
ATOM      2  C   LIG    1      -25.297  78.260  34.141  0.00  0.00    +0.170 A 
ATOM      3  N   LIG    1      -24.088  78.912  34.168  0.00  0.00    -0.212 NA
ATOM      4  C   LIG    1      -23.804  79.655  35.217  0.00  0.00    +0.126 A 
ATOM      5  C   LIG    1      -24.789  79.836  36.352  0.00  0.00    +0.063 A 
ATOM      6  C   LIG    1      -25.963  79.204  36.258  0.00  0.00    +0.118 A 
ATOM      7  N   LIG    1      -26.239  78.410  35.159  0.00  0.00    -0.221 N 
ATOM      8  N   LIG    1      -27.361  77.692  34.932  0.00  0.00    -0.173 NA
ATOM      9  C   LIG    1      -27.108  77.047  33.792  0.00  0.00    +0.150 A 
ENDROOT
BRANCH   4  10
ATOM     10  N   LIG    1      -22.568  80.286  35.301  0.00  0.00    -0.308 N 
ATOM     11  C   LIG    1      -21.386  79.615  35.869  0.00  0.00    +0.107 C 
ATOM     12  C   LIG    1      -20.750  80.698  36.750  0.00  0.00    +0.029 C 
ATOM     13  C   LIG    1      -21.058  81.989  36.013  0.00  0.00    +0.021 C 
ATOM     14  C   LIG    1      -22.452  81.741  35.455  0.00  0.00    +0.107 C 
BRANCH  11  15
ATOM     15  C   LIG    1      -20.455  79.094  34.792  0.00  0.00    -0.006 A 
ATOM     16  C   LIG    1      -20.805  78.976  33.440  0.00  0.00    +0.046 A 
ATOM     17  C   LIG    1      -19.882  78.474  32.531  0.00  0.00    +0.142 A 
ATOM     18  F   LIG    1      -20.209  78.350  31.237  0.00  0.00    -0.204 F 
ATOM     19  C   LIG    1      -18.628  78.106  32.978  0.00  0.00    +0.149 A 
ATOM     20  N   LIG    1      -18.237  78.221  34.267  0.00  0.00    -0.260 NA
ATOM     21  C   LIG    1      -19.158  78.708  35.135  0.00  0.00    +0.116 A 
ENDBRANCH  11  15
ENDBRANCH   4  10
BRANCH   1  24
ATOM     22  N   LIG    1      -23.900  76.542  32.109  0.00  0.00    -0.306 N 
ATOM     23  H   LIG    1      -23.464  76.743  33.009  0.00  0.00    +0.150 HD
ATOM     24  C   LIG    1      -25.258  76.803  32.038  0.00  0.00    +0.250 C 
ATOM     25  O   LIG    1      -25.936  76.587  31.043  0.00  0.00    -0.270 OA
BRANCH  22  27
ATOM     26  C   LIG    1      -22.982  76.990  29.852  0.00  0.00    +0.031 C 
ATOM     27  C   LIG    1      -23.104  75.985  30.987  0.00  0.00    +0.032 C 
ATOM     28  C   LIG    1      -21.735  75.395  31.441  0.00  0.00    +0.025 C 
ATOM     29  C   LIG    1      -22.406  74.015  31.535  0.00  0.00    +0.004 C 
ATOM     30  C   LIG    1      -23.508  74.537  30.596  0.00  0.00    +0.025 C 
ENDBRANCH  22  27
ENDBRANCH   1  24
TORSDOF 4
ENDMDL
MODEL 5
REMARK VINA RESULT:      -5.5     20.968     22.657
REMARK  Name = pdb/CHEMBL3675976.pdb
REMARK                            x       y       z     vdW  Elec       q    Type
REMARK                         _______ _______ _______ _____ _____    ______ ____
ROOT
ATOM      1  C   LIG    1      -31.849  93.959  23.056  0.00  0.00    +0.100 A 
ATOM      2  C   LIG    1      -32.233  93.576  21.781  0.00  0.00    +0.170 A 
ATOM      3  N   LIG    1      -33.332  92.893  21.318  0.00  0.00    -0.212 NA
ATOM      4  C   LIG    1      -33.378  92.580  20.040  0.00  0.00    +0.126 A 
ATOM      5  C   LIG    1      -32.282  92.992  19.081  0.00  0.00    +0.063 A 
ATOM      6  C   LIG    1      -31.253  93.684  19.580  0.00  0.00    +0.118 A 
ATOM      7  N   LIG    1      -31.208  93.988  20.928  0.00  0.00    -0.221 N 
ATOM      8  N   LIG    1      -30.230  94.652  21.584  0.00  0.00    -0.173 NA
ATOM      9  C   LIG    1      -30.614  94.617  22.861  0.00  0.00    +0.150 A 
ENDROOT
BRANCH   4  10
ATOM     10  N   LIG    1      -34.450  91.843  19.549  0.00  0.00    -0.308 N 
ATOM     11  C   LIG    1      -34.895  91.947  18.150  0.00  0.00    +0.107 C 
ATOM     12  C   LIG    1      -36.424  92.000  18.263  0.00  0.00    +0.029 C 
ATOM     13  C   LIG    1      -36.725  91.134  19.472  0.00  0.00    +0.021 C 
ATOM     14  C   LIG    1      -35.568  91.438  20.411  0.00  0.00    +0.107 C 
BRANCH  11  15
ATOM     15  C   LIG    1      -34.396  90.790  17.306  0.00  0.00    -0.006 A 
ATOM     16  C   LIG    1      -33.764  89.653  17.826  0.00  0.00    +0.046 A 
ATOM     17  C   LIG    1      -33.331  88.651  16.967  0.00  0.00    +0.142 A 
ATOM     18  F   LIG    1      -32.718  87.563  17.454  0.00  0.00    -0.204 F 
ATOM     19  C   LIG    1      -33.540  88.792  15.609  0.00  0.00    +0.149 A 
ATOM     20  N   LIG    1      -34.164  89.860  15.061  0.00  0.00    -0.260 NA
ATOM     21  C   LIG    1      -34.571  90.826  15.921  0.00  0.00    +0.116 A 
ENDBRANCH  11  15
ENDBRANCH   4  10
BRANCH   1  24
ATOM     22  N   LIG    1      -33.772  93.139  24.214  0.00  0.00    -0.306 N 
ATOM     23  H   LIG    1      -34.065  92.906  23.266  0.00  0.00    +0.150 HD
ATOM     24  C   LIG    1      -32.526  93.734  24.317  0.00  0.00    +0.250 C 
ATOM     25  O   LIG    1      -32.013  94.046  25.383  0.00  0.00    -0.270 OA
BRANCH  22  27
ATOM     26  C   LIG    1      -33.979  91.794  26.284  0.00  0.00    +0.031 C 
ATOM     27  C   LIG    1      -34.637  92.822  25.377  0.00  0.00    +0.032 C 
ATOM     28  C   LIG    1      -35.132  94.090  26.135  0.00  0.00    +0.025 C 
ATOM     29  C   LIG    1      -36.412  94.051  25.284  0.00  0.00    +0.004 C 
ATOM     30  C   LIG    1      -36.122  92.567  24.998  0.00  0.00    +0.025 C 
ENDBRANCH  22  27
ENDBRANCH   1  24
TORSDOF 4
ENDMDL
MODEL 6
REMARK VINA RESULT:      -5.5     18.541     21.434
REMARK  Name = pdb/CHEMBL3675976.pdb
REMARK                            x       y       z     vdW  Elec       q    Type
REMARK                         _______ _______ _______ _____ _____    ______ ____
ROOT
ATOM      1  C   LIG    1      -18.715  82.839  13.682  0.00  0.00    +0.100 A 
ATOM      2  C   LIG    1      -19.051  84.177  13.560  0.00  0.00    +0.170 A 
ATOM      3  N   LIG    1      -20.220  84.857  13.802  0.00  0.00    -0.212 NA
ATOM      4  C   LIG    1      -20.273  86.136  13.492  0.00  0.00    +0.126 A 
ATOM      5  C   LIG    1      -19.073  86.866  12.929  0.00  0.00    +0.063 A 
ATOM      6  C   LIG    1      -17.951  86.163  12.746  0.00  0.00    +0.118 A 
ATOM      7  N   LIG    1      -17.917  84.816  13.056  0.00  0.00    -0.221 N 
ATOM      8  N   LIG    1      -16.875  83.969  12.904  0.00  0.00    -0.173 NA
ATOM      9  C   LIG    1      -17.365  82.782  13.266  0.00  0.00    +0.150 A 
ENDROOT
BRANCH   4  10
ATOM     10  N   LIG    1      -21.458  86.840  13.673  0.00  0.00    -0.308 N 
ATOM     11  C   LIG    1      -22.158  87.491  12.554  0.00  0.00    +0.107 C 
ATOM     12  C   LIG    1      -22.562  88.855  13.129  0.00  0.00    +0.029 C 
ATOM     13  C   LIG    1      -22.824  88.563  14.595  0.00  0.00    +0.021 C 
ATOM     14  C   LIG    1      -21.763  87.527  14.935  0.00  0.00    +0.107 C 
BRANCH  11  15
ATOM     15  C   LIG    1      -23.337  86.672  12.067  0.00  0.00    -0.006 A 
ATOM     16  C   LIG    1      -23.495  85.301  12.307  0.00  0.00    +0.046 A 
ATOM     17  C   LIG    1      -24.607  84.637  11.806  0.00  0.00    +0.142 A 
ATOM     18  F   LIG    1      -24.764  83.324  12.024  0.00  0.00    -0.204 F 
ATOM     19  C   LIG    1      -25.547  85.347  11.083  0.00  0.00    +0.149 A 
ATOM     20  N   LIG    1      -25.449  86.674  10.843  0.00  0.00    -0.260 NA
ATOM     21  C   LIG    1      -24.351  87.297  11.338  0.00  0.00    +0.116 A 
ENDBRANCH  11  15
ENDBRANCH   4  10
BRANCH   1  24
ATOM     22  N   LIG    1      -20.395  82.009  15.165  0.00  0.00    -0.306 N 
ATOM     23  H   LIG    1      -20.365  82.969  15.505  0.00  0.00    +0.150 HD
ATOM     24  C   LIG    1      -19.540  81.727  14.113  0.00  0.00    +0.250 C 
ATOM     25  O   LIG    1      -19.476  80.634  13.569  0.00  0.00    -0.270 OA
BRANCH  22  27
ATOM     26  C   LIG    1      -20.557  79.874  16.412  0.00  0.00    +0.031 C 
ATOM     27  C   LIG    1      -21.322  81.018  15.766  0.00  0.00    +0.032 C 
ATOM     28  C   LIG    1      -22.382  81.665  16.707  0.00  0.00    +0.025 C 
ATOM     29  C   LIG    1      -23.351  81.719  15.515  0.00  0.00    +0.004 C 
ATOM     30  C   LIG    1      -22.504  80.628  14.835  0.00  0.00    +0.025 C 
ENDBRANCH  22  27
ENDBRANCH   1  24
TORSDOF 4
ENDMDL
MODEL 7
REMARK VINA RESULT:      -5.5      2.589      5.734
REMARK  Name = pdb/CHEMBL3675976.pdb
REMARK                            x       y       z     vdW  Elec       q    Type
REMARK                         _______ _______ _______ _____ _____    ______ ____
ROOT
ATOM      1  C   LIG    1      -18.744  78.690  34.192  0.00  0.00    +0.100 A 
ATOM      2  C   LIG    1      -19.442  78.261  33.075  0.00  0.00    +0.170 A 
ATOM      3  N   LIG    1      -20.787  78.186  32.803  0.00  0.00    -0.212 NA
ATOM      4  C   LIG    1      -21.164  77.629  31.671  0.00  0.00    +0.126 A 
ATOM      5  C   LIG    1      -20.157  77.121  30.662  0.00  0.00    +0.063 A 
ATOM      6  C   LIG    1      -18.861  77.250  30.963  0.00  0.00    +0.118 A 
ATOM      7  N   LIG    1      -18.480  77.818  32.165  0.00  0.00    -0.221 N 
ATOM      8  N   LIG    1      -17.221  77.993  32.623  0.00  0.00    -0.173 NA
ATOM      9  C   LIG    1      -17.387  78.502  33.845  0.00  0.00    +0.150 A 
ENDROOT
BRANCH   4  10
ATOM     10  N   LIG    1      -22.518  77.489  31.391  0.00  0.00    -0.308 N 
ATOM     11  C   LIG    1      -23.370  76.529  32.113  0.00  0.00    +0.107 C 
ATOM     12  C   LIG    1      -24.213  75.892  31.000  0.00  0.00    +0.029 C 
ATOM     13  C   LIG    1      -24.395  77.016  29.998  0.00  0.00    +0.021 C 
ATOM     14  C   LIG    1      -23.059  77.743  30.050  0.00  0.00    +0.107 C 
BRANCH  11  15
ATOM     15  C   LIG    1      -24.203  77.203  33.185  0.00  0.00    -0.006 A 
ATOM     16  C   LIG    1      -23.961  78.493  33.674  0.00  0.00    +0.046 A 
ATOM     17  C   LIG    1      -24.776  79.017  34.669  0.00  0.00    +0.142 A 
ATOM     18  F   LIG    1      -24.548  80.247  35.150  0.00  0.00    -0.204 F 
ATOM     19  C   LIG    1      -25.821  78.255  35.156  0.00  0.00    +0.149 A 
ATOM     20  N   LIG    1      -26.107  77.014  34.701  0.00  0.00    -0.260 NA
ATOM     21  C   LIG    1      -25.293  76.523  33.734  0.00  0.00    +0.116 A 
ENDBRANCH  11  15
ENDBRANCH   4  10
BRANCH   1  24
ATOM     22  N   LIG    1      -20.480  79.846  35.358  0.00  0.00    -0.306 N 
ATOM     23  H   LIG    1      -20.892  79.872  34.426  0.00  0.00    +0.150 HD
ATOM     24  C   LIG    1      -19.259  79.200  35.447  0.00  0.00    +0.250 C 
ATOM     25  O   LIG    1      -18.648  79.053  36.497  0.00  0.00    -0.270 OA
BRANCH  22  27
ATOM     26  C   LIG    1      -21.960  79.391  37.293  0.00  0.00    +0.031 C 
ATOM     27  C   LIG    1      -21.186  80.446  36.518  0.00  0.00    +0.032 C 
ATOM     28  C   LIG    1      -20.256  81.317  37.416  0.00  0.00    +0.025 C 
ATOM     29  C   LIG    1      -20.704  82.550  36.616  0.00  0.00    +0.004 C 
ATOM     30  C   LIG    1      -21.946  81.757  36.174  0.00  0.00    +0.025 C 
ENDBRANCH  22  27
ENDBRANCH   1  24
TORSDOF 4
ENDMDL
MODEL 8
REMARK VINA RESULT:      -5.4     13.318     17.400
REMARK  Name = pdb/CHEMBL3675976.pdb
REMARK                            x       y       z     vdW  Elec       q    Type
REMARK                         _______ _______ _______ _____ _____    ______ ____
ROOT
ATOM      1  C   LIG    1      -37.507  76.251  26.071  0.00  0.00    +0.100 A 
ATOM      2  C   LIG    1      -38.196  75.188  25.510  0.00  0.00    +0.170 A 
ATOM      3  N   LIG    1      -37.968  73.833  25.526  0.00  0.00    -0.212 NA
ATOM      4  C   LIG    1      -38.752  73.061  24.804  0.00  0.00    +0.126 A 
ATOM      5  C   LIG    1      -39.908  73.625  24.008  0.00  0.00    +0.063 A 
ATOM      6  C   LIG    1      -40.104  74.947  24.055  0.00  0.00    +0.118 A 
ATOM      7  N   LIG    1      -39.260  75.749  24.801  0.00  0.00    -0.221 N 
ATOM      8  N   LIG    1      -39.310  77.093  24.927  0.00  0.00    -0.173 NA
ATOM      9  C   LIG    1      -38.247  77.389  25.677  0.00  0.00    +0.150 A 
ENDROOT
BRANCH   4  10
ATOM     10  N   LIG    1      -38.515  71.692  24.756  0.00  0.00    -0.308 N 
ATOM     11  C   LIG    1      -37.180  71.140  24.471  0.00  0.00    +0.107 C 
ATOM     12  C   LIG    1      -37.468  69.997  23.488  0.00  0.00    +0.029 C 
ATOM     13  C   LIG    1      -38.823  69.476  23.928  0.00  0.00    +0.021 C 
ATOM     14  C   LIG    1      -39.557  70.741  24.349  0.00  0.00    +0.107 C 
BRANCH  11  15
ATOM     15  C   LIG    1      -36.472  70.683  25.731  0.00  0.00    -0.006 A 
ATOM     16  C   LIG    1      -35.138  70.259  25.775  0.00  0.00    +0.046 A 
ATOM     17  C   LIG    1      -34.584  69.847  26.980  0.00  0.00    +0.142 A 
ATOM     18  F   LIG    1      -33.311  69.432  27.031  0.00  0.00    -0.204 F 
ATOM     19  C   LIG    1      -35.362  69.870  28.122  0.00  0.00    +0.149 A 
ATOM     20  N   LIG    1      -36.647  70.291  28.135  0.00  0.00    -0.260 NA
ATOM     21  C   LIG    1      -37.165  70.682  26.944  0.00  0.00    +0.116 A 
ENDBRANCH  11  15
ENDBRANCH   4  10
BRANCH   1  24
ATOM     22  N   LIG    1      -36.203  75.188  27.768  0.00  0.00    -0.306 N 
ATOM     23  H   LIG    1      -36.987  74.536  27.759  0.00  0.00    +0.150 HD
ATOM     24  C   LIG    1      -36.295  76.234  26.865  0.00  0.00    +0.250 C 
ATOM     25  O   LIG    1      -35.427  77.084  26.726  0.00  0.00    -0.270 OA
BRANCH  22  27
ATOM     26  C   LIG    1      -35.090  75.966  29.840  0.00  0.00    +0.031 C 
ATOM     27  C   LIG    1      -35.052  74.982  28.682  0.00  0.00    +0.032 C 
ATOM     28  C   LIG    1      -34.888  73.499  29.134  0.00  0.00    +0.025 C 
ATOM     29  C   LIG    1      -33.895  73.297  27.979  0.00  0.00    +0.004 C 
ATOM     30  C   LIG    1      -33.693  74.823  27.945  0.00  0.00    +0.025 C 
ENDBRANCH  22  27
ENDBRANCH   1  24
TORSDOF 4
ENDMDL
MODEL 9
REMARK VINA RESULT:      -5.4     17.885     21.543
REMARK  Name = pdb/CHEMBL3675976.pdb
REMARK                            x       y       z     vdW  Elec       q    Type
REMARK                         _______ _______ _______ _____ _____    ______ ____
ROOT
ATOM      1  C   LIG    1      -42.109  70.277  20.868  0.00  0.00    +0.100 A 
ATOM      2  C   LIG    1      -42.128  71.410  21.666  0.00  0.00    +0.170 A 
ATOM      3  N   LIG    1      -41.372  71.781  22.752  0.00  0.00    -0.212 NA
ATOM      4  C   LIG    1      -41.691  72.892  23.383  0.00  0.00    +0.126 A 
ATOM      5  C   LIG    1      -42.827  73.774  22.912  0.00  0.00    +0.063 A 
ATOM      6  C   LIG    1      -43.507  73.381  21.830  0.00  0.00    +0.118 A 
ATOM      7  N   LIG    1      -43.174  72.201  21.190  0.00  0.00    -0.221 N 
ATOM      8  N   LIG    1      -43.778  71.659  20.110  0.00  0.00    -0.173 NA
ATOM      9  C   LIG    1      -43.144  70.498  19.932  0.00  0.00    +0.150 A 
ENDROOT
BRANCH   4  10
ATOM     10  N   LIG    1      -40.981  73.268  24.517  0.00  0.00    -0.308 N 
ATOM     11  C   LIG    1      -39.541  73.571  24.472  0.00  0.00    +0.107 C 
ATOM     12  C   LIG    1      -38.989  72.870  25.721  0.00  0.00    +0.029 C 
ATOM     13  C   LIG    1      -40.123  72.973  26.723  0.00  0.00    +0.021 C 
ATOM     14  C   LIG    1      -41.363  72.805  25.857  0.00  0.00    +0.107 C 
BRANCH  11  15
ATOM     15  C   LIG    1      -39.274  75.064  24.455  0.00  0.00    -0.006 A 
ATOM     16  C   LIG    1      -40.173  76.018  23.964  0.00  0.00    +0.046 A 
ATOM     17  C   LIG    1      -39.829  77.364  23.981  0.00  0.00    +0.142 A 
ATOM     18  F   LIG    1      -40.679  78.284  23.505  0.00  0.00    -0.204 F 
ATOM     19  C   LIG    1      -38.601  77.738  24.492  0.00  0.00    +0.149 A 
ATOM     20  N   LIG    1      -37.709  76.857  24.998  0.00  0.00    -0.260 NA
ATOM     21  C   LIG    1      -38.067  75.550  24.964  0.00  0.00    +0.116 A 
ENDBRANCH  11  15
ENDBRANCH   4  10
BRANCH   1  24
ATOM     22  N   LIG    1      -39.931  69.381  21.273  0.00  0.00    -0.306 N 
ATOM     23  H   LIG    1      -39.712  70.365  21.425  0.00  0.00    +0.150 HD
ATOM     24  C   LIG    1      -41.252  69.112  20.959  0.00  0.00    +0.250 C 
ATOM     25  O   LIG    1      -41.687  67.983  20.777  0.00  0.00    -0.270 OA
BRANCH  22  27
ATOM     26  C   LIG    1      -39.170  67.432  22.598  0.00  0.00    +0.031 C 
ATOM     27  C   LIG    1      -38.884  68.339  21.412  0.00  0.00    +0.032 C 
ATOM     28  C   LIG    1      -38.615  67.561  20.089  0.00  0.00    +0.025 C 
ATOM     29  C   LIG    1      -37.472  68.545  19.789  0.00  0.00    +0.004 C 
ATOM     30  C   LIG    1      -37.436  68.890  21.289  0.00  0.00    +0.025 C 
ENDBRANCH  22  27
ENDBRANCH   1  24
TORSDOF 4
ENDMDL
