MODEL 1
REMARK VINA RESULT:      -5.9      0.000      0.000
REMARK  Name = pdb/CHEMBL3676038.pdb
REMARK                            x       y       z     vdW  Elec       q    Type
REMARK                         _______ _______ _______ _____ _____    ______ ____
ROOT
ATOM      1  C   LIG    1      -24.225  77.950  32.118  0.00  0.00    +0.100 A 
ATOM      2  C   LIG    1      -23.119  77.395  31.501  0.00  0.00    +0.170 A 
ATOM      3  N   LIG    1      -21.852  77.141  31.962  0.00  0.00    -0.212 NA
ATOM      4  C   LIG    1      -20.981  76.615  31.130  0.00  0.00    +0.126 A 
ATOM      5  C   LIG    1      -21.363  76.235  29.715  0.00  0.00    +0.063 A 
ATOM      6  C   LIG    1      -22.606  76.521  29.314  0.00  0.00    +0.118 A 
ATOM      7  N   LIG    1      -23.502  77.106  30.192  0.00  0.00    -0.221 N 
ATOM      8  N   LIG    1      -24.787  77.457  29.949  0.00  0.00    -0.173 NA
ATOM      9  C   LIG    1      -25.212  77.957  31.112  0.00  0.00    +0.150 A 
ENDROOT
BRANCH   4  10
ATOM     10  N   LIG    1      -19.673  76.411  31.556  0.00  0.00    -0.308 N 
ATOM     11  C   LIG    1      -18.782  77.539  31.909  0.00  0.00    +0.108 C 
ATOM     12  C   LIG    1      -17.524  77.230  31.081  0.00  0.00    +0.029 C 
ATOM     13  C   LIG    1      -17.427  75.718  31.158  0.00  0.00    +0.021 C 
ATOM     14  C   LIG    1      -18.878  75.281  31.057  0.00  0.00    +0.107 C 
BRANCH  11  15
ATOM     15  C   LIG    1      -18.509  77.617  33.404  0.00  0.00    +0.011 A 
ATOM     16  C   LIG    1      -17.621  78.590  33.890  0.00  0.00    +0.129 A 
ATOM     17  F   LIG    1      -17.038  79.445  33.037  0.00  0.00    -0.205 F 
ATOM     18  C   LIG    1      -17.318  78.704  35.248  0.00  0.00    +0.041 A 
ATOM     19  C   LIG    1      -17.926  77.848  36.161  0.00  0.00    +0.041 A 
ATOM     20  C   LIG    1      -18.829  76.896  35.702  0.00  0.00    +0.124 A 
ATOM     21  F   LIG    1      -19.422  76.076  36.579  0.00  0.00    -0.205 F 
ATOM     22  C   LIG    1      -19.125  76.775  34.345  0.00  0.00    +0.046 A 
ENDBRANCH  11  15
ENDBRANCH   4  10
BRANCH   1  25
ATOM     23  N   LIG    1      -23.172  78.906  34.028  0.00  0.00    -0.308 N 
ATOM     24  H   LIG    1      -22.332  78.784  33.464  0.00  0.00    +0.149 HD
ATOM     25  C   LIG    1      -24.347  78.425  33.482  0.00  0.00    +0.249 C 
ATOM     26  O   LIG    1      -25.417  78.405  34.086  0.00  0.00    -0.270 OA
BRANCH  23  29
ATOM     27  C   LIG    1      -21.574  81.240  35.104  0.00  0.00    +0.116 C 
ATOM     28  C   LIG    1      -23.020  80.921  35.455  0.00  0.00    +0.053 C 
ATOM     29  C   LIG    1      -23.071  79.397  35.390  0.00  0.00    +0.076 C 
ATOM     30  C   LIG    1      -21.744  78.989  36.041  0.00  0.00    +0.025 C 
ATOM     31  C   LIG    1      -20.756  80.122  35.747  0.00  0.00    +0.033 C 
BRANCH  27  32
ATOM     32  O   LIG    1      -21.206  82.510  35.612  0.00  0.00    -0.392 OA
ATOM     33  H   LIG    1      -20.585  82.909  34.980  0.00  0.00    +0.210 HD
ENDBRANCH  27  32
ENDBRANCH  23  29
ENDBRANCH   1  25
TORSDOF 5
ENDMDL
MODEL 2
REMARK VINA RESULT:      -5.7      2.704      5.218
REMARK  Name = pdb/CHEMBL3676038.pdb
REMARK                            x       y       z     vdW  Elec       q    Type
REMARK                         _______ _______ _______ _____ _____    ______ ____
ROOT
ATOM      1  C   LIG    1      -22.880  77.003  30.522  0.00  0.00    +0.100 A 
ATOM      2  C   LIG    1      -21.879  77.348  31.411  0.00  0.00    +0.170 A 
ATOM      3  N   LIG    1      -21.923  77.735  32.726  0.00  0.00    -0.212 NA
ATOM      4  C   LIG    1      -20.791  78.028  33.328  0.00  0.00    +0.126 A 
ATOM      5  C   LIG    1      -19.459  77.890  32.622  0.00  0.00    +0.063 A 
ATOM      6  C   LIG    1      -19.476  77.526  31.336  0.00  0.00    +0.118 A 
ATOM      7  N   LIG    1      -20.678  77.253  30.707  0.00  0.00    -0.221 N 
ATOM      8  N   LIG    1      -20.871  76.875  29.422  0.00  0.00    -0.173 NA
ATOM      9  C   LIG    1      -22.194  76.723  29.323  0.00  0.00    +0.150 A 
ENDROOT
BRANCH   4  10
ATOM     10  N   LIG    1      -20.819  78.487  34.639  0.00  0.00    -0.308 N 
ATOM     11  C   LIG    1      -20.659  79.920  34.970  0.00  0.00    +0.108 C 
ATOM     12  C   LIG    1      -19.554  79.886  36.038  0.00  0.00    +0.029 C 
ATOM     13  C   LIG    1      -19.879  78.630  36.826  0.00  0.00    +0.021 C 
ATOM     14  C   LIG    1      -20.318  77.658  35.745  0.00  0.00    +0.107 C 
BRANCH  11  15
ATOM     15  C   LIG    1      -21.953  80.549  35.468  0.00  0.00    +0.011 A 
ATOM     16  C   LIG    1      -21.927  81.853  35.988  0.00  0.00    +0.129 A 
ATOM     17  F   LIG    1      -20.771  82.532  36.025  0.00  0.00    -0.205 F 
ATOM     18  C   LIG    1      -23.075  82.479  36.474  0.00  0.00    +0.041 A 
ATOM     19  C   LIG    1      -24.294  81.810  36.426  0.00  0.00    +0.041 A 
ATOM     20  C   LIG    1      -24.345  80.529  35.891  0.00  0.00    +0.124 A 
ATOM     21  F   LIG    1      -25.518  79.886  35.836  0.00  0.00    -0.205 F 
ATOM     22  C   LIG    1      -23.197  79.898  35.414  0.00  0.00    +0.046 A 
ENDBRANCH  11  15
ENDBRANCH   4  10
BRANCH   1  25
ATOM     23  N   LIG    1      -24.663  76.713  32.074  0.00  0.00    -0.308 N 
ATOM     24  H   LIG    1      -23.900  76.501  32.713  0.00  0.00    +0.149 HD
ATOM     25  C   LIG    1      -24.310  76.949  30.759  0.00  0.00    +0.249 C 
ATOM     26  O   LIG    1      -25.126  77.112  29.856  0.00  0.00    -0.270 OA
BRANCH  23  29
ATOM     27  C   LIG    1      -25.748  76.389  34.881  0.00  0.00    +0.116 C 
ATOM     28  C   LIG    1      -26.299  77.333  33.823  0.00  0.00    +0.053 C 
ATOM     29  C   LIG    1      -26.041  76.589  32.516  0.00  0.00    +0.076 C 
ATOM     30  C   LIG    1      -26.389  75.140  32.880  0.00  0.00    +0.025 C 
ATOM     31  C   LIG    1      -26.081  74.988  34.373  0.00  0.00    +0.033 C 
BRANCH  27  32
ATOM     32  O   LIG    1      -26.349  76.642  36.137  0.00  0.00    -0.392 OA
ATOM     33  H   LIG    1      -26.317  77.602  36.290  0.00  0.00    +0.210 HD
ENDBRANCH  27  32
ENDBRANCH  23  29
ENDBRANCH   1  25
TORSDOF 5
ENDMDL
MODEL 3
REMARK VINA RESULT:      -5.6      2.892      5.506
REMARK  Name = pdb/CHEMBL3676038.pdb
REMARK                            x       y       z     vdW  Elec       q    Type
REMARK                         _______ _______ _______ _____ _____    ______ ____
ROOT
ATOM      1  C   LIG    1      -22.867  76.862  30.498  0.00  0.00    +0.100 A 
ATOM      2  C   LIG    1      -21.967  77.440  31.375  0.00  0.00    +0.170 A 
ATOM      3  N   LIG    1      -22.128  77.967  32.630  0.00  0.00    -0.212 NA
ATOM      4  C   LIG    1      -21.077  78.477  33.232  0.00  0.00    +0.126 A 
ATOM      5  C   LIG    1      -19.703  78.439  32.597  0.00  0.00    +0.063 A 
ATOM      6  C   LIG    1      -19.606  77.929  31.365  0.00  0.00    +0.118 A 
ATOM      7  N   LIG    1      -20.729  77.426  30.731  0.00  0.00    -0.221 N 
ATOM      8  N   LIG    1      -20.804  76.879  29.496  0.00  0.00    -0.173 NA
ATOM      9  C   LIG    1      -22.090  76.540  29.368  0.00  0.00    +0.150 A 
ENDROOT
BRANCH   4  10
ATOM     10  N   LIG    1      -21.232  79.077  34.476  0.00  0.00    -0.308 N 
ATOM     11  C   LIG    1      -22.421  79.893  34.808  0.00  0.00    +0.108 C 
ATOM     12  C   LIG    1      -21.788  81.183  35.354  0.00  0.00    +0.029 C 
ATOM     13  C   LIG    1      -20.585  80.673  36.125  0.00  0.00    +0.021 C 
ATOM     14  C   LIG    1      -20.071  79.548  35.243  0.00  0.00    +0.107 C 
BRANCH  11  15
ATOM     15  C   LIG    1      -23.337  79.206  35.811  0.00  0.00    +0.011 A 
ATOM     16  C   LIG    1      -24.450  79.899  36.312  0.00  0.00    +0.129 A 
ATOM     17  F   LIG    1      -24.702  81.147  35.892  0.00  0.00    -0.205 F 
ATOM     18  C   LIG    1      -25.319  79.329  37.244  0.00  0.00    +0.041 A 
ATOM     19  C   LIG    1      -25.099  78.027  37.681  0.00  0.00    +0.041 A 
ATOM     20  C   LIG    1      -24.017  77.315  37.176  0.00  0.00    +0.124 A 
ATOM     21  F   LIG    1      -23.808  76.058  37.588  0.00  0.00    -0.205 F 
ATOM     22  C   LIG    1      -23.143  77.886  36.252  0.00  0.00    +0.046 A 
ENDBRANCH  11  15
ENDBRANCH   4  10
BRANCH   1  25
ATOM     23  N   LIG    1      -24.615  75.987  31.859  0.00  0.00    -0.308 N 
ATOM     24  H   LIG    1      -23.834  75.637  32.410  0.00  0.00    +0.149 HD
ATOM     25  C   LIG    1      -24.288  76.644  30.688  0.00  0.00    +0.249 C 
ATOM     26  O   LIG    1      -25.120  77.027  29.870  0.00  0.00    -0.270 OA
BRANCH  23  29
ATOM     27  C   LIG    1      -26.309  77.038  34.137  0.00  0.00    +0.116 C 
ATOM     28  C   LIG    1      -26.774  76.853  32.700  0.00  0.00    +0.053 C 
ATOM     29  C   LIG    1      -25.978  75.643  32.222  0.00  0.00    +0.076 C 
ATOM     30  C   LIG    1      -26.019  74.713  33.441  0.00  0.00    +0.025 C 
ATOM     31  C   LIG    1      -26.108  75.621  34.671  0.00  0.00    +0.033 C 
BRANCH  27  32
ATOM     32  O   LIG    1      -27.279  77.743  34.889  0.00  0.00    -0.392 OA
ATOM     33  H   LIG    1      -26.809  78.246  35.575  0.00  0.00    +0.210 HD
ENDBRANCH  27  32
ENDBRANCH  23  29
ENDBRANCH   1  25
TORSDOF 5
ENDMDL
MODEL 4
REMARK VINA RESULT:      -5.4     17.581     20.866
REMARK  Name = pdb/CHEMBL3676038.pdb
REMARK                            x       y       z     vdW  Elec       q    Type
REMARK                         _______ _______ _______ _____ _____    ______ ____
ROOT
ATOM      1  C   LIG    1      -37.241  68.871  23.199  0.00  0.00    +0.100 A 
ATOM      2  C   LIG    1      -38.259  69.786  23.398  0.00  0.00    +0.170 A 
ATOM      3  N   LIG    1      -38.344  70.893  24.203  0.00  0.00    -0.212 NA
ATOM      4  C   LIG    1      -39.466  71.578  24.204  0.00  0.00    +0.126 A 
ATOM      5  C   LIG    1      -40.623  71.206  23.302  0.00  0.00    +0.063 A 
ATOM      6  C   LIG    1      -40.492  70.108  22.551  0.00  0.00    +0.118 A 
ATOM      7  N   LIG    1      -39.317  69.378  22.586  0.00  0.00    -0.221 N 
ATOM      8  N   LIG    1      -39.023  68.253  21.894  0.00  0.00    -0.173 NA
ATOM      9  C   LIG    1      -37.774  67.960  22.266  0.00  0.00    +0.150 A 
ENDROOT
BRANCH   4  10
ATOM     10  N   LIG    1      -39.597  72.663  25.063  0.00  0.00    -0.308 N 
ATOM     11  C   LIG    1      -38.582  73.738  25.124  0.00  0.00    +0.108 C 
ATOM     12  C   LIG    1      -38.295  73.828  26.632  0.00  0.00    +0.029 C 
ATOM     13  C   LIG    1      -39.661  73.602  27.253  0.00  0.00    +0.021 C 
ATOM     14  C   LIG    1      -40.261  72.525  26.366  0.00  0.00    +0.107 C 
BRANCH  11  15
ATOM     15  C   LIG    1      -39.085  75.047  24.532  0.00  0.00    +0.011 A 
ATOM     16  C   LIG    1      -38.238  76.167  24.522  0.00  0.00    +0.129 A 
ATOM     17  F   LIG    1      -36.996  76.067  25.017  0.00  0.00    -0.205 F 
ATOM     18  C   LIG    1      -38.645  77.398  24.006  0.00  0.00    +0.041 A 
ATOM     19  C   LIG    1      -39.919  77.527  23.462  0.00  0.00    +0.041 A 
ATOM     20  C   LIG    1      -40.763  76.423  23.439  0.00  0.00    +0.124 A 
ATOM     21  F   LIG    1      -41.986  76.542  22.909  0.00  0.00    -0.205 F 
ATOM     22  C   LIG    1      -40.360  75.195  23.962  0.00  0.00    +0.046 A 
ENDBRANCH  11  15
ENDBRANCH   4  10
BRANCH   1  25
ATOM     23  N   LIG    1      -35.821  69.595  24.969  0.00  0.00    -0.308 N 
ATOM     24  H   LIG    1      -36.629  70.164  25.211  0.00  0.00    +0.149 HD
ATOM     25  C   LIG    1      -35.928  68.844  23.814  0.00  0.00    +0.249 C 
ATOM     26  O   LIG    1      -35.000  68.194  23.339  0.00  0.00    -0.270 OA
BRANCH  23  29
ATOM     27  C   LIG    1      -35.268  68.946  27.874  0.00  0.00    +0.116 C 
ATOM     28  C   LIG    1      -34.375  68.576  26.699  0.00  0.00    +0.053 C 
ATOM     29  C   LIG    1      -34.585  69.727  25.719  0.00  0.00    +0.076 C 
ATOM     30  C   LIG    1      -34.612  70.952  26.641  0.00  0.00    +0.025 C 
ATOM     31  C   LIG    1      -35.167  70.466  27.983  0.00  0.00    +0.033 C 
BRANCH  27  32
ATOM     32  O   LIG    1      -34.824  68.310  29.058  0.00  0.00    -0.392 OA
ATOM     33  H   LIG    1      -34.255  67.566  28.796  0.00  0.00    +0.210 HD
ENDBRANCH  27  32
ENDBRANCH  23  29
ENDBRANCH   1  25
TORSDOF 5
ENDMDL
MODEL 5
REMARK VINA RESULT:      -5.4      2.636      5.712
REMARK  Name = pdb/CHEMBL3676038.pdb
REMARK                            x       y       z     vdW  Elec       q    Type
REMARK                         _______ _______ _______ _____ _____    ______ ____
ROOT
ATOM      1  C   LIG    1      -26.107  77.111  33.214  0.00  0.00    +0.100 A 
ATOM      2  C   LIG    1      -25.479  78.002  34.064  0.00  0.00    +0.170 A 
ATOM      3  N   LIG    1      -24.237  78.582  34.020  0.00  0.00    -0.212 NA
ATOM      4  C   LIG    1      -23.891  79.391  34.997  0.00  0.00    +0.126 A 
ATOM      5  C   LIG    1      -24.849  79.735  36.118  0.00  0.00    +0.063 A 
ATOM      6  C   LIG    1      -26.040  79.128  36.120  0.00  0.00    +0.118 A 
ATOM      7  N   LIG    1      -26.376  78.252  35.103  0.00  0.00    -0.221 N 
ATOM      8  N   LIG    1      -27.530  77.562  34.956  0.00  0.00    -0.173 NA
ATOM      9  C   LIG    1      -27.360  76.884  33.817  0.00  0.00    +0.150 A 
ENDROOT
BRANCH   4  10
ATOM     10  N   LIG    1      -22.613  79.936  35.006  0.00  0.00    -0.308 N 
ATOM     11  C   LIG    1      -21.454  79.202  35.563  0.00  0.00    +0.108 C 
ATOM     12  C   LIG    1      -20.844  80.237  36.521  0.00  0.00    +0.029 C 
ATOM     13  C   LIG    1      -21.030  81.545  35.774  0.00  0.00    +0.021 C 
ATOM     14  C   LIG    1      -22.404  81.384  35.148  0.00  0.00    +0.107 C 
BRANCH  11  15
ATOM     15  C   LIG    1      -20.485  78.741  34.483  0.00  0.00    +0.011 A 
ATOM     16  C   LIG    1      -19.248  78.195  34.859  0.00  0.00    +0.129 A 
ATOM     17  F   LIG    1      -18.942  78.071  36.159  0.00  0.00    -0.205 F 
ATOM     18  C   LIG    1      -18.311  77.768  33.917  0.00  0.00    +0.041 A 
ATOM     19  C   LIG    1      -18.609  77.860  32.561  0.00  0.00    +0.041 A 
ATOM     20  C   LIG    1      -19.839  78.374  32.170  0.00  0.00    +0.124 A 
ATOM     21  F   LIG    1      -20.133  78.456  30.866  0.00  0.00    -0.205 F 
ATOM     22  C   LIG    1      -20.773  78.809  33.110  0.00  0.00    +0.046 A 
ENDBRANCH  11  15
ENDBRANCH   4  10
BRANCH   1  25
ATOM     23  N   LIG    1      -24.402  75.852  32.128  0.00  0.00    -0.308 N 
ATOM     24  H   LIG    1      -23.957  75.912  33.041  0.00  0.00    +0.149 HD
ATOM     25  C   LIG    1      -25.596  76.532  31.986  0.00  0.00    +0.249 C 
ATOM     26  O   LIG    1      -26.194  76.640  30.918  0.00  0.00    -0.270 OA
BRANCH  23  29
ATOM     27  C   LIG    1      -22.131  73.851  32.175  0.00  0.00    +0.116 C 
ATOM     28  C   LIG    1      -23.367  73.766  31.292  0.00  0.00    +0.053 C 
ATOM     29  C   LIG    1      -23.707  75.228  31.016  0.00  0.00    +0.076 C 
ATOM     30  C   LIG    1      -22.326  75.856  30.790  0.00  0.00    +0.025 C 
ATOM     31  C   LIG    1      -21.341  75.041  31.634  0.00  0.00    +0.033 C 
BRANCH  27  32
ATOM     32  O   LIG    1      -21.381  72.653  32.100  0.00  0.00    -0.392 OA
ATOM     33  H   LIG    1      -21.690  72.068  32.812  0.00  0.00    +0.210 HD
ENDBRANCH  27  32
ENDBRANCH  23  29
ENDBRANCH   1  25
TORSDOF 5
ENDMDL
MODEL 6
REMARK VINA RESULT:      -5.4     12.979     16.788
REMARK  Name = pdb/CHEMBL3676038.pdb
REMARK                            x       y       z     vdW  Elec       q    Type
REMARK                         _______ _______ _______ _____ _____    ______ ____
ROOT
ATOM      1  C   LIG    1      -37.260  71.308  24.836  0.00  0.00    +0.100 A 
ATOM      2  C   LIG    1      -36.360  71.132  25.871  0.00  0.00    +0.170 A 
ATOM      3  N   LIG    1      -36.075  71.901  26.970  0.00  0.00    -0.212 NA
ATOM      4  C   LIG    1      -35.136  71.488  27.793  0.00  0.00    +0.126 A 
ATOM      5  C   LIG    1      -34.419  70.172  27.582  0.00  0.00    +0.063 A 
ATOM      6  C   LIG    1      -34.724  69.472  26.485  0.00  0.00    +0.118 A 
ATOM      7  N   LIG    1      -35.691  69.936  25.611  0.00  0.00    -0.221 N 
ATOM      8  N   LIG    1      -36.117  69.354  24.465  0.00  0.00    -0.173 NA
ATOM      9  C   LIG    1      -37.061  70.183  24.011  0.00  0.00    +0.150 A 
ENDROOT
BRANCH   4  10
ATOM     10  N   LIG    1      -34.785  72.286  28.876  0.00  0.00    -0.308 N 
ATOM     11  C   LIG    1      -33.372  72.557  29.222  0.00  0.00    +0.108 C 
ATOM     12  C   LIG    1      -33.330  72.205  30.717  0.00  0.00    +0.029 C 
ATOM     13  C   LIG    1      -34.674  72.696  31.222  0.00  0.00    +0.021 C 
ATOM     14  C   LIG    1      -35.616  72.329  30.088  0.00  0.00    +0.107 C 
BRANCH  11  15
ATOM     15  C   LIG    1      -32.971  73.997  28.935  0.00  0.00    +0.011 A 
ATOM     16  C   LIG    1      -31.788  74.505  29.496  0.00  0.00    +0.129 A 
ATOM     17  F   LIG    1      -31.022  73.715  30.262  0.00  0.00    -0.205 F 
ATOM     18  C   LIG    1      -31.373  75.820  29.283  0.00  0.00    +0.041 A 
ATOM     19  C   LIG    1      -32.134  76.658  28.473  0.00  0.00    +0.041 A 
ATOM     20  C   LIG    1      -33.294  76.165  27.887  0.00  0.00    +0.124 A 
ATOM     21  F   LIG    1      -34.024  76.966  27.100  0.00  0.00    -0.205 F 
ATOM     22  C   LIG    1      -33.714  74.854  28.107  0.00  0.00    +0.046 A 
ENDBRANCH  11  15
ENDBRANCH   4  10
BRANCH   1  25
ATOM     23  N   LIG    1      -37.712  73.639  25.015  0.00  0.00    -0.308 N 
ATOM     24  H   LIG    1      -36.809  73.646  25.485  0.00  0.00    +0.149 HD
ATOM     25  C   LIG    1      -38.192  72.401  24.635  0.00  0.00    +0.249 C 
ATOM     26  O   LIG    1      -39.309  72.224  24.156  0.00  0.00    -0.270 OA
BRANCH  23  29
ATOM     27  C   LIG    1      -37.265  76.306  26.376  0.00  0.00    +0.116 C 
ATOM     28  C   LIG    1      -37.627  76.110  24.911  0.00  0.00    +0.053 C 
ATOM     29  C   LIG    1      -38.498  74.857  24.926  0.00  0.00    +0.076 C 
ATOM     30  C   LIG    1      -39.361  75.064  26.177  0.00  0.00    +0.025 C 
ATOM     31  C   LIG    1      -38.515  75.891  27.149  0.00  0.00    +0.033 C 
BRANCH  27  32
ATOM     32  O   LIG    1      -36.923  77.656  26.628  0.00  0.00    -0.392 OA
ATOM     33  H   LIG    1      -35.962  77.693  26.773  0.00  0.00    +0.210 HD
ENDBRANCH  27  32
ENDBRANCH  23  29
ENDBRANCH   1  25
TORSDOF 5
ENDMDL
MODEL 7
REMARK VINA RESULT:      -5.4     17.735     20.412
REMARK  Name = pdb/CHEMBL3676038.pdb
REMARK                            x       y       z     vdW  Elec       q    Type
REMARK                         _______ _______ _______ _____ _____    ______ ____
ROOT
ATOM      1  C   LIG    1      -24.086  84.779  11.377  0.00  0.00    +0.100 A 
ATOM      2  C   LIG    1      -24.084  83.600  12.099  0.00  0.00    +0.170 A 
ATOM      3  N   LIG    1      -23.217  83.111  13.042  0.00  0.00    -0.212 NA
ATOM      4  C   LIG    1      -23.459  81.926  13.556  0.00  0.00    +0.126 A 
ATOM      5  C   LIG    1      -24.691  81.132  13.175  0.00  0.00    +0.063 A 
ATOM      6  C   LIG    1      -25.492  81.648  12.237  0.00  0.00    +0.118 A 
ATOM      7  N   LIG    1      -25.205  82.882  11.681  0.00  0.00    -0.221 N 
ATOM      8  N   LIG    1      -25.907  83.543  10.731  0.00  0.00    -0.173 NA
ATOM      9  C   LIG    1      -25.229  84.681  10.559  0.00  0.00    +0.150 A 
ENDROOT
BRANCH   4  10
ATOM     10  N   LIG    1      -22.557  81.383  14.464  0.00  0.00    -0.308 N 
ATOM     11  C   LIG    1      -22.996  80.509  15.575  0.00  0.00    +0.108 C 
ATOM     12  C   LIG    1      -22.323  81.167  16.791  0.00  0.00    +0.029 C 
ATOM     13  C   LIG    1      -20.982  81.613  16.239  0.00  0.00    +0.021 C 
ATOM     14  C   LIG    1      -21.336  82.106  14.847  0.00  0.00    +0.107 C 
BRANCH  11  15
ATOM     15  C   LIG    1      -22.581  79.059  15.372  0.00  0.00    +0.011 A 
ATOM     16  C   LIG    1      -23.565  78.058  15.359  0.00  0.00    +0.129 A 
ATOM     17  F   LIG    1      -24.855  78.391  15.507  0.00  0.00    -0.205 F 
ATOM     18  C   LIG    1      -23.247  76.710  15.192  0.00  0.00    +0.041 A 
ATOM     19  C   LIG    1      -21.920  76.335  15.010  0.00  0.00    +0.041 A 
ATOM     20  C   LIG    1      -20.934  77.314  14.994  0.00  0.00    +0.124 A 
ATOM     21  F   LIG    1      -19.656  76.957  14.811  0.00  0.00    -0.205 F 
ATOM     22  C   LIG    1      -21.249  78.661  15.170  0.00  0.00    +0.046 A 
ENDBRANCH  11  15
ENDBRANCH   4  10
BRANCH   1  25
ATOM     23  N   LIG    1      -22.626  86.120  12.697  0.00  0.00    -0.308 N 
ATOM     24  H   LIG    1      -23.048  85.596  13.462  0.00  0.00    +0.149 HD
ATOM     25  C   LIG    1      -23.128  85.867  11.435  0.00  0.00    +0.249 C 
ATOM     26  O   LIG    1      -22.795  86.495  10.433  0.00  0.00    -0.270 OA
BRANCH  23  29
ATOM     27  C   LIG    1      -21.741  87.237  15.367  0.00  0.00    +0.116 C 
ATOM     28  C   LIG    1      -20.823  86.894  14.203  0.00  0.00    +0.053 C 
ATOM     29  C   LIG    1      -21.682  87.187  12.977  0.00  0.00    +0.076 C 
ATOM     30  C   LIG    1      -22.397  88.485  13.371  0.00  0.00    +0.025 C 
ATOM     31  C   LIG    1      -22.539  88.450  14.895  0.00  0.00    +0.033 C 
BRANCH  27  32
ATOM     32  O   LIG    1      -20.986  87.533  16.528  0.00  0.00    -0.392 OA
ATOM     33  H   LIG    1      -20.054  87.604  16.261  0.00  0.00    +0.210 HD
ENDBRANCH  27  32
ENDBRANCH  23  29
ENDBRANCH   1  25
TORSDOF 5
ENDMDL
MODEL 8
REMARK VINA RESULT:      -5.4      1.885      2.317
REMARK  Name = pdb/CHEMBL3676038.pdb
REMARK                            x       y       z     vdW  Elec       q    Type
REMARK                         _______ _______ _______ _____ _____    ______ ____
ROOT
ATOM      1  C   LIG    1      -25.016  77.203  32.447  0.00  0.00    +0.100 A 
ATOM      2  C   LIG    1      -23.748  77.139  31.899  0.00  0.00    +0.170 A 
ATOM      3  N   LIG    1      -22.507  77.082  32.479  0.00  0.00    -0.212 NA
ATOM      4  C   LIG    1      -21.453  77.049  31.694  0.00  0.00    +0.126 A 
ATOM      5  C   LIG    1      -21.588  77.012  30.187  0.00  0.00    +0.063 A 
ATOM      6  C   LIG    1      -22.820  77.087  29.675  0.00  0.00    +0.118 A 
ATOM      7  N   LIG    1      -23.918  77.155  30.514  0.00  0.00    -0.221 N 
ATOM      8  N   LIG    1      -25.223  77.234  30.163  0.00  0.00    -0.173 NA
ATOM      9  C   LIG    1      -25.873  77.258  31.330  0.00  0.00    +0.150 A 
ENDROOT
BRANCH   4  10
ATOM     10  N   LIG    1      -20.184  77.060  32.262  0.00  0.00    -0.308 N 
ATOM     11  C   LIG    1      -19.385  78.300  32.366  0.00  0.00    +0.108 C 
ATOM     12  C   LIG    1      -18.041  77.873  31.755  0.00  0.00    +0.029 C 
ATOM     13  C   LIG    1      -17.880  76.446  32.245  0.00  0.00    +0.021 C 
ATOM     14  C   LIG    1      -19.293  75.896  32.151  0.00  0.00    +0.107 C 
BRANCH  11  15
ATOM     15  C   LIG    1      -19.260  78.792  33.801  0.00  0.00    +0.011 A 
ATOM     16  C   LIG    1      -20.357  79.422  34.410  0.00  0.00    +0.129 A 
ATOM     17  F   LIG    1      -21.503  79.570  33.728  0.00  0.00    -0.205 F 
ATOM     18  C   LIG    1      -20.301  79.907  35.717  0.00  0.00    +0.041 A 
ATOM     19  C   LIG    1      -19.136  79.747  36.459  0.00  0.00    +0.041 A 
ATOM     20  C   LIG    1      -18.048  79.102  35.884  0.00  0.00    +0.124 A 
ATOM     21  F   LIG    1      -16.927  78.939  36.598  0.00  0.00    -0.205 F 
ATOM     22  C   LIG    1      -18.099  78.625  34.574  0.00  0.00    +0.046 A 
ENDBRANCH  11  15
ENDBRANCH   4  10
BRANCH   1  25
ATOM     23  N   LIG    1      -24.662  78.108  34.622  0.00  0.00    -0.308 N 
ATOM     24  H   LIG    1      -23.885  78.576  34.159  0.00  0.00    +0.149 HD
ATOM     25  C   LIG    1      -25.386  77.221  33.850  0.00  0.00    +0.249 C 
ATOM     26  O   LIG    1      -26.280  76.505  34.295  0.00  0.00    -0.270 OA
BRANCH  23  29
ATOM     27  C   LIG    1      -25.255  80.607  36.223  0.00  0.00    +0.116 C 
ATOM     28  C   LIG    1      -25.948  79.263  36.391  0.00  0.00    +0.053 C 
ATOM     29  C   LIG    1      -24.854  78.255  36.053  0.00  0.00    +0.076 C 
ATOM     30  C   LIG    1      -23.618  78.863  36.729  0.00  0.00    +0.025 C 
ATOM     31  C   LIG    1      -23.830  80.380  36.723  0.00  0.00    +0.033 C 
BRANCH  27  32
ATOM     32  O   LIG    1      -25.916  81.607  36.977  0.00  0.00    -0.392 OA
ATOM     33  H   LIG    1      -26.301  82.241  36.348  0.00  0.00    +0.210 HD
ENDBRANCH  27  32
ENDBRANCH  23  29
ENDBRANCH   1  25
TORSDOF 5
ENDMDL
MODEL 9
REMARK VINA RESULT:      -5.3     15.294     19.471
REMARK  Name = pdb/CHEMBL3676038.pdb
REMARK                            x       y       z     vdW  Elec       q    Type
REMARK                         _______ _______ _______ _____ _____    ______ ____
ROOT
ATOM      1  C   LIG    1      -35.434  71.022  26.903  0.00  0.00    +0.100 A 
ATOM      2  C   LIG    1      -36.375  70.979  25.890  0.00  0.00    +0.170 A 
ATOM      3  N   LIG    1      -37.454  71.778  25.615  0.00  0.00    -0.212 NA
ATOM      4  C   LIG    1      -38.202  71.480  24.575  0.00  0.00    +0.126 A 
ATOM      5  C   LIG    1      -37.860  70.326  23.657  0.00  0.00    +0.063 A 
ATOM      6  C   LIG    1      -36.806  69.570  23.982  0.00  0.00    +0.118 A 
ATOM      7  N   LIG    1      -36.050  69.876  25.100  0.00  0.00    -0.221 N 
ATOM      8  N   LIG    1      -34.961  69.220  25.565  0.00  0.00    -0.173 NA
ATOM      9  C   LIG    1      -34.597  69.918  26.644  0.00  0.00    +0.150 A 
ENDROOT
BRANCH   4  10
ATOM     10  N   LIG    1      -39.339  72.237  24.318  0.00  0.00    -0.308 N 
ATOM     11  C   LIG    1      -39.830  73.259  25.270  0.00  0.00    +0.108 C 
ATOM     12  C   LIG    1      -41.311  72.875  25.423  0.00  0.00    +0.029 C 
ATOM     13  C   LIG    1      -41.696  72.437  24.022  0.00  0.00    +0.021 C 
ATOM     14  C   LIG    1      -40.464  71.682  23.553  0.00  0.00    +0.107 C 
BRANCH  11  15
ATOM     15  C   LIG    1      -39.629  74.676  24.755  0.00  0.00    +0.011 A 
ATOM     16  C   LIG    1      -38.377  75.293  24.907  0.00  0.00    +0.129 A 
ATOM     17  F   LIG    1      -37.371  74.621  25.488  0.00  0.00    -0.205 F 
ATOM     18  C   LIG    1      -38.134  76.595  24.469  0.00  0.00    +0.041 A 
ATOM     19  C   LIG    1      -39.149  77.308  23.840  0.00  0.00    +0.041 A 
ATOM     20  C   LIG    1      -40.388  76.706  23.656  0.00  0.00    +0.124 A 
ATOM     21  F   LIG    1      -41.365  77.387  23.044  0.00  0.00    -0.205 F 
ATOM     22  C   LIG    1      -40.635  75.408  24.101  0.00  0.00    +0.046 A 
ENDBRANCH  11  15
ENDBRANCH   4  10
BRANCH   1  25
ATOM     23  N   LIG    1      -35.067  73.272  27.592  0.00  0.00    -0.308 N 
ATOM     24  H   LIG    1      -34.871  73.406  26.602  0.00  0.00    +0.149 HD
ATOM     25  C   LIG    1      -35.332  71.976  27.990  0.00  0.00    +0.249 C 
ATOM     26  O   LIG    1      -35.481  71.644  29.164  0.00  0.00    -0.270 OA
BRANCH  23  29
ATOM     27  C   LIG    1      -35.277  76.251  27.099  0.00  0.00    +0.116 C 
ATOM     28  C   LIG    1      -35.885  75.504  28.277  0.00  0.00    +0.053 C 
ATOM     29  C   LIG    1      -34.895  74.370  28.526  0.00  0.00    +0.076 C 
ATOM     30  C   LIG    1      -33.539  75.062  28.339  0.00  0.00    +0.025 C 
ATOM     31  C   LIG    1      -33.769  76.190  27.329  0.00  0.00    +0.033 C 
BRANCH  27  32
ATOM     32  O   LIG    1      -35.743  77.588  27.061  0.00  0.00    -0.392 OA
ATOM     33  H   LIG    1      -35.053  78.149  27.455  0.00  0.00    +0.210 HD
ENDBRANCH  27  32
ENDBRANCH  23  29
ENDBRANCH   1  25
TORSDOF 5
ENDMDL
