MODEL 1
REMARK VINA RESULT:      -7.8      0.000      0.000
REMARK  Name = pdb/CHEMBL3976747.pdb
REMARK                            x       y       z     vdW  Elec       q    Type
REMARK                         _______ _______ _______ _____ _____    ______ ____
ROOT
ATOM      1  C   LIG    1      -29.280  84.629  35.477  0.00  0.00    +0.285 C 
ATOM      2  N   LIG    1      -29.148  84.092  36.634  0.00  0.00    -0.196 NA
ENDROOT
BRANCH   2   3
ATOM      3  C   LIG    1      -28.082  83.249  36.978  0.00  0.00    +0.105 A 
ATOM      4  C   LIG    1      -28.267  81.971  37.450  0.00  0.00    +0.145 A 
ATOM      5  N   LIG    1      -27.254  81.109  37.705  0.00  0.00    -0.201 NA
ATOM      6  C   LIG    1      -26.013  81.544  37.418  0.00  0.00    +0.323 A 
ATOM      7  N   LIG    1      -25.703  82.807  37.093  0.00  0.00    -0.201 NA
ATOM      8  C   LIG    1      -26.761  83.644  36.936  0.00  0.00    +0.145 A 
BRANCH   6   9
ATOM      9  O   LIG    1      -24.976  80.614  37.319  0.00  0.00    -0.424 OA
BRANCH   9  10
ATOM     10  C   LIG    1      -24.784  79.992  36.098  0.00  0.00    +0.132 A 
ATOM     11  C   LIG    1      -23.754  80.315  35.207  0.00  0.00    +0.047 A 
ATOM     12  C   LIG    1      -23.639  79.676  33.967  0.00  0.00    +0.012 A 
ATOM     13  C   LIG    1      -24.517  78.647  33.610  0.00  0.00    -0.014 A 
ATOM     14  C   LIG    1      -25.525  78.304  34.521  0.00  0.00    +0.012 A 
ATOM     15  C   LIG    1      -25.655  78.958  35.757  0.00  0.00    +0.047 A 
BRANCH  13  16
ATOM     16  C   LIG    1      -24.408  77.997  32.308  0.00  0.00    +0.027 A 
ATOM     17  C   LIG    1      -23.250  77.572  31.678  0.00  0.00    +0.075 A 
ATOM     18  C   LIG    1      -21.847  77.600  31.962  0.00  0.00    +0.028 A 
ATOM     19  C   LIG    1      -20.971  77.039  31.110  0.00  0.00    +0.004 A 
ATOM     20  C   LIG    1      -21.404  76.425  29.870  0.00  0.00    +0.020 A 
ATOM     21  C   LIG    1      -22.715  76.412  29.583  0.00  0.00    +0.113 A 
ATOM     22  N   LIG    1      -23.639  76.974  30.470  0.00  0.00    -0.239 N 
ATOM     23  N   LIG    1      -24.985  77.023  30.307  0.00  0.00    -0.174 NA
ATOM     24  C   LIG    1      -25.433  77.631  31.404  0.00  0.00    +0.143 A 
ENDBRANCH  13  16
ENDBRANCH   9  10
ENDBRANCH   6   9
ENDBRANCH   2   3
BRANCH   1  25
ATOM     25  O   LIG    1      -28.527  84.273  34.412  0.00  0.00    -0.481 OA
ATOM     26  H   LIG    1      -28.392  83.311  34.384  0.00  0.00    +0.295 HD
ENDBRANCH   1  25
BRANCH   1  27
ATOM     27  N   LIG    1      -30.144  85.621  35.069  0.00  0.00    -0.269 N 
ATOM     28  H   LIG    1      -31.036  85.569  35.543  0.00  0.00    +0.157 HD
BRANCH  27  29
ATOM     29  C   LIG    1      -30.208  86.229  33.790  0.00  0.00    +0.043 A 
ATOM     30  C   LIG    1      -29.387  87.342  33.430  0.00  0.00    +0.005 A 
ATOM     31  C   LIG    1      -29.558  87.863  32.117  0.00  0.00    +0.011 A 
ATOM     32  C   LIG    1      -30.468  87.336  31.197  0.00  0.00    +0.013 A 
ATOM     33  C   LIG    1      -31.231  86.228  31.535  0.00  0.00    +0.057 A 
ATOM     34  C   LIG    1      -31.076  85.691  32.812  0.00  0.00    +0.036 A 
BRANCH  30  35
ATOM     35  C   LIG    1      -28.384  88.010  34.318  0.00  0.00    +0.002 A 
ATOM     36  C   LIG    1      -27.179  87.424  34.711  0.00  0.00    +0.119 A 
ATOM     37  N   LIG    1      -26.258  87.986  35.542  0.00  0.00    -0.263 NA
ATOM     38  C   LIG    1      -26.506  89.237  35.976  0.00  0.00    +0.111 A 
ATOM     39  C   LIG    1      -27.627  89.953  35.612  0.00  0.00    +0.020 A 
ATOM     40  C   LIG    1      -28.570  89.326  34.792  0.00  0.00    +0.011 A 
ENDBRANCH  30  35
BRANCH  33  41
ATOM     41  C   LIG    1      -32.200  85.613  30.557  0.00  0.00    +0.417 C 
ATOM     42  F   LIG    1      -31.692  85.550  29.296  0.00  0.00    -0.166 F 
ATOM     43  F   LIG    1      -33.359  86.322  30.462  0.00  0.00    -0.166 F 
ATOM     44  F   LIG    1      -32.571  84.340  30.872  0.00  0.00    -0.166 F 
ENDBRANCH  33  41
ENDBRANCH  27  29
ENDBRANCH   1  27
TORSDOF 9
ENDMDL
MODEL 2
REMARK VINA RESULT:      -7.7     17.799     21.489
REMARK  Name = pdb/CHEMBL3976747.pdb
REMARK                            x       y       z     vdW  Elec       q    Type
REMARK                         _______ _______ _______ _____ _____    ______ ____
ROOT
ATOM      1  C   LIG    1      -38.370  69.319  22.681  0.00  0.00    +0.285 C 
ATOM      2  N   LIG    1      -38.936  68.689  21.718  0.00  0.00    -0.196 NA
ENDROOT
BRANCH   2   3
ATOM      3  C   LIG    1      -38.236  67.901  20.793  0.00  0.00    +0.105 A 
ATOM      4  C   LIG    1      -37.667  68.420  19.653  0.00  0.00    +0.145 A 
ATOM      5  N   LIG    1      -36.914  67.696  18.793  0.00  0.00    -0.201 NA
ATOM      6  C   LIG    1      -36.686  66.413  19.130  0.00  0.00    +0.323 A 
ATOM      7  N   LIG    1      -37.300  65.766  20.131  0.00  0.00    -0.201 NA
ATOM      8  C   LIG    1      -38.111  66.532  20.907  0.00  0.00    +0.145 A 
BRANCH   6   9
ATOM      9  O   LIG    1      -35.653  65.720  18.497  0.00  0.00    -0.424 OA
BRANCH   9  10
ATOM     10  C   LIG    1      -34.379  66.257  18.565  0.00  0.00    +0.132 A 
ATOM     11  C   LIG    1      -33.618  66.323  19.738  0.00  0.00    +0.047 A 
ATOM     12  C   LIG    1      -32.351  66.918  19.749  0.00  0.00    +0.012 A 
ATOM     13  C   LIG    1      -31.783  67.409  18.568  0.00  0.00    -0.014 A 
ATOM     14  C   LIG    1      -32.535  67.309  17.391  0.00  0.00    +0.012 A 
ATOM     15  C   LIG    1      -33.816  66.731  17.381  0.00  0.00    +0.047 A 
BRANCH  13  16
ATOM     16  C   LIG    1      -30.472  68.048  18.587  0.00  0.00    +0.027 A 
ATOM     17  C   LIG    1      -30.189  69.389  18.383  0.00  0.00    +0.075 A 
ATOM     18  C   LIG    1      -30.939  70.569  18.078  0.00  0.00    +0.028 A 
ATOM     19  C   LIG    1      -30.321  71.760  17.983  0.00  0.00    +0.004 A 
ATOM     20  C   LIG    1      -28.886  71.886  18.147  0.00  0.00    +0.020 A 
ATOM     21  C   LIG    1      -28.170  70.782  18.412  0.00  0.00    +0.113 A 
ATOM     22  N   LIG    1      -28.802  69.541  18.533  0.00  0.00    -0.239 N 
ATOM     23  N   LIG    1      -28.203  68.355  18.802  0.00  0.00    -0.174 NA
ATOM     24  C   LIG    1      -29.202  67.474  18.834  0.00  0.00    +0.143 A 
ENDBRANCH  13  16
ENDBRANCH   9  10
ENDBRANCH   6   9
ENDBRANCH   2   3
BRANCH   1  25
ATOM     25  O   LIG    1      -37.029  69.460  22.778  0.00  0.00    -0.481 OA
ATOM     26  H   LIG    1      -36.567  68.823  22.208  0.00  0.00    +0.295 HD
ENDBRANCH   1  25
BRANCH   1  27
ATOM     27  N   LIG    1      -38.939  69.950  23.765  0.00  0.00    -0.269 N 
ATOM     28  H   LIG    1      -39.373  69.296  24.403  0.00  0.00    +0.157 HD
BRANCH  27  29
ATOM     29  C   LIG    1      -39.508  71.248  23.799  0.00  0.00    +0.043 A 
ATOM     30  C   LIG    1      -40.786  71.539  23.230  0.00  0.00    +0.005 A 
ATOM     31  C   LIG    1      -41.236  72.885  23.325  0.00  0.00    +0.011 A 
ATOM     32  C   LIG    1      -40.497  73.897  23.943  0.00  0.00    +0.013 A 
ATOM     33  C   LIG    1      -39.277  73.601  24.534  0.00  0.00    +0.057 A 
ATOM     34  C   LIG    1      -38.818  72.287  24.463  0.00  0.00    +0.036 A 
BRANCH  30  35
ATOM     35  C   LIG    1      -41.674  70.557  22.530  0.00  0.00    +0.002 A 
ATOM     36  C   LIG    1      -41.864  70.527  21.147  0.00  0.00    +0.119 A 
ATOM     37  N   LIG    1      -42.686  69.672  20.478  0.00  0.00    -0.263 NA
ATOM     38  C   LIG    1      -43.327  68.738  21.208  0.00  0.00    +0.111 A 
ATOM     39  C   LIG    1      -43.176  68.617  22.574  0.00  0.00    +0.020 A 
ATOM     40  C   LIG    1      -42.357  69.541  23.230  0.00  0.00    +0.011 A 
ENDBRANCH  30  35
BRANCH  33  41
ATOM     41  C   LIG    1      -38.467  74.661  25.237  0.00  0.00    +0.417 C 
ATOM     42  F   LIG    1      -37.858  74.187  26.359  0.00  0.00    -0.166 F 
ATOM     43  F   LIG    1      -39.231  75.713  25.640  0.00  0.00    -0.166 F 
ATOM     44  F   LIG    1      -37.474  75.195  24.474  0.00  0.00    -0.166 F 
ENDBRANCH  33  41
ENDBRANCH  27  29
ENDBRANCH   1  27
TORSDOF 9
ENDMDL
MODEL 3
REMARK VINA RESULT:      -7.6     18.617     21.788
REMARK  Name = pdb/CHEMBL3976747.pdb
REMARK                            x       y       z     vdW  Elec       q    Type
REMARK                         _______ _______ _______ _____ _____    ______ ____
ROOT
ATOM      1  C   LIG    1      -40.562  69.377  21.815  0.00  0.00    +0.285 C 
ATOM      2  N   LIG    1      -39.620  68.520  21.966  0.00  0.00    -0.196 NA
ENDROOT
BRANCH   2   3
ATOM      3  C   LIG    1      -38.853  68.021  20.904  0.00  0.00    +0.105 A 
ATOM      4  C   LIG    1      -37.721  68.652  20.443  0.00  0.00    +0.145 A 
ATOM      5  N   LIG    1      -36.917  68.145  19.479  0.00  0.00    -0.201 NA
ATOM      6  C   LIG    1      -37.246  66.928  19.005  0.00  0.00    +0.323 A 
ATOM      7  N   LIG    1      -38.393  66.289  19.273  0.00  0.00    -0.201 NA
ATOM      8  C   LIG    1      -39.197  66.894  20.186  0.00  0.00    +0.145 A 
BRANCH   6   9
ATOM      9  O   LIG    1      -36.293  66.202  18.288  0.00  0.00    -0.424 OA
BRANCH   9  10
ATOM     10  C   LIG    1      -34.980  66.639  18.334  0.00  0.00    +0.132 A 
ATOM     11  C   LIG    1      -34.382  67.430  17.346  0.00  0.00    +0.047 A 
ATOM     12  C   LIG    1      -33.036  67.804  17.432  0.00  0.00    +0.012 A 
ATOM     13  C   LIG    1      -32.266  67.450  18.545  0.00  0.00    -0.014 A 
ATOM     14  C   LIG    1      -32.880  66.688  19.548  0.00  0.00    +0.012 A 
ATOM     15  C   LIG    1      -34.225  66.294  19.454  0.00  0.00    +0.047 A 
BRANCH  13  16
ATOM     16  C   LIG    1      -30.858  67.824  18.621  0.00  0.00    +0.027 A 
ATOM     17  C   LIG    1      -30.316  69.089  18.460  0.00  0.00    +0.075 A 
ATOM     18  C   LIG    1      -30.814  70.397  18.161  0.00  0.00    +0.028 A 
ATOM     19  C   LIG    1      -29.975  71.447  18.115  0.00  0.00    +0.004 A 
ATOM     20  C   LIG    1      -28.550  71.292  18.328  0.00  0.00    +0.020 A 
ATOM     21  C   LIG    1      -28.070  70.066  18.588  0.00  0.00    +0.113 A 
ATOM     22  N   LIG    1      -28.932  68.968  18.658  0.00  0.00    -0.239 N 
ATOM     23  N   LIG    1      -28.582  67.683  18.916  0.00  0.00    -0.174 NA
ATOM     24  C   LIG    1      -29.732  67.011  18.894  0.00  0.00    +0.143 A 
ENDBRANCH  13  16
ENDBRANCH   9  10
ENDBRANCH   6   9
ENDBRANCH   2   3
BRANCH   1  25
ATOM     25  O   LIG    1      -41.051  69.726  20.605  0.00  0.00    -0.481 OA
ATOM     26  H   LIG    1      -41.992  69.962  20.662  0.00  0.00    +0.295 HD
ENDBRANCH   1  25
BRANCH   1  27
ATOM     27  N   LIG    1      -41.247  70.097  22.769  0.00  0.00    -0.269 N 
ATOM     28  H   LIG    1      -42.198  69.771  22.884  0.00  0.00    +0.157 HD
BRANCH  27  29
ATOM     29  C   LIG    1      -41.062  71.460  23.111  0.00  0.00    +0.043 A 
ATOM     30  C   LIG    1      -42.019  72.469  22.781  0.00  0.00    +0.005 A 
ATOM     31  C   LIG    1      -41.705  73.799  23.174  0.00  0.00    +0.011 A 
ATOM     32  C   LIG    1      -40.534  74.140  23.858  0.00  0.00    +0.013 A 
ATOM     33  C   LIG    1      -39.630  73.151  24.216  0.00  0.00    +0.057 A 
ATOM     34  C   LIG    1      -39.918  71.838  23.851  0.00  0.00    +0.036 A 
BRANCH  30  35
ATOM     35  C   LIG    1      -43.302  72.246  22.044  0.00  0.00    +0.002 A 
ATOM     36  C   LIG    1      -44.518  71.959  22.667  0.00  0.00    +0.119 A 
ATOM     37  N   LIG    1      -45.699  71.719  22.030  0.00  0.00    -0.263 NA
ATOM     38  C   LIG    1      -45.704  71.822  20.687  0.00  0.00    +0.111 A 
ATOM     39  C   LIG    1      -44.586  72.162  19.954  0.00  0.00    +0.020 A 
ATOM     40  C   LIG    1      -43.384  72.359  20.639  0.00  0.00    +0.011 A 
ENDBRANCH  30  35
BRANCH  33  41
ATOM     41  C   LIG    1      -38.372  73.477  24.981  0.00  0.00    +0.417 C 
ATOM     42  F   LIG    1      -38.590  73.564  26.322  0.00  0.00    -0.166 F 
ATOM     43  F   LIG    1      -37.835  74.672  24.609  0.00  0.00    -0.166 F 
ATOM     44  F   LIG    1      -37.376  72.560  24.825  0.00  0.00    -0.166 F 
ENDBRANCH  33  41
ENDBRANCH  27  29
ENDBRANCH   1  27
TORSDOF 9
ENDMDL
MODEL 4
REMARK VINA RESULT:      -7.6     18.238     20.773
REMARK  Name = pdb/CHEMBL3976747.pdb
REMARK                            x       y       z     vdW  Elec       q    Type
REMARK                         _______ _______ _______ _____ _____    ______ ____
ROOT
ATOM      1  C   LIG    1      -40.289  69.981  22.547  0.00  0.00    +0.285 C 
ATOM      2  N   LIG    1      -39.373  69.088  22.626  0.00  0.00    -0.196 NA
ENDROOT
BRANCH   2   3
ATOM      3  C   LIG    1      -38.796  68.471  21.506  0.00  0.00    +0.105 A 
ATOM      4  C   LIG    1      -37.806  69.064  20.758  0.00  0.00    +0.145 A 
ATOM      5  N   LIG    1      -37.174  68.454  19.728  0.00  0.00    -0.201 NA
ATOM      6  C   LIG    1      -37.525  67.177  19.484  0.00  0.00    +0.323 A 
ATOM      7  N   LIG    1      -38.566  66.550  20.049  0.00  0.00    -0.201 NA
ATOM      8  C   LIG    1      -39.212  67.251  21.017  0.00  0.00    +0.145 A 
BRANCH   6   9
ATOM      9  O   LIG    1      -36.689  66.386  18.693  0.00  0.00    -0.424 OA
BRANCH   9  10
ATOM     10  C   LIG    1      -35.333  66.661  18.712  0.00  0.00    +0.132 A 
ATOM     11  C   LIG    1      -34.489  66.370  19.790  0.00  0.00    +0.047 A 
ATOM     12  C   LIG    1      -33.132  66.713  19.764  0.00  0.00    +0.012 A 
ATOM     13  C   LIG    1      -32.567  67.300  18.627  0.00  0.00    -0.014 A 
ATOM     14  C   LIG    1      -33.409  67.557  17.537  0.00  0.00    +0.012 A 
ATOM     15  C   LIG    1      -34.776  67.234  17.570  0.00  0.00    +0.047 A 
BRANCH  13  16
ATOM     16  C   LIG    1      -31.157  67.676  18.610  0.00  0.00    +0.027 A 
ATOM     17  C   LIG    1      -30.627  68.936  18.386  0.00  0.00    +0.075 A 
ATOM     18  C   LIG    1      -31.144  70.237  18.086  0.00  0.00    +0.028 A 
ATOM     19  C   LIG    1      -30.311  71.286  17.966  0.00  0.00    +0.004 A 
ATOM     20  C   LIG    1      -28.875  71.136  18.096  0.00  0.00    +0.020 A 
ATOM     21  C   LIG    1      -28.378  69.916  18.357  0.00  0.00    +0.113 A 
ATOM     22  N   LIG    1      -29.234  68.820  18.504  0.00  0.00    -0.239 N 
ATOM     23  N   LIG    1      -28.867  67.542  18.772  0.00  0.00    -0.174 NA
ATOM     24  C   LIG    1      -30.015  66.870  18.834  0.00  0.00    +0.143 A 
ENDBRANCH  13  16
ENDBRANCH   9  10
ENDBRANCH   6   9
ENDBRANCH   2   3
BRANCH   1  25
ATOM     25  O   LIG    1      -40.940  70.266  21.398  0.00  0.00    -0.481 OA
ATOM     26  H   LIG    1      -41.464  71.080  21.484  0.00  0.00    +0.295 HD
ENDBRANCH   1  25
BRANCH   1  27
ATOM     27  N   LIG    1      -40.792  70.805  23.530  0.00  0.00    -0.269 N 
ATOM     28  H   LIG    1      -41.778  70.650  23.691  0.00  0.00    +0.157 HD
BRANCH  27  29
ATOM     29  C   LIG    1      -40.355  72.113  23.858  0.00  0.00    +0.043 A 
ATOM     30  C   LIG    1      -39.123  72.360  24.539  0.00  0.00    +0.005 A 
ATOM     31  C   LIG    1      -38.808  73.719  24.815  0.00  0.00    +0.011 A 
ATOM     32  C   LIG    1      -39.633  74.787  24.448  0.00  0.00    +0.013 A 
ATOM     33  C   LIG    1      -40.806  74.545  23.748  0.00  0.00    +0.057 A 
ATOM     34  C   LIG    1      -41.133  73.222  23.456  0.00  0.00    +0.036 A 
BRANCH  30  35
ATOM     35  C   LIG    1      -38.155  71.315  24.999  0.00  0.00    +0.002 A 
ATOM     36  C   LIG    1      -36.958  71.020  24.343  0.00  0.00    +0.119 A 
ATOM     37  N   LIG    1      -36.068  70.056  24.712  0.00  0.00    -0.263 NA
ATOM     38  C   LIG    1      -36.341  69.368  25.838  0.00  0.00    +0.111 A 
ATOM     39  C   LIG    1      -37.456  69.604  26.613  0.00  0.00    +0.020 A 
ATOM     40  C   LIG    1      -38.367  70.572  26.179  0.00  0.00    +0.011 A 
ENDBRANCH  30  35
BRANCH  33  41
ATOM     41  C   LIG    1      -41.705  75.673  23.308  0.00  0.00    +0.417 C 
ATOM     42  F   LIG    1      -42.323  76.281  24.357  0.00  0.00    -0.166 F 
ATOM     43  F   LIG    1      -42.698  75.249  22.479  0.00  0.00    -0.166 F 
ATOM     44  F   LIG    1      -41.059  76.665  22.633  0.00  0.00    -0.166 F 
ENDBRANCH  33  41
ENDBRANCH  27  29
ENDBRANCH   1  27
TORSDOF 9
ENDMDL
MODEL 5
REMARK VINA RESULT:      -7.4     19.342     23.732
REMARK  Name = pdb/CHEMBL3976747.pdb
REMARK                            x       y       z     vdW  Elec       q    Type
REMARK                         _______ _______ _______ _____ _____    ______ ____
ROOT
ATOM      1  C   LIG    1      -23.876  84.826  11.868  0.00  0.00    +0.285 C 
ATOM      2  N   LIG    1      -23.279  85.808  11.300  0.00  0.00    -0.196 NA
ENDROOT
BRANCH   2   3
ATOM      3  C   LIG    1      -23.794  87.113  11.273  0.00  0.00    +0.105 A 
ATOM      4  C   LIG    1      -23.184  88.166  11.915  0.00  0.00    +0.145 A 
ATOM      5  N   LIG    1      -23.612  89.447  11.831  0.00  0.00    -0.201 NA
ATOM      6  C   LIG    1      -24.666  89.674  11.023  0.00  0.00    +0.323 A 
ATOM      7  N   LIG    1      -25.421  88.716  10.467  0.00  0.00    -0.201 NA
ATOM      8  C   LIG    1      -24.984  87.445  10.661  0.00  0.00    +0.145 A 
BRANCH   6   9
ATOM      9  O   LIG    1      -24.936  90.982  10.615  0.00  0.00    -0.424 OA
BRANCH   9  10
ATOM     10  C   LIG    1      -25.464  91.853  11.551  0.00  0.00    +0.132 A 
ATOM     11  C   LIG    1      -26.041  91.448  12.761  0.00  0.00    +0.047 A 
ATOM     12  C   LIG    1      -26.597  92.378  13.647  0.00  0.00    +0.012 A 
ATOM     13  C   LIG    1      -26.533  93.749  13.376  0.00  0.00    -0.014 A 
ATOM     14  C   LIG    1      -25.922  94.151  12.181  0.00  0.00    +0.012 A 
ATOM     15  C   LIG    1      -25.383  93.218  11.280  0.00  0.00    +0.047 A 
BRANCH  13  16
ATOM     16  C   LIG    1      -27.131  94.715  14.292  0.00  0.00    +0.027 A 
ATOM     17  C   LIG    1      -28.303  94.568  15.017  0.00  0.00    +0.075 A 
ATOM     18  C   LIG    1      -29.318  93.567  15.152  0.00  0.00    +0.028 A 
ATOM     19  C   LIG    1      -30.338  93.747  16.009  0.00  0.00    +0.004 A 
ATOM     20  C   LIG    1      -30.468  94.961  16.791  0.00  0.00    +0.020 A 
ATOM     21  C   LIG    1      -29.534  95.915  16.657  0.00  0.00    +0.113 A 
ATOM     22  N   LIG    1      -28.457  95.733  15.784  0.00  0.00    -0.239 N 
ATOM     23  N   LIG    1      -27.446  96.609  15.558  0.00  0.00    -0.174 NA
ATOM     24  C   LIG    1      -26.663  95.995  14.672  0.00  0.00    +0.143 A 
ENDBRANCH  13  16
ENDBRANCH   9  10
ENDBRANCH   6   9
ENDBRANCH   2   3
BRANCH   1  25
ATOM     25  O   LIG    1      -25.150  84.897  12.312  0.00  0.00    -0.481 OA
ATOM     26  H   LIG    1      -25.261  84.401  13.140  0.00  0.00    +0.295 HD
ENDBRANCH   1  25
BRANCH   1  27
ATOM     27  N   LIG    1      -23.403  83.563  12.148  0.00  0.00    -0.269 N 
ATOM     28  H   LIG    1      -23.585  82.911  11.395  0.00  0.00    +0.157 HD
BRANCH  27  29
ATOM     29  C   LIG    1      -23.293  82.951  13.422  0.00  0.00    +0.043 A 
ATOM     30  C   LIG    1      -22.563  83.548  14.496  0.00  0.00    +0.005 A 
ATOM     31  C   LIG    1      -22.524  82.824  15.720  0.00  0.00    +0.011 A 
ATOM     32  C   LIG    1      -23.160  81.593  15.903  0.00  0.00    +0.013 A 
ATOM     33  C   LIG    1      -23.905  81.039  14.872  0.00  0.00    +0.057 A 
ATOM     34  C   LIG    1      -23.968  81.733  13.665  0.00  0.00    +0.036 A 
BRANCH  30  35
ATOM     35  C   LIG    1      -21.827  84.850  14.434  0.00  0.00    +0.002 A 
ATOM     36  C   LIG    1      -22.280  86.030  15.028  0.00  0.00    +0.119 A 
ATOM     37  N   LIG    1      -21.656  87.239  14.966  0.00  0.00    -0.263 NA
ATOM     38  C   LIG    1      -20.472  87.287  14.326  0.00  0.00    +0.111 A 
ATOM     39  C   LIG    1      -19.882  86.181  13.751  0.00  0.00    +0.020 A 
ATOM     40  C   LIG    1      -20.573  84.966  13.798  0.00  0.00    +0.011 A 
ENDBRANCH  30  35
BRANCH  33  41
ATOM     41  C   LIG    1      -24.631  79.729  15.043  0.00  0.00    +0.417 C 
ATOM     42  F   LIG    1      -24.417  79.175  16.267  0.00  0.00    -0.166 F 
ATOM     43  F   LIG    1      -24.235  78.797  14.133  0.00  0.00    -0.166 F 
ATOM     44  F   LIG    1      -25.983  79.824  14.910  0.00  0.00    -0.166 F 
ENDBRANCH  33  41
ENDBRANCH  27  29
ENDBRANCH   1  27
TORSDOF 9
ENDMDL
MODEL 6
REMARK VINA RESULT:      -7.4      7.735     11.088
REMARK  Name = pdb/CHEMBL3976747.pdb
REMARK                            x       y       z     vdW  Elec       q    Type
REMARK                         _______ _______ _______ _____ _____    ______ ____
ROOT
ATOM      1  C   LIG    1      -23.934  77.852  34.078  0.00  0.00    +0.285 C 
ATOM      2  N   LIG    1      -24.603  76.767  33.946  0.00  0.00    -0.196 NA
ENDROOT
BRANCH   2   3
ATOM      3  C   LIG    1      -25.850  76.702  33.306  0.00  0.00    +0.105 A 
ATOM      4  C   LIG    1      -27.019  77.097  33.913  0.00  0.00    +0.145 A 
ATOM      5  N   LIG    1      -28.219  77.126  33.287  0.00  0.00    -0.201 NA
ATOM      6  C   LIG    1      -28.221  76.792  31.983  0.00  0.00    +0.323 A 
ATOM      7  N   LIG    1      -27.179  76.257  31.330  0.00  0.00    -0.201 NA
ATOM      8  C   LIG    1      -26.025  76.177  32.043  0.00  0.00    +0.145 A 
BRANCH   6   9
ATOM      9  O   LIG    1      -29.325  77.132  31.200  0.00  0.00    -0.424 OA
BRANCH   9  10
ATOM     10  C   LIG    1      -30.148  76.106  30.765  0.00  0.00    +0.132 A 
ATOM     11  C   LIG    1      -30.234  74.854  31.385  0.00  0.00    +0.047 A 
ATOM     12  C   LIG    1      -31.054  73.844  30.870  0.00  0.00    +0.012 A 
ATOM     13  C   LIG    1      -31.864  74.082  29.754  0.00  0.00    -0.014 A 
ATOM     14  C   LIG    1      -31.801  75.349  29.159  0.00  0.00    +0.012 A 
ATOM     15  C   LIG    1      -30.961  76.357  29.661  0.00  0.00    +0.047 A 
BRANCH  13  16
ATOM     16  C   LIG    1      -32.703  73.020  29.208  0.00  0.00    +0.027 A 
ATOM     17  C   LIG    1      -32.480  71.655  29.278  0.00  0.00    +0.075 A 
ATOM     18  C   LIG    1      -31.464  70.799  29.811  0.00  0.00    +0.028 A 
ATOM     19  C   LIG    1      -31.592  69.462  29.732  0.00  0.00    +0.004 A 
ATOM     20  C   LIG    1      -32.730  68.846  29.078  0.00  0.00    +0.020 A 
ATOM     21  C   LIG    1      -33.678  69.640  28.556  0.00  0.00    +0.113 A 
ATOM     22  N   LIG    1      -33.567  71.031  28.649  0.00  0.00    -0.239 N 
ATOM     23  N   LIG    1      -34.450  71.943  28.172  0.00  0.00    -0.174 NA
ATOM     24  C   LIG    1      -33.930  73.121  28.510  0.00  0.00    +0.143 A 
ENDBRANCH  13  16
ENDBRANCH   9  10
ENDBRANCH   6   9
ENDBRANCH   2   3
BRANCH   1  25
ATOM     25  O   LIG    1      -24.449  79.072  33.807  0.00  0.00    -0.481 OA
ATOM     26  H   LIG    1      -25.233  79.250  34.352  0.00  0.00    +0.295 HD
ENDBRANCH   1  25
BRANCH   1  27
ATOM     27  N   LIG    1      -22.631  78.028  34.491  0.00  0.00    -0.269 N 
ATOM     28  H   LIG    1      -22.571  78.547  35.357  0.00  0.00    +0.157 HD
BRANCH  27  29
ATOM     29  C   LIG    1      -21.481  78.146  33.670  0.00  0.00    +0.043 A 
ATOM     30  C   LIG    1      -20.398  79.022  33.992  0.00  0.00    +0.005 A 
ATOM     31  C   LIG    1      -19.308  79.052  33.078  0.00  0.00    +0.011 A 
ATOM     32  C   LIG    1      -19.260  78.273  31.918  0.00  0.00    +0.013 A 
ATOM     33  C   LIG    1      -20.292  77.391  31.633  0.00  0.00    +0.057 A 
ATOM     34  C   LIG    1      -21.368  77.336  32.518  0.00  0.00    +0.036 A 
BRANCH  30  35
ATOM     35  C   LIG    1      -20.326  79.917  35.189  0.00  0.00    +0.002 A 
ATOM     36  C   LIG    1      -19.517  79.668  36.300  0.00  0.00    +0.119 A 
ATOM     37  N   LIG    1      -19.448  80.441  37.420  0.00  0.00    -0.263 NA
ATOM     38  C   LIG    1      -20.181  81.571  37.432  0.00  0.00    +0.111 A 
ATOM     39  C   LIG    1      -20.974  81.966  36.375  0.00  0.00    +0.020 A 
ATOM     40  C   LIG    1      -21.051  81.126  35.260  0.00  0.00    +0.011 A 
ENDBRANCH  30  35
BRANCH  33  41
ATOM     41  C   LIG    1      -20.260  76.513  30.408  0.00  0.00    +0.417 C 
ATOM     42  F   LIG    1      -20.147  77.232  29.258  0.00  0.00    -0.166 F 
ATOM     43  F   LIG    1      -21.392  75.768  30.277  0.00  0.00    -0.166 F 
ATOM     44  F   LIG    1      -19.228  75.623  30.393  0.00  0.00    -0.166 F 
ENDBRANCH  33  41
ENDBRANCH  27  29
ENDBRANCH   1  27
TORSDOF 9
ENDMDL
MODEL 7
REMARK VINA RESULT:      -7.2      1.762      2.501
REMARK  Name = pdb/CHEMBL3976747.pdb
REMARK                            x       y       z     vdW  Elec       q    Type
REMARK                         _______ _______ _______ _____ _____    ______ ____
ROOT
ATOM      1  C   LIG    1      -29.697  84.890  35.019  0.00  0.00    +0.285 C 
ATOM      2  N   LIG    1      -29.182  84.774  36.188  0.00  0.00    -0.196 NA
ENDROOT
BRANCH   2   3
ATOM      3  C   LIG    1      -28.067  83.968  36.464  0.00  0.00    +0.105 A 
ATOM      4  C   LIG    1      -26.779  84.363  36.191  0.00  0.00    +0.145 A 
ATOM      5  N   LIG    1      -25.684  83.641  36.528  0.00  0.00    -0.201 NA
ATOM      6  C   LIG    1      -25.906  82.503  37.213  0.00  0.00    +0.323 A 
ATOM      7  N   LIG    1      -27.112  81.952  37.407  0.00  0.00    -0.201 NA
ATOM      8  C   LIG    1      -28.166  82.688  36.968  0.00  0.00    +0.145 A 
BRANCH   6   9
ATOM      9  O   LIG    1      -24.842  81.903  37.889  0.00  0.00    -0.424 OA
BRANCH   9  10
ATOM     10  C   LIG    1      -23.851  81.304  37.130  0.00  0.00    +0.132 A 
ATOM     11  C   LIG    1      -22.761  81.991  36.581  0.00  0.00    +0.047 A 
ATOM     12  C   LIG    1      -21.815  81.334  35.786  0.00  0.00    +0.012 A 
ATOM     13  C   LIG    1      -21.899  79.954  35.571  0.00  0.00    -0.014 A 
ATOM     14  C   LIG    1      -22.972  79.266  36.152  0.00  0.00    +0.012 A 
ATOM     15  C   LIG    1      -23.934  79.927  36.933  0.00  0.00    +0.047 A 
BRANCH  13  16
ATOM     16  C   LIG    1      -20.923  79.276  34.725  0.00  0.00    +0.027 A 
ATOM     17  C   LIG    1      -21.176  78.524  33.588  0.00  0.00    +0.075 A 
ATOM     18  C   LIG    1      -22.337  78.112  32.859  0.00  0.00    +0.028 A 
ATOM     19  C   LIG    1      -22.208  77.388  31.732  0.00  0.00    +0.004 A 
ATOM     20  C   LIG    1      -20.909  76.972  31.241  0.00  0.00    +0.020 A 
ATOM     21  C   LIG    1      -19.815  77.336  31.929  0.00  0.00    +0.113 A 
ATOM     22  N   LIG    1      -19.933  78.105  33.091  0.00  0.00    -0.239 N 
ATOM     23  N   LIG    1      -18.916  78.542  33.874  0.00  0.00    -0.174 NA
ATOM     24  C   LIG    1      -19.513  79.238  34.841  0.00  0.00    +0.143 A 
ENDBRANCH  13  16
ENDBRANCH   9  10
ENDBRANCH   6   9
ENDBRANCH   2   3
BRANCH   1  25
ATOM     25  O   LIG    1      -29.357  84.092  33.983  0.00  0.00    -0.481 OA
ATOM     26  H   LIG    1      -29.616  84.490  33.135  0.00  0.00    +0.295 HD
ENDBRANCH   1  25
BRANCH   1  27
ATOM     27  N   LIG    1      -30.643  85.785  34.569  0.00  0.00    -0.269 N 
ATOM     28  H   LIG    1      -31.574  85.550  34.887  0.00  0.00    +0.157 HD
BRANCH  27  29
ATOM     29  C   LIG    1      -30.618  86.518  33.356  0.00  0.00    +0.043 A 
ATOM     30  C   LIG    1      -29.681  87.570  33.116  0.00  0.00    +0.005 A 
ATOM     31  C   LIG    1      -29.772  88.232  31.860  0.00  0.00    +0.011 A 
ATOM     32  C   LIG    1      -30.711  87.893  30.882  0.00  0.00    +0.013 A 
ATOM     33  C   LIG    1      -31.589  86.842  31.101  0.00  0.00    +0.057 A 
ATOM     34  C   LIG    1      -31.515  86.170  32.320  0.00  0.00    +0.036 A 
BRANCH  30  35
ATOM     35  C   LIG    1      -28.635  88.042  34.077  0.00  0.00    +0.002 A 
ATOM     36  C   LIG    1      -27.444  87.358  34.329  0.00  0.00    +0.119 A 
ATOM     37  N   LIG    1      -26.484  87.739  35.218  0.00  0.00    -0.263 NA
ATOM     38  C   LIG    1      -26.675  88.903  35.867  0.00  0.00    +0.111 A 
ATOM     39  C   LIG    1      -27.777  89.707  35.663  0.00  0.00    +0.020 A 
ATOM     40  C   LIG    1      -28.761  89.262  34.775  0.00  0.00    +0.011 A 
ENDBRANCH  30  35
BRANCH  33  41
ATOM     41  C   LIG    1      -32.595  86.428  30.056  0.00  0.00    +0.417 C 
ATOM     42  F   LIG    1      -32.142  85.407  29.279  0.00  0.00    -0.166 F 
ATOM     43  F   LIG    1      -32.902  87.444  29.203  0.00  0.00    -0.166 F 
ATOM     44  F   LIG    1      -33.784  86.005  30.570  0.00  0.00    -0.166 F 
ENDBRANCH  33  41
ENDBRANCH  27  29
ENDBRANCH   1  27
TORSDOF 9
ENDMDL
MODEL 8
REMARK VINA RESULT:      -6.9     17.333     20.870
REMARK  Name = pdb/CHEMBL3976747.pdb
REMARK                            x       y       z     vdW  Elec       q    Type
REMARK                         _______ _______ _______ _____ _____    ______ ____
ROOT
ATOM      1  C   LIG    1      -38.578  70.492  23.639  0.00  0.00    +0.285 C 
ATOM      2  N   LIG    1      -38.921  69.583  22.803  0.00  0.00    -0.196 NA
ENDROOT
BRANCH   2   3
ATOM      3  C   LIG    1      -38.006  68.722  22.180  0.00  0.00    +0.105 A 
ATOM      4  C   LIG    1      -37.482  67.615  22.806  0.00  0.00    +0.145 A 
ATOM      5  N   LIG    1      -36.667  66.722  22.197  0.00  0.00    -0.201 NA
ATOM      6  C   LIG    1      -36.419  66.933  20.890  0.00  0.00    +0.323 A 
ATOM      7  N   LIG    1      -36.755  68.044  20.219  0.00  0.00    -0.201 NA
ATOM      8  C   LIG    1      -37.501  68.941  20.915  0.00  0.00    +0.145 A 
BRANCH   6   9
ATOM      9  O   LIG    1      -35.893  65.890  20.124  0.00  0.00    -0.424 OA
BRANCH   9  10
ATOM     10  C   LIG    1      -34.612  66.041  19.623  0.00  0.00    +0.132 A 
ATOM     11  C   LIG    1      -34.305  66.089  18.258  0.00  0.00    +0.047 A 
ATOM     12  C   LIG    1      -32.982  66.201  17.815  0.00  0.00    +0.012 A 
ATOM     13  C   LIG    1      -31.932  66.334  18.730  0.00  0.00    -0.014 A 
ATOM     14  C   LIG    1      -32.249  66.321  20.094  0.00  0.00    +0.012 A 
ATOM     15  C   LIG    1      -33.574  66.187  20.542  0.00  0.00    +0.047 A 
BRANCH  13  16
ATOM     16  C   LIG    1      -30.552  66.429  18.265  0.00  0.00    +0.027 A 
ATOM     17  C   LIG    1      -29.749  67.558  18.249  0.00  0.00    +0.075 A 
ATOM     18  C   LIG    1      -29.897  68.939  18.598  0.00  0.00    +0.028 A 
ATOM     19  C   LIG    1      -28.857  69.783  18.484  0.00  0.00    +0.004 A 
ATOM     20  C   LIG    1      -27.573  69.342  17.974  0.00  0.00    +0.020 A 
ATOM     21  C   LIG    1      -27.430  68.054  17.623  0.00  0.00    +0.113 A 
ATOM     22  N   LIG    1      -28.497  67.161  17.756  0.00  0.00    -0.239 N 
ATOM     23  N   LIG    1      -28.486  65.841  17.445  0.00  0.00    -0.174 NA
ATOM     24  C   LIG    1      -29.710  65.414  17.752  0.00  0.00    +0.143 A 
ENDBRANCH  13  16
ENDBRANCH   9  10
ENDBRANCH   6   9
ENDBRANCH   2   3
BRANCH   1  25
ATOM     25  O   LIG    1      -37.293  70.853  23.846  0.00  0.00    -0.481 OA
ATOM     26  H   LIG    1      -36.718  70.073  23.924  0.00  0.00    +0.295 HD
ENDBRANCH   1  25
BRANCH   1  27
ATOM     27  N   LIG    1      -39.369  71.257  24.468  0.00  0.00    -0.269 N 
ATOM     28  H   LIG    1      -40.014  70.694  25.008  0.00  0.00    +0.157 HD
BRANCH  27  29
ATOM     29  C   LIG    1      -39.815  72.583  24.243  0.00  0.00    +0.043 A 
ATOM     30  C   LIG    1      -41.076  72.874  23.636  0.00  0.00    +0.005 A 
ATOM     31  C   LIG    1      -41.397  74.249  23.459  0.00  0.00    +0.011 A 
ATOM     32  C   LIG    1      -40.551  75.290  23.852  0.00  0.00    +0.013 A 
ATOM     33  C   LIG    1      -39.348  75.004  24.481  0.00  0.00    +0.057 A 
ATOM     34  C   LIG    1      -39.013  73.665  24.675  0.00  0.00    +0.036 A 
BRANCH  30  35
ATOM     35  C   LIG    1      -42.069  71.861  23.159  0.00  0.00    +0.002 A 
ATOM     36  C   LIG    1      -42.795  71.023  24.007  0.00  0.00    +0.119 A 
ATOM     37  N   LIG    1      -43.683  70.068  23.610  0.00  0.00    -0.263 NA
ATOM     38  C   LIG    1      -43.920  69.963  22.288  0.00  0.00    +0.111 A 
ATOM     39  C   LIG    1      -43.318  70.773  21.348  0.00  0.00    +0.020 A 
ATOM     40  C   LIG    1      -42.382  71.712  21.791  0.00  0.00    +0.011 A 
ENDBRANCH  30  35
BRANCH  33  41
ATOM     41  C   LIG    1      -38.424  76.101  24.946  0.00  0.00    +0.417 C 
ATOM     42  F   LIG    1      -38.783  76.597  26.162  0.00  0.00    -0.166 F 
ATOM     43  F   LIG    1      -38.413  77.163  24.095  0.00  0.00    -0.166 F 
ATOM     44  F   LIG    1      -37.124  75.714  25.072  0.00  0.00    -0.166 F 
ENDBRANCH  33  41
ENDBRANCH  27  29
ENDBRANCH   1  27
TORSDOF 9
ENDMDL
MODEL 9
REMARK VINA RESULT:      -6.8     19.427     22.411
REMARK  Name = pdb/CHEMBL3976747.pdb
REMARK                            x       y       z     vdW  Elec       q    Type
REMARK                         _______ _______ _______ _____ _____    ______ ____
ROOT
ATOM      1  C   LIG    1      -23.583  81.969  15.359  0.00  0.00    +0.285 C 
ATOM      2  N   LIG    1      -23.446  80.800  15.867  0.00  0.00    -0.196 NA
ENDROOT
BRANCH   2   3
ATOM      3  C   LIG    1      -23.933  79.632  15.261  0.00  0.00    +0.105 A 
ATOM      4  C   LIG    1      -25.150  79.078  15.586  0.00  0.00    +0.145 A 
ATOM      5  N   LIG    1      -25.679  78.004  14.955  0.00  0.00    -0.201 NA
ATOM      6  C   LIG    1      -24.971  77.509  13.921  0.00  0.00    +0.323 A 
ATOM      7  N   LIG    1      -23.720  77.873  13.609  0.00  0.00    -0.201 NA
ATOM      8  C   LIG    1      -23.214  78.901  14.339  0.00  0.00    +0.145 A 
BRANCH   6   9
ATOM      9  O   LIG    1      -25.603  76.651  13.019  0.00  0.00    -0.424 OA
BRANCH   9  10
ATOM     10  C   LIG    1      -26.749  77.107  12.390  0.00  0.00    +0.132 A 
ATOM     11  C   LIG    1      -26.780  78.196  11.510  0.00  0.00    +0.047 A 
ATOM     12  C   LIG    1      -27.980  78.634  10.939  0.00  0.00    +0.012 A 
ATOM     13  C   LIG    1      -29.177  77.952  11.184  0.00  0.00    -0.014 A 
ATOM     14  C   LIG    1      -29.134  76.841  12.037  0.00  0.00    +0.012 A 
ATOM     15  C   LIG    1      -27.934  76.413  12.628  0.00  0.00    +0.047 A 
BRANCH  13  16
ATOM     16  C   LIG    1      -30.430  78.423  10.604  0.00  0.00    +0.027 A 
ATOM     17  C   LIG    1      -31.515  77.655  10.212  0.00  0.00    +0.075 A 
ATOM     18  C   LIG    1      -31.836  76.260  10.176  0.00  0.00    +0.028 A 
ATOM     19  C   LIG    1      -33.045  75.853   9.751  0.00  0.00    +0.004 A 
ATOM     20  C   LIG    1      -34.043  76.794   9.284  0.00  0.00    +0.020 A 
ATOM     21  C   LIG    1      -33.745  78.103   9.293  0.00  0.00    +0.113 A 
ATOM     22  N   LIG    1      -32.499  78.542   9.751  0.00  0.00    -0.239 N 
ATOM     23  N   LIG    1      -32.073  79.828   9.818  0.00  0.00    -0.174 NA
ATOM     24  C   LIG    1      -30.844  79.748  10.326  0.00  0.00    +0.143 A 
ENDBRANCH  13  16
ENDBRANCH   9  10
ENDBRANCH   6   9
ENDBRANCH   2   3
BRANCH   1  25
ATOM     25  O   LIG    1      -24.389  82.222  14.304  0.00  0.00    -0.481 OA
ATOM     26  H   LIG    1      -25.164  82.743  14.572  0.00  0.00    +0.295 HD
ENDBRANCH   1  25
BRANCH   1  27
ATOM     27  N   LIG    1      -22.990  83.156  15.729  0.00  0.00    -0.269 N 
ATOM     28  H   LIG    1      -23.527  83.649  16.430  0.00  0.00    +0.157 HD
BRANCH  27  29
ATOM     29  C   LIG    1      -22.186  84.000  14.922  0.00  0.00    +0.043 A 
ATOM     30  C   LIG    1      -21.024  83.525  14.239  0.00  0.00    +0.005 A 
ATOM     31  C   LIG    1      -20.301  84.479  13.470  0.00  0.00    +0.011 A 
ATOM     32  C   LIG    1      -20.682  85.819  13.359  0.00  0.00    +0.013 A 
ATOM     33  C   LIG    1      -21.835  86.266  13.987  0.00  0.00    +0.057 A 
ATOM     34  C   LIG    1      -22.567  85.349  14.739  0.00  0.00    +0.036 A 
BRANCH  30  35
ATOM     35  C   LIG    1      -20.499  82.124  14.280  0.00  0.00    +0.002 A 
ATOM     36  C   LIG    1      -19.955  81.530  15.421  0.00  0.00    +0.119 A 
ATOM     37  N   LIG    1      -19.439  80.271  15.491  0.00  0.00    -0.263 NA
ATOM     38  C   LIG    1      -19.510  79.516  14.377  0.00  0.00    +0.111 A 
ATOM     39  C   LIG    1      -20.080  79.960  13.202  0.00  0.00    +0.020 A 
ATOM     40  C   LIG    1      -20.561  81.272  13.158  0.00  0.00    +0.011 A 
ENDBRANCH  30  35
BRANCH  33  41
ATOM     41  C   LIG    1      -22.293  87.697  13.865  0.00  0.00    +0.417 C 
ATOM     42  F   LIG    1      -22.950  88.127  14.977  0.00  0.00    -0.166 F 
ATOM     43  F   LIG    1      -23.156  87.876  12.826  0.00  0.00    -0.166 F 
ATOM     44  F   LIG    1      -21.282  88.587  13.663  0.00  0.00    -0.166 F 
ENDBRANCH  33  41
ENDBRANCH  27  29
ENDBRANCH   1  27
TORSDOF 9
ENDMDL
