MODEL 1
REMARK VINA RESULT:      -6.6      0.000      0.000
REMARK  Name = pdb/CHEMBL3659496.pdb
REMARK                            x       y       z     vdW  Elec       q    Type
REMARK                         _______ _______ _______ _____ _____    ______ ____
ROOT
ATOM      1  C   LIG    1      -29.470  76.849  31.629  0.00  0.00    +0.218 A 
ATOM      2  N   LIG    1      -28.158  76.828  31.357  0.00  0.00    -0.194 NA
ATOM      3  C   LIG    1      -27.385  76.904  32.467  0.00  0.00    +0.171 A 
ATOM      4  N   LIG    1      -26.012  77.012  32.555  0.00  0.00    -0.266 N 
ATOM      5  C   LIG    1      -25.725  77.091  33.904  0.00  0.00    +0.207 A 
ATOM      6  N   LIG    1      -26.798  77.066  34.663  0.00  0.00    -0.232 NA
ATOM      7  C   LIG    1      -27.838  76.986  33.770  0.00  0.00    +0.126 A 
ATOM      8  C   LIG    1      -29.212  76.987  33.945  0.00  0.00    +0.146 A 
ATOM      9  N   LIG    1      -30.022  76.924  32.855  0.00  0.00    -0.221 NA
ENDROOT
BRANCH   4  10
ATOM     10  C   LIG    1      -25.060  77.045  31.504  0.00  0.00    +0.162 A 
ATOM     11  N   LIG    1      -25.205  77.949  30.526  0.00  0.00    -0.155 NA
ATOM     12  N   LIG    1      -24.187  77.663  29.690  0.00  0.00    -0.279 N 
ATOM     13  H   LIG    1      -24.109  78.177  28.821  0.00  0.00    +0.189 HD
ATOM     14  C   LIG    1      -23.353  76.693  30.171  0.00  0.00    +0.041 A 
ATOM     15  C   LIG    1      -23.917  76.237  31.339  0.00  0.00    +0.071 A 
BRANCH  14  16
ATOM     16  C   LIG    1      -22.061  76.205  29.552  0.00  0.00    +0.037 C 
ATOM     17  C   LIG    1      -20.849  76.020  30.444  0.00  0.00    +0.010 C 
ATOM     18  C   LIG    1      -20.885  77.154  29.479  0.00  0.00    +0.010 C 
ENDBRANCH  14  16
ENDBRANCH   4  10
BRANCH   1  19
ATOM     19  N   LIG    1      -30.294  76.864  30.516  0.00  0.00    -0.305 N 
ATOM     20  H   LIG    1      -29.882  77.477  29.822  0.00  0.00    +0.150 HD
BRANCH  19  22
ATOM     21  C   LIG    1      -31.111  74.715  31.181  0.00  0.00    +0.034 C 
ATOM     22  C   LIG    1      -30.771  75.598  29.972  0.00  0.00    +0.119 C 
BRANCH  22  23
ATOM     23  C   LIG    1      -31.994  75.795  29.061  0.00  0.00    +0.061 A 
ATOM     24  N   LIG    1      -32.896  74.776  28.963  0.00  0.00    -0.255 NA
ATOM     25  C   LIG    1      -33.978  74.977  28.163  0.00  0.00    +0.149 A 
ATOM     26  C   LIG    1      -34.194  76.131  27.432  0.00  0.00    +0.141 A 
ATOM     27  F   LIG    1      -35.275  76.258  26.652  0.00  0.00    -0.204 F 
ATOM     28  C   LIG    1      -33.270  77.157  27.522  0.00  0.00    +0.042 A 
ATOM     29  C   LIG    1      -32.156  76.992  28.350  0.00  0.00    +0.028 A 
ENDBRANCH  22  23
ENDBRANCH  19  22
ENDBRANCH   1  19
TORSDOF 5
ENDMDL
MODEL 2
REMARK VINA RESULT:      -6.6      5.697      9.290
REMARK  Name = pdb/CHEMBL3659496.pdb
REMARK                            x       y       z     vdW  Elec       q    Type
REMARK                         _______ _______ _______ _____ _____    ______ ____
ROOT
ATOM      1  C   LIG    1      -24.564  79.088  35.409  0.00  0.00    +0.218 A 
ATOM      2  N   LIG    1      -24.340  78.732  34.136  0.00  0.00    -0.194 NA
ATOM      3  C   LIG    1      -25.346  77.994  33.608  0.00  0.00    +0.171 A 
ATOM      4  N   LIG    1      -25.405  77.378  32.374  0.00  0.00    -0.266 N 
ATOM      5  C   LIG    1      -26.623  76.727  32.335  0.00  0.00    +0.207 A 
ATOM      6  N   LIG    1      -27.317  76.862  33.444  0.00  0.00    -0.232 NA
ATOM      7  C   LIG    1      -26.509  77.622  34.253  0.00  0.00    +0.126 A 
ATOM      8  C   LIG    1      -26.650  78.051  35.563  0.00  0.00    +0.146 A 
ATOM      9  N   LIG    1      -25.658  78.784  36.135  0.00  0.00    -0.221 NA
ENDROOT
BRANCH   4  10
ATOM     10  C   LIG    1      -24.437  77.383  31.337  0.00  0.00    +0.162 A 
ATOM     11  N   LIG    1      -24.546  78.284  30.353  0.00  0.00    -0.155 NA
ATOM     12  N   LIG    1      -23.522  77.970  29.534  0.00  0.00    -0.279 N 
ATOM     13  H   LIG    1      -23.418  78.477  28.663  0.00  0.00    +0.189 HD
ATOM     14  C   LIG    1      -22.719  76.982  30.033  0.00  0.00    +0.041 A 
ATOM     15  C   LIG    1      -23.311  76.546  31.194  0.00  0.00    +0.071 A 
BRANCH  14  16
ATOM     16  C   LIG    1      -21.430  76.460  29.436  0.00  0.00    +0.037 C 
ATOM     17  C   LIG    1      -20.334  75.984  30.369  0.00  0.00    +0.010 C 
ATOM     18  C   LIG    1      -20.162  77.263  29.625  0.00  0.00    +0.010 C 
ENDBRANCH  14  16
ENDBRANCH   4  10
BRANCH   1  19
ATOM     19  N   LIG    1      -23.520  79.766  36.016  0.00  0.00    -0.305 N 
ATOM     20  H   LIG    1      -23.049  79.128  36.648  0.00  0.00    +0.150 HD
BRANCH  19  22
ATOM     21  C   LIG    1      -22.676  81.986  35.727  0.00  0.00    +0.034 C 
ATOM     22  C   LIG    1      -22.611  80.550  35.189  0.00  0.00    +0.119 C 
BRANCH  22  23
ATOM     23  C   LIG    1      -21.177  79.997  35.237  0.00  0.00    +0.061 A 
ATOM     24  N   LIG    1      -20.422  80.259  36.342  0.00  0.00    -0.255 NA
ATOM     25  C   LIG    1      -19.162  79.747  36.370  0.00  0.00    +0.149 A 
ATOM     26  C   LIG    1      -18.605  79.010  35.341  0.00  0.00    +0.141 A 
ATOM     27  F   LIG    1      -17.351  78.547  35.429  0.00  0.00    -0.204 F 
ATOM     28  C   LIG    1      -19.368  78.758  34.216  0.00  0.00    +0.042 A 
ATOM     29  C   LIG    1      -20.675  79.252  34.161  0.00  0.00    +0.028 A 
ENDBRANCH  22  23
ENDBRANCH  19  22
ENDBRANCH   1  19
TORSDOF 5
ENDMDL
MODEL 3
REMARK VINA RESULT:      -6.5      5.411      9.960
REMARK  Name = pdb/CHEMBL3659496.pdb
REMARK                            x       y       z     vdW  Elec       q    Type
REMARK                         _______ _______ _______ _____ _____    ______ ____
ROOT
ATOM      1  C   LIG    1      -19.877  78.740  33.088  0.00  0.00    +0.218 A 
ATOM      2  N   LIG    1      -21.037  78.359  32.535  0.00  0.00    -0.194 NA
ATOM      3  C   LIG    1      -20.873  77.677  31.377  0.00  0.00    +0.171 A 
ATOM      4  N   LIG    1      -21.838  77.230  30.497  0.00  0.00    -0.266 N 
ATOM      5  C   LIG    1      -21.152  76.626  29.460  0.00  0.00    +0.207 A 
ATOM      6  N   LIG    1      -19.846  76.679  29.604  0.00  0.00    -0.232 NA
ATOM      7  C   LIG    1      -19.667  77.364  30.780  0.00  0.00    +0.126 A 
ATOM      8  C   LIG    1      -18.526  77.792  31.438  0.00  0.00    +0.146 A 
ATOM      9  N   LIG    1      -18.648  78.491  32.598  0.00  0.00    -0.221 NA
ENDROOT
BRANCH   4  10
ATOM     10  C   LIG    1      -23.247  77.351  30.595  0.00  0.00    +0.162 A 
ATOM     11  N   LIG    1      -23.883  78.208  29.786  0.00  0.00    -0.155 NA
ATOM     12  N   LIG    1      -25.168  78.111  30.183  0.00  0.00    -0.279 N 
ATOM     13  H   LIG    1      -25.858  78.718  29.759  0.00  0.00    +0.189 HD
ATOM     14  C   LIG    1      -25.365  77.145  31.130  0.00  0.00    +0.041 A 
ATOM     15  C   LIG    1      -24.123  76.654  31.453  0.00  0.00    +0.071 A 
BRANCH  14  16
ATOM     16  C   LIG    1      -26.685  76.693  31.717  0.00  0.00    +0.037 C 
ATOM     17  C   LIG    1      -26.988  77.018  33.166  0.00  0.00    +0.010 C 
ATOM     18  C   LIG    1      -26.679  75.613  32.777  0.00  0.00    +0.010 C 
ENDBRANCH  14  16
ENDBRANCH   4  10
BRANCH   1  19
ATOM     19  N   LIG    1      -20.004  79.519  34.227  0.00  0.00    -0.305 N 
ATOM     20  H   LIG    1      -20.119  80.485  33.942  0.00  0.00    +0.150 HD
BRANCH  19  22
ATOM     21  C   LIG    1      -20.067  78.637  36.450  0.00  0.00    +0.034 C 
ATOM     22  C   LIG    1      -20.932  79.100  35.270  0.00  0.00    +0.119 C 
BRANCH  22  23
ATOM     23  C   LIG    1      -21.878  80.240  35.682  0.00  0.00    +0.061 A 
ATOM     24  N   LIG    1      -23.222  80.016  35.623  0.00  0.00    -0.255 NA
ATOM     25  C   LIG    1      -24.040  81.033  36.007  0.00  0.00    +0.149 A 
ATOM     26  C   LIG    1      -23.589  82.273  36.420  0.00  0.00    +0.141 A 
ATOM     27  F   LIG    1      -24.451  83.236  36.771  0.00  0.00    -0.204 F 
ATOM     28  C   LIG    1      -22.225  82.503  36.464  0.00  0.00    +0.042 A 
ATOM     29  C   LIG    1      -21.354  81.474  36.095  0.00  0.00    +0.028 A 
ENDBRANCH  22  23
ENDBRANCH  19  22
ENDBRANCH   1  19
TORSDOF 5
ENDMDL
MODEL 4
REMARK VINA RESULT:      -6.5      5.087      8.584
REMARK  Name = pdb/CHEMBL3659496.pdb
REMARK                            x       y       z     vdW  Elec       q    Type
REMARK                         _______ _______ _______ _____ _____    ______ ____
ROOT
ATOM      1  C   LIG    1      -25.872  78.472  35.366  0.00  0.00    +0.218 A 
ATOM      2  N   LIG    1      -25.492  78.191  34.111  0.00  0.00    -0.194 NA
ATOM      3  C   LIG    1      -26.422  77.486  33.423  0.00  0.00    +0.171 A 
ATOM      4  N   LIG    1      -26.327  76.944  32.156  0.00  0.00    -0.266 N 
ATOM      5  C   LIG    1      -27.527  76.297  31.932  0.00  0.00    +0.207 A 
ATOM      6  N   LIG    1      -28.351  76.368  32.954  0.00  0.00    -0.232 NA
ATOM      7  C   LIG    1      -27.652  77.078  33.899  0.00  0.00    +0.126 A 
ATOM      8  C   LIG    1      -27.954  77.430  35.204  0.00  0.00    +0.146 A 
ATOM      9  N   LIG    1      -27.044  78.127  35.934  0.00  0.00    -0.221 NA
ENDROOT
BRANCH   4  10
ATOM     10  C   LIG    1      -25.240  77.008  31.248  0.00  0.00    +0.162 A 
ATOM     11  N   LIG    1      -25.195  78.011  30.361  0.00  0.00    -0.155 NA
ATOM     12  N   LIG    1      -24.091  77.733  29.639  0.00  0.00    -0.279 N 
ATOM     13  H   LIG    1      -23.864  78.321  28.846  0.00  0.00    +0.189 HD
ATOM     14  C   LIG    1      -23.391  76.661  30.118  0.00  0.00    +0.041 A 
ATOM     15  C   LIG    1      -24.136  76.137  31.147  0.00  0.00    +0.071 A 
BRANCH  14  16
ATOM     16  C   LIG    1      -22.058  76.141  29.624  0.00  0.00    +0.037 C 
ATOM     17  C   LIG    1      -20.891  76.094  30.589  0.00  0.00    +0.010 C 
ATOM     18  C   LIG    1      -20.901  77.107  29.497  0.00  0.00    +0.010 C 
ENDBRANCH  14  16
ENDBRANCH   4  10
BRANCH   1  19
ATOM     19  N   LIG    1      -24.914  79.113  36.134  0.00  0.00    -0.305 N 
ATOM     20  H   LIG    1      -24.298  78.410  36.528  0.00  0.00    +0.150 HD
BRANCH  19  22
ATOM     21  C   LIG    1      -24.580  81.460  36.458  0.00  0.00    +0.034 C 
ATOM     22  C   LIG    1      -24.210  80.260  35.574  0.00  0.00    +0.119 C 
BRANCH  22  23
ATOM     23  C   LIG    1      -22.690  80.036  35.540  0.00  0.00    +0.061 A 
ATOM     24  N   LIG    1      -22.156  79.399  34.458  0.00  0.00    -0.255 NA
ATOM     25  C   LIG    1      -20.807  79.225  34.440  0.00  0.00    +0.149 A 
ATOM     26  C   LIG    1      -19.964  79.627  35.460  0.00  0.00    +0.141 A 
ATOM     27  F   LIG    1      -18.644  79.411  35.386  0.00  0.00    -0.204 F 
ATOM     28  C   LIG    1      -20.510  80.259  36.563  0.00  0.00    +0.042 A 
ATOM     29  C   LIG    1      -21.890  80.472  36.605  0.00  0.00    +0.028 A 
ENDBRANCH  22  23
ENDBRANCH  19  22
ENDBRANCH   1  19
TORSDOF 5
ENDMDL
MODEL 5
REMARK VINA RESULT:      -6.5      5.829      8.953
REMARK  Name = pdb/CHEMBL3659496.pdb
REMARK                            x       y       z     vdW  Elec       q    Type
REMARK                         _______ _______ _______ _____ _____    ______ ____
ROOT
ATOM      1  C   LIG    1      -25.265  78.098  34.155  0.00  0.00    +0.218 A 
ATOM      2  N   LIG    1      -24.117  78.130  33.462  0.00  0.00    -0.194 NA
ATOM      3  C   LIG    1      -24.235  77.610  32.217  0.00  0.00    +0.171 A 
ATOM      4  N   LIG    1      -23.247  77.390  31.279  0.00  0.00    -0.266 N 
ATOM      5  C   LIG    1      -23.878  76.812  30.194  0.00  0.00    +0.207 A 
ATOM      6  N   LIG    1      -25.167  76.630  30.383  0.00  0.00    -0.232 NA
ATOM      7  C   LIG    1      -25.387  77.094  31.656  0.00  0.00    +0.126 A 
ATOM      8  C   LIG    1      -26.522  77.118  32.450  0.00  0.00    +0.146 A 
ATOM      9  N   LIG    1      -26.444  77.621  33.710  0.00  0.00    -0.221 NA
ENDROOT
BRANCH   4  10
ATOM     10  C   LIG    1      -21.861  77.676  31.373  0.00  0.00    +0.162 A 
ATOM     11  N   LIG    1      -21.099  77.556  30.278  0.00  0.00    -0.155 NA
ATOM     12  N   LIG    1      -19.861  77.840  30.732  0.00  0.00    -0.279 N 
ATOM     13  H   LIG    1      -19.076  77.757  30.098  0.00  0.00    +0.189 HD
ATOM     14  C   LIG    1      -19.848  78.240  32.039  0.00  0.00    +0.041 A 
ATOM     15  C   LIG    1      -21.135  78.107  32.502  0.00  0.00    +0.071 A 
BRANCH  14  16
ATOM     16  C   LIG    1      -18.659  78.735  32.835  0.00  0.00    +0.037 C 
ATOM     17  C   LIG    1      -17.820  77.728  33.594  0.00  0.00    +0.010 C 
ATOM     18  C   LIG    1      -18.710  78.656  34.345  0.00  0.00    +0.010 C 
ENDBRANCH  14  16
ENDBRANCH   4  10
BRANCH   1  19
ATOM     19  N   LIG    1      -25.166  78.537  35.464  0.00  0.00    -0.305 N 
ATOM     20  H   LIG    1      -24.549  77.909  35.967  0.00  0.00    +0.150 HD
BRANCH  19  22
ATOM     21  C   LIG    1      -25.792  80.343  36.904  0.00  0.00    +0.034 C 
ATOM     22  C   LIG    1      -24.901  79.948  35.718  0.00  0.00    +0.119 C 
BRANCH  22  23
ATOM     23  C   LIG    1      -23.416  80.202  36.024  0.00  0.00    +0.061 A 
ATOM     24  N   LIG    1      -22.863  79.577  37.103  0.00  0.00    -0.255 NA
ATOM     25  C   LIG    1      -21.544  79.803  37.346  0.00  0.00    +0.149 A 
ATOM     26  C   LIG    1      -20.752  80.643  36.586  0.00  0.00    +0.141 A 
ATOM     27  F   LIG    1      -19.462  80.833  36.889  0.00  0.00    -0.204 F 
ATOM     28  C   LIG    1      -21.319  81.288  35.500  0.00  0.00    +0.042 A 
ATOM     29  C   LIG    1      -22.667  81.063  35.209  0.00  0.00    +0.028 A 
ENDBRANCH  22  23
ENDBRANCH  19  22
ENDBRANCH   1  19
TORSDOF 5
ENDMDL
MODEL 6
REMARK VINA RESULT:      -6.4      6.559     10.471
REMARK  Name = pdb/CHEMBL3659496.pdb
REMARK                            x       y       z     vdW  Elec       q    Type
REMARK                         _______ _______ _______ _____ _____    ______ ____
ROOT
ATOM      1  C   LIG    1      -23.840  80.181  35.696  0.00  0.00    +0.218 A 
ATOM      2  N   LIG    1      -24.070  79.604  34.508  0.00  0.00    -0.194 NA
ATOM      3  C   LIG    1      -25.101  78.726  34.536  0.00  0.00    +0.171 A 
ATOM      4  N   LIG    1      -25.545  77.886  33.534  0.00  0.00    -0.266 N 
ATOM      5  C   LIG    1      -26.597  77.174  34.078  0.00  0.00    +0.207 A 
ATOM      6  N   LIG    1      -26.833  77.478  35.335  0.00  0.00    -0.232 NA
ATOM      7  C   LIG    1      -25.880  78.420  35.635  0.00  0.00    +0.126 A 
ATOM      8  C   LIG    1      -25.569  79.080  36.813  0.00  0.00    +0.146 A 
ATOM      9  N   LIG    1      -24.533  79.961  36.830  0.00  0.00    -0.221 NA
ENDROOT
BRANCH   4  10
ATOM     10  C   LIG    1      -25.047  77.748  32.214  0.00  0.00    +0.162 A 
ATOM     11  N   LIG    1      -25.913  77.741  31.192  0.00  0.00    -0.155 NA
ATOM     12  N   LIG    1      -25.122  77.538  30.119  0.00  0.00    -0.279 N 
ATOM     13  H   LIG    1      -25.551  77.429  29.209  0.00  0.00    +0.189 HD
ATOM     14  C   LIG    1      -23.790  77.533  30.428  0.00  0.00    +0.041 A 
ATOM     15  C   LIG    1      -23.706  77.627  31.797  0.00  0.00    +0.071 A 
BRANCH  14  16
ATOM     16  C   LIG    1      -22.626  77.441  29.465  0.00  0.00    +0.037 C 
ATOM     17  C   LIG    1      -21.793  76.176  29.448  0.00  0.00    +0.010 C 
ATOM     18  C   LIG    1      -21.220  77.425  30.023  0.00  0.00    +0.010 C 
ENDBRANCH  14  16
ENDBRANCH   4  10
BRANCH   1  19
ATOM     19  N   LIG    1      -22.737  81.018  35.732  0.00  0.00    -0.305 N 
ATOM     20  H   LIG    1      -23.011  81.889  36.173  0.00  0.00    +0.150 HD
BRANCH  19  22
ATOM     21  C   LIG    1      -20.636  80.168  34.965  0.00  0.00    +0.034 C 
ATOM     22  C   LIG    1      -21.466  80.491  36.215  0.00  0.00    +0.119 C 
BRANCH  22  23
ATOM     23  C   LIG    1      -20.741  81.497  37.124  0.00  0.00    +0.061 A 
ATOM     24  N   LIG    1      -19.919  81.010  38.098  0.00  0.00    -0.255 NA
ATOM     25  C   LIG    1      -19.276  81.918  38.881  0.00  0.00    +0.149 A 
ATOM     26  C   LIG    1      -19.431  83.287  38.763  0.00  0.00    +0.141 A 
ATOM     27  F   LIG    1      -18.777  84.125  39.577  0.00  0.00    -0.204 F 
ATOM     28  C   LIG    1      -20.276  83.777  37.783  0.00  0.00    +0.042 A 
ATOM     29  C   LIG    1      -20.939  82.874  36.948  0.00  0.00    +0.028 A 
ENDBRANCH  22  23
ENDBRANCH  19  22
ENDBRANCH   1  19
TORSDOF 5
ENDMDL
MODEL 7
REMARK VINA RESULT:      -6.2      7.332     11.655
REMARK  Name = pdb/CHEMBL3659496.pdb
REMARK                            x       y       z     vdW  Elec       q    Type
REMARK                         _______ _______ _______ _____ _____    ______ ____
ROOT
ATOM      1  C   LIG    1      -34.270  79.590  27.773  0.00  0.00    +0.218 A 
ATOM      2  N   LIG    1      -35.301  78.799  27.445  0.00  0.00    -0.194 NA
ATOM      3  C   LIG    1      -35.028  77.481  27.599  0.00  0.00    +0.171 A 
ATOM      4  N   LIG    1      -35.810  76.395  27.262  0.00  0.00    -0.266 N 
ATOM      5  C   LIG    1      -35.065  75.278  27.588  0.00  0.00    +0.207 A 
ATOM      6  N   LIG    1      -33.879  75.571  28.075  0.00  0.00    -0.232 NA
ATOM      7  C   LIG    1      -33.838  76.943  28.050  0.00  0.00    +0.126 A 
ATOM      8  C   LIG    1      -32.839  77.846  28.376  0.00  0.00    +0.146 A 
ATOM      9  N   LIG    1      -33.069  79.178  28.224  0.00  0.00    -0.221 NA
ENDROOT
BRANCH   4  10
ATOM     10  C   LIG    1      -37.109  76.384  26.692  0.00  0.00    +0.162 A 
ATOM     11  N   LIG    1      -38.168  76.579  27.489  0.00  0.00    -0.155 NA
ATOM     12  N   LIG    1      -39.213  76.449  26.648  0.00  0.00    -0.279 N 
ATOM     13  H   LIG    1      -40.153  76.492  27.024  0.00  0.00    +0.189 HD
ATOM     14  C   LIG    1      -38.836  76.295  25.343  0.00  0.00    +0.041 A 
ATOM     15  C   LIG    1      -37.465  76.207  25.340  0.00  0.00    +0.071 A 
BRANCH  14  16
ATOM     16  C   LIG    1      -39.739  76.230  24.129  0.00  0.00    +0.037 C 
ATOM     17  C   LIG    1      -40.033  77.508  23.370  0.00  0.00    +0.010 C 
ATOM     18  C   LIG    1      -41.102  76.884  24.200  0.00  0.00    +0.010 C 
ENDBRANCH  14  16
ENDBRANCH   4  10
BRANCH   1  19
ATOM     19  N   LIG    1      -34.477  80.940  27.545  0.00  0.00    -0.305 N 
ATOM     20  H   LIG    1      -34.302  81.128  26.564  0.00  0.00    +0.150 HD
BRANCH  19  22
ATOM     21  C   LIG    1      -35.232  82.619  29.072  0.00  0.00    +0.034 C 
ATOM     22  C   LIG    1      -35.691  81.566  28.055  0.00  0.00    +0.119 C 
BRANCH  22  23
ATOM     23  C   LIG    1      -36.522  82.199  26.927  0.00  0.00    +0.061 A 
ATOM     24  N   LIG    1      -35.907  83.088  26.095  0.00  0.00    -0.255 NA
ATOM     25  C   LIG    1      -36.657  83.625  25.094  0.00  0.00    +0.149 A 
ATOM     26  C   LIG    1      -37.996  83.344  24.897  0.00  0.00    +0.141 A 
ATOM     27  F   LIG    1      -38.680  83.919  23.900  0.00  0.00    -0.204 F 
ATOM     28  C   LIG    1      -38.621  82.453  25.752  0.00  0.00    +0.042 A 
ATOM     29  C   LIG    1      -37.876  81.867  26.780  0.00  0.00    +0.028 A 
ENDBRANCH  22  23
ENDBRANCH  19  22
ENDBRANCH   1  19
TORSDOF 5
ENDMDL
MODEL 8
REMARK VINA RESULT:      -6.2      6.018      9.135
REMARK  Name = pdb/CHEMBL3659496.pdb
REMARK                            x       y       z     vdW  Elec       q    Type
REMARK                         _______ _______ _______ _____ _____    ______ ____
ROOT
ATOM      1  C   LIG    1      -34.917  76.572  27.106  0.00  0.00    +0.218 A 
ATOM      2  N   LIG    1      -34.608  75.394  27.667  0.00  0.00    -0.194 NA
ATOM      3  C   LIG    1      -33.487  75.447  28.426  0.00  0.00    +0.171 A 
ATOM      4  N   LIG    1      -32.827  74.413  29.059  0.00  0.00    -0.266 N 
ATOM      5  C   LIG    1      -31.726  74.985  29.668  0.00  0.00    +0.207 A 
ATOM      6  N   LIG    1      -31.630  76.278  29.451  0.00  0.00    -0.232 NA
ATOM      7  C   LIG    1      -32.706  76.564  28.648  0.00  0.00    +0.126 A 
ATOM      8  C   LIG    1      -33.118  77.735  28.033  0.00  0.00    +0.146 A 
ATOM      9  N   LIG    1      -34.232  77.722  27.254  0.00  0.00    -0.221 NA
ENDROOT
BRANCH   4  10
ATOM     10  C   LIG    1      -33.169  73.037  29.094  0.00  0.00    +0.162 A 
ATOM     11  N   LIG    1      -32.865  72.321  30.184  0.00  0.00    -0.155 NA
ATOM     12  N   LIG    1      -33.269  71.077  29.858  0.00  0.00    -0.279 N 
ATOM     13  H   LIG    1      -33.090  70.319  30.505  0.00  0.00    +0.189 HD
ATOM     14  C   LIG    1      -33.913  71.020  28.654  0.00  0.00    +0.041 A 
ATOM     15  C   LIG    1      -33.831  72.279  28.107  0.00  0.00    +0.071 A 
BRANCH  14  16
ATOM     16  C   LIG    1      -34.589  69.817  28.030  0.00  0.00    +0.037 C 
ATOM     17  C   LIG    1      -33.744  68.829  27.253  0.00  0.00    +0.010 C 
ATOM     18  C   LIG    1      -34.676  69.732  26.522  0.00  0.00    +0.010 C 
ENDBRANCH  14  16
ENDBRANCH   4  10
BRANCH   1  19
ATOM     19  N   LIG    1      -36.005  76.540  26.249  0.00  0.00    -0.305 N 
ATOM     20  H   LIG    1      -35.764  75.968  25.448  0.00  0.00    +0.150 HD
BRANCH  19  22
ATOM     21  C   LIG    1      -38.015  77.619  26.970  0.00  0.00    +0.034 C 
ATOM     22  C   LIG    1      -37.327  76.259  26.796  0.00  0.00    +0.119 C 
BRANCH  22  23
ATOM     23  C   LIG    1      -38.138  75.334  25.874  0.00  0.00    +0.061 A 
ATOM     24  N   LIG    1      -37.798  74.014  25.823  0.00  0.00    -0.255 NA
ATOM     25  C   LIG    1      -38.539  73.210  25.013  0.00  0.00    +0.149 A 
ATOM     26  C   LIG    1      -39.585  73.659  24.228  0.00  0.00    +0.141 A 
ATOM     27  F   LIG    1      -40.265  72.815  23.442  0.00  0.00    -0.204 F 
ATOM     28  C   LIG    1      -39.919  75.001  24.271  0.00  0.00    +0.042 A 
ATOM     29  C   LIG    1      -39.191  75.852  25.107  0.00  0.00    +0.028 A 
ENDBRANCH  22  23
ENDBRANCH  19  22
ENDBRANCH   1  19
TORSDOF 5
ENDMDL
MODEL 9
REMARK VINA RESULT:      -6.2      4.968      7.183
REMARK  Name = pdb/CHEMBL3659496.pdb
REMARK                            x       y       z     vdW  Elec       q    Type
REMARK                         _______ _______ _______ _____ _____    ______ ____
ROOT
ATOM      1  C   LIG    1      -25.332  73.732  31.943  0.00  0.00    +0.218 A 
ATOM      2  N   LIG    1      -24.343  74.543  31.543  0.00  0.00    -0.194 NA
ATOM      3  C   LIG    1      -24.761  75.809  31.302  0.00  0.00    +0.171 A 
ATOM      4  N   LIG    1      -24.043  76.868  30.784  0.00  0.00    -0.266 N 
ATOM      5  C   LIG    1      -24.933  77.923  30.703  0.00  0.00    +0.207 A 
ATOM      6  N   LIG    1      -26.145  77.608  31.101  0.00  0.00    -0.232 NA
ATOM      7  C   LIG    1      -26.051  76.281  31.442  0.00  0.00    +0.126 A 
ATOM      8  C   LIG    1      -26.998  75.366  31.873  0.00  0.00    +0.146 A 
ATOM      9  N   LIG    1      -26.621  74.082  32.116  0.00  0.00    -0.221 NA
ENDROOT
BRANCH   4  10
ATOM     10  C   LIG    1      -22.679  76.906  30.396  0.00  0.00    +0.162 A 
ATOM     11  N   LIG    1      -22.372  76.812  29.096  0.00  0.00    -0.155 NA
ATOM     12  N   LIG    1      -21.024  76.822  29.097  0.00  0.00    -0.279 N 
ATOM     13  H   LIG    1      -20.533  76.697  28.220  0.00  0.00    +0.189 HD
ATOM     14  C   LIG    1      -20.490  77.032  30.338  0.00  0.00    +0.041 A 
ATOM     15  C   LIG    1      -21.544  77.051  31.219  0.00  0.00    +0.071 A 
BRANCH  14  16
ATOM     16  C   LIG    1      -19.028  77.210  30.689  0.00  0.00    +0.037 C 
ATOM     17  C   LIG    1      -18.079  76.049  30.468  0.00  0.00    +0.010 C 
ATOM     18  C   LIG    1      -18.460  76.432  31.856  0.00  0.00    +0.010 C 
ENDBRANCH  14  16
ENDBRANCH   4  10
BRANCH   1  19
ATOM     19  N   LIG    1      -24.965  72.407  32.114  0.00  0.00    -0.305 N 
ATOM     20  H   LIG    1      -25.682  71.821  31.700  0.00  0.00    +0.150 HD
BRANCH  19  22
ATOM     21  C   LIG    1      -22.991  71.450  33.067  0.00  0.00    +0.034 C 
ATOM     22  C   LIG    1      -23.607  72.001  31.774  0.00  0.00    +0.119 C 
BRANCH  22  23
ATOM     23  C   LIG    1      -23.591  70.949  30.653  0.00  0.00    +0.061 A 
ATOM     24  N   LIG    1      -22.562  70.054  30.623  0.00  0.00    -0.255 NA
ATOM     25  C   LIG    1      -22.575  69.122  29.632  0.00  0.00    +0.149 A 
ATOM     26  C   LIG    1      -23.548  69.052  28.652  0.00  0.00    +0.141 A 
ATOM     27  F   LIG    1      -23.493  68.116  27.695  0.00  0.00    -0.204 F 
ATOM     28  C   LIG    1      -24.583  69.970  28.676  0.00  0.00    +0.042 A 
ATOM     29  C   LIG    1      -24.611  70.930  29.692  0.00  0.00    +0.028 A 
ENDBRANCH  22  23
ENDBRANCH  19  22
ENDBRANCH   1  19
TORSDOF 5
ENDMDL
