MODEL 1
REMARK VINA RESULT:      -6.1      0.000      0.000
REMARK  Name = pdb/CHEMBL3671141.pdb
REMARK                            x       y       z     vdW  Elec       q    Type
REMARK                         _______ _______ _______ _____ _____    ______ ____
ROOT
ATOM      1  C   LIG    1      -23.243  79.605  34.713  0.00  0.00    +0.126 A 
ATOM      2  N   LIG    1      -23.401  78.926  33.597  0.00  0.00    -0.212 NA
ATOM      3  C   LIG    1      -24.611  78.301  33.386  0.00  0.00    +0.170 A 
ATOM      4  C   LIG    1      -25.124  77.606  32.304  0.00  0.00    +0.100 A 
ATOM      5  C   LIG    1      -26.399  77.178  32.731  0.00  0.00    +0.150 A 
ATOM      6  N   LIG    1      -26.695  77.570  33.971  0.00  0.00    -0.173 NA
ATOM      7  N   LIG    1      -25.627  78.312  34.344  0.00  0.00    -0.221 N 
ATOM      8  C   LIG    1      -25.495  79.068  35.493  0.00  0.00    +0.118 A 
ATOM      9  C   LIG    1      -24.379  79.772  35.704  0.00  0.00    +0.063 A 
ENDROOT
BRANCH   1  11
ATOM     10  C   LIG    1      -20.884  79.401  35.589  0.00  0.00    +0.108 C 
ATOM     11  N   LIG    1      -22.011  80.182  35.020  0.00  0.00    -0.308 N 
ATOM     12  C   LIG    1      -21.924  81.574  35.483  0.00  0.00    +0.107 C 
ATOM     13  C   LIG    1      -21.004  81.525  36.690  0.00  0.00    +0.021 C 
ATOM     14  C   LIG    1      -20.008  80.457  36.290  0.00  0.00    +0.029 C 
BRANCH  10  18
ATOM     15  F   LIG    1      -17.311  79.068  32.222  0.00  0.00    -0.205 F 
ATOM     16  C   LIG    1      -18.309  78.487  32.900  0.00  0.00    +0.124 A 
ATOM     17  C   LIG    1      -19.015  79.227  33.848  0.00  0.00    +0.046 A 
ATOM     18  C   LIG    1      -20.084  78.647  34.549  0.00  0.00    +0.011 A 
ATOM     19  C   LIG    1      -20.373  77.298  34.295  0.00  0.00    +0.129 A 
ATOM     20  F   LIG    1      -21.369  76.694  34.960  0.00  0.00    -0.205 F 
ATOM     21  C   LIG    1      -19.654  76.554  33.356  0.00  0.00    +0.041 A 
ATOM     22  C   LIG    1      -18.622  77.157  32.643  0.00  0.00    +0.041 A 
ENDBRANCH  10  18
ENDBRANCH   1  11
BRANCH   4  23
ATOM     23  C   LIG    1      -24.529  77.363  31.004  0.00  0.00    +0.249 C 
ATOM     24  N   LIG    1      -23.150  77.348  31.005  0.00  0.00    -0.308 N 
ATOM     25  H   LIG    1      -22.685  77.454  31.910  0.00  0.00    +0.149 HD
ATOM     26  O   LIG    1      -25.211  77.196  30.006  0.00  0.00    -0.270 OA
BRANCH  24  27
ATOM     27  C   LIG    1      -22.361  77.140  29.842  0.00  0.00    +0.073 C 
ATOM     28  C   LIG    1      -21.303  76.070  29.846  0.00  0.00    +0.024 C 
ATOM     29  C   LIG    1      -20.905  77.511  29.775  0.00  0.00    +0.024 C 
ENDBRANCH  24  27
ENDBRANCH   4  23
TORSDOF 4
ENDMDL
MODEL 2
REMARK VINA RESULT:      -5.9      2.476      5.379
REMARK  Name = pdb/CHEMBL3671141.pdb
REMARK                            x       y       z     vdW  Elec       q    Type
REMARK                         _______ _______ _______ _____ _____    ______ ____
ROOT
ATOM      1  C   LIG    1      -24.275  78.576  34.623  0.00  0.00    +0.126 A 
ATOM      2  N   LIG    1      -22.978  78.683  34.424  0.00  0.00    -0.212 NA
ATOM      3  C   LIG    1      -22.326  79.766  34.971  0.00  0.00    +0.170 A 
ATOM      4  C   LIG    1      -20.987  80.115  35.030  0.00  0.00    +0.100 A 
ATOM      5  C   LIG    1      -20.976  81.363  35.687  0.00  0.00    +0.150 A 
ATOM      6  N   LIG    1      -22.193  81.781  36.037  0.00  0.00    -0.173 NA
ATOM      7  N   LIG    1      -23.009  80.773  35.657  0.00  0.00    -0.221 N 
ATOM      8  C   LIG    1      -24.359  80.644  35.921  0.00  0.00    +0.118 A 
ATOM      9  C   LIG    1      -25.023  79.565  35.496  0.00  0.00    +0.063 A 
ENDROOT
BRANCH   1  11
ATOM     10  C   LIG    1      -25.373  77.576  32.582  0.00  0.00    +0.108 C 
ATOM     11  N   LIG    1      -25.001  77.551  34.018  0.00  0.00    -0.308 N 
ATOM     12  C   LIG    1      -26.011  76.795  34.772  0.00  0.00    +0.107 C 
ATOM     13  C   LIG    1      -27.224  76.752  33.860  0.00  0.00    +0.021 C 
ATOM     14  C   LIG    1      -26.590  76.635  32.490  0.00  0.00    +0.029 C 
BRANCH  10  18
ATOM     15  F   LIG    1      -21.682  74.558  31.364  0.00  0.00    -0.205 F 
ATOM     16  C   LIG    1      -22.456  75.608  31.060  0.00  0.00    +0.124 A 
ATOM     17  C   LIG    1      -23.462  75.996  31.944  0.00  0.00    +0.046 A 
ATOM     18  C   LIG    1      -24.267  77.110  31.660  0.00  0.00    +0.011 A 
ATOM     19  C   LIG    1      -24.051  77.774  30.444  0.00  0.00    +0.129 A 
ATOM     20  F   LIG    1      -24.813  78.829  30.117  0.00  0.00    -0.205 F 
ATOM     21  C   LIG    1      -23.053  77.375  29.552  0.00  0.00    +0.041 A 
ATOM     22  C   LIG    1      -22.240  76.291  29.868  0.00  0.00    +0.041 A 
ENDBRANCH  10  18
ENDBRANCH   1  11
BRANCH   4  23
ATOM     23  C   LIG    1      -19.827  79.387  34.553  0.00  0.00    +0.249 C 
ATOM     24  N   LIG    1      -19.886  79.037  33.220  0.00  0.00    -0.308 N 
ATOM     25  H   LIG    1      -20.698  79.361  32.689  0.00  0.00    +0.149 HD
ATOM     26  O   LIG    1      -18.893  79.112  35.288  0.00  0.00    -0.270 OA
BRANCH  24  27
ATOM     27  C   LIG    1      -18.866  78.311  32.548  0.00  0.00    +0.073 C 
ATOM     28  C   LIG    1      -19.182  77.621  31.248  0.00  0.00    +0.024 C 
ATOM     29  C   LIG    1      -18.862  76.809  32.465  0.00  0.00    +0.024 C 
ENDBRANCH  24  27
ENDBRANCH   4  23
TORSDOF 4
ENDMDL
MODEL 3
REMARK VINA RESULT:      -5.7      2.680      5.388
REMARK  Name = pdb/CHEMBL3671141.pdb
REMARK                            x       y       z     vdW  Elec       q    Type
REMARK                         _______ _______ _______ _____ _____    ______ ____
ROOT
ATOM      1  C   LIG    1      -25.068  76.918  34.232  0.00  0.00    +0.126 A 
ATOM      2  N   LIG    1      -24.048  77.750  34.245  0.00  0.00    -0.212 NA
ATOM      3  C   LIG    1      -24.183  78.930  34.944  0.00  0.00    +0.170 A 
ATOM      4  C   LIG    1      -23.293  79.950  35.230  0.00  0.00    +0.100 A 
ATOM      5  C   LIG    1      -24.057  80.895  35.947  0.00  0.00    +0.150 A 
ATOM      6  N   LIG    1      -25.324  80.519  36.123  0.00  0.00    -0.173 NA
ATOM      7  N   LIG    1      -25.381  79.288  35.566  0.00  0.00    -0.221 N 
ATOM      8  C   LIG    1      -26.438  78.400  35.608  0.00  0.00    +0.118 A 
ATOM      9  C   LIG    1      -26.328  77.202  35.027  0.00  0.00    +0.063 A 
ENDROOT
BRANCH   1  11
ATOM     10  C   LIG    1      -25.204  75.757  31.994  0.00  0.00    +0.108 C 
ATOM     11  N   LIG    1      -25.019  75.753  33.467  0.00  0.00    -0.308 N 
ATOM     12  C   LIG    1      -25.484  74.471  34.015  0.00  0.00    +0.107 C 
ATOM     13  C   LIG    1      -26.365  73.881  32.928  0.00  0.00    +0.021 C 
ATOM     14  C   LIG    1      -25.653  74.320  31.666  0.00  0.00    +0.029 C 
BRANCH  10  18
ATOM     15  F   LIG    1      -20.449  75.160  30.877  0.00  0.00    -0.205 F 
ATOM     16  C   LIG    1      -21.606  75.802  30.671  0.00  0.00    +0.124 A 
ATOM     17  C   LIG    1      -22.734  75.435  31.405  0.00  0.00    +0.046 A 
ATOM     18  C   LIG    1      -23.949  76.113  31.227  0.00  0.00    +0.011 A 
ATOM     19  C   LIG    1      -23.992  77.127  30.259  0.00  0.00    +0.129 A 
ATOM     20  F   LIG    1      -25.139  77.786  30.035  0.00  0.00    -0.205 F 
ATOM     21  C   LIG    1      -22.866  77.483  29.513  0.00  0.00    +0.041 A 
ATOM     22  C   LIG    1      -21.659  76.825  29.730  0.00  0.00    +0.041 A 
ENDBRANCH  10  18
ENDBRANCH   1  11
BRANCH   4  23
ATOM     23  C   LIG    1      -21.883  80.057  34.904  0.00  0.00    +0.249 C 
ATOM     24  N   LIG    1      -21.389  78.997  34.174  0.00  0.00    -0.308 N 
ATOM     25  H   LIG    1      -22.056  78.275  33.891  0.00  0.00    +0.149 HD
ATOM     26  O   LIG    1      -21.211  81.010  35.262  0.00  0.00    -0.270 OA
BRANCH  24  27
ATOM     27  C   LIG    1      -20.034  78.888  33.756  0.00  0.00    +0.073 C 
ATOM     28  C   LIG    1      -19.723  78.709  32.295  0.00  0.00    +0.024 C 
ATOM     29  C   LIG    1      -19.442  77.598  33.259  0.00  0.00    +0.024 C 
ENDBRANCH  24  27
ENDBRANCH   4  23
TORSDOF 4
ENDMDL
MODEL 4
REMARK VINA RESULT:      -5.6      2.130      5.105
REMARK  Name = pdb/CHEMBL3671141.pdb
REMARK                            x       y       z     vdW  Elec       q    Type
REMARK                         _______ _______ _______ _____ _____    ______ ____
ROOT
ATOM      1  C   LIG    1      -22.737  77.329  32.507  0.00  0.00    +0.126 A 
ATOM      2  N   LIG    1      -22.453  78.381  33.245  0.00  0.00    -0.212 NA
ATOM      3  C   LIG    1      -23.441  78.881  34.067  0.00  0.00    +0.170 A 
ATOM      4  C   LIG    1      -23.440  79.889  35.016  0.00  0.00    +0.100 A 
ATOM      5  C   LIG    1      -24.772  79.940  35.476  0.00  0.00    +0.150 A 
ATOM      6  N   LIG    1      -25.564  79.040  34.892  0.00  0.00    -0.173 NA
ATOM      7  N   LIG    1      -24.732  78.351  34.078  0.00  0.00    -0.221 N 
ATOM      8  C   LIG    1      -25.026  77.213  33.352  0.00  0.00    +0.118 A 
ATOM      9  C   LIG    1      -24.079  76.630  32.611  0.00  0.00    +0.063 A 
ENDROOT
BRANCH   1  11
ATOM     10  C   LIG    1      -20.584  77.588  31.215  0.00  0.00    +0.108 C 
ATOM     11  N   LIG    1      -21.807  76.836  31.592  0.00  0.00    -0.308 N 
ATOM     12  C   LIG    1      -22.231  75.994  30.465  0.00  0.00    +0.107 C 
ATOM     13  C   LIG    1      -21.523  76.579  29.256  0.00  0.00    +0.021 C 
ATOM     14  C   LIG    1      -20.194  77.010  29.840  0.00  0.00    +0.029 C 
BRANCH  10  18
ATOM     15  F   LIG    1      -17.184  74.924  33.574  0.00  0.00    -0.205 F 
ATOM     16  C   LIG    1      -17.762  76.111  33.351  0.00  0.00    +0.124 A 
ATOM     17  C   LIG    1      -18.807  76.202  32.430  0.00  0.00    +0.046 A 
ATOM     18  C   LIG    1      -19.447  77.429  32.202  0.00  0.00    +0.011 A 
ATOM     19  C   LIG    1      -18.966  78.552  32.891  0.00  0.00    +0.129 A 
ATOM     20  F   LIG    1      -19.529  79.752  32.686  0.00  0.00    -0.205 F 
ATOM     21  C   LIG    1      -17.910  78.462  33.801  0.00  0.00    +0.041 A 
ATOM     22  C   LIG    1      -17.311  77.229  34.043  0.00  0.00    +0.041 A 
ENDBRANCH  10  18
ENDBRANCH   1  11
BRANCH   4  23
ATOM     23  C   LIG    1      -22.342  80.716  35.476  0.00  0.00    +0.249 C 
ATOM     24  N   LIG    1      -21.186  80.018  35.759  0.00  0.00    -0.308 N 
ATOM     25  H   LIG    1      -21.193  79.012  35.573  0.00  0.00    +0.149 HD
ATOM     26  O   LIG    1      -22.455  81.924  35.602  0.00  0.00    -0.270 OA
BRANCH  24  27
ATOM     27  C   LIG    1      -19.992  80.625  36.235  0.00  0.00    +0.073 C 
ATOM     28  C   LIG    1      -19.029  79.816  37.061  0.00  0.00    +0.024 C 
ATOM     29  C   LIG    1      -19.775  80.954  37.686  0.00  0.00    +0.024 C 
ENDBRANCH  24  27
ENDBRANCH   4  23
TORSDOF 4
ENDMDL
MODEL 5
REMARK VINA RESULT:      -5.5      2.645      5.500
REMARK  Name = pdb/CHEMBL3671141.pdb
REMARK                            x       y       z     vdW  Elec       q    Type
REMARK                         _______ _______ _______ _____ _____    ______ ____
ROOT
ATOM      1  C   LIG    1      -22.941  78.477  33.289  0.00  0.00    +0.126 A 
ATOM      2  N   LIG    1      -21.663  78.577  33.588  0.00  0.00    -0.212 NA
ATOM      3  C   LIG    1      -21.303  79.423  34.614  0.00  0.00    +0.170 A 
ATOM      4  C   LIG    1      -20.088  79.678  35.227  0.00  0.00    +0.100 A 
ATOM      5  C   LIG    1      -20.376  80.678  36.179  0.00  0.00    +0.150 A 
ATOM      6  N   LIG    1      -21.662  81.032  36.195  0.00  0.00    -0.173 NA
ATOM      7  N   LIG    1      -22.237  80.216  35.282  0.00  0.00    -0.221 N 
ATOM      8  C   LIG    1      -23.586  80.078  35.018  0.00  0.00    +0.118 A 
ATOM      9  C   LIG    1      -24.000  79.202  34.097  0.00  0.00    +0.063 A 
ENDROOT
BRANCH   1  11
ATOM     10  C   LIG    1      -22.455  77.379  31.068  0.00  0.00    +0.108 C 
ATOM     11  N   LIG    1      -23.354  77.707  32.203  0.00  0.00    -0.308 N 
ATOM     12  C   LIG    1      -24.744  77.757  31.727  0.00  0.00    +0.107 C 
ATOM     13  C   LIG    1      -24.632  77.906  30.220  0.00  0.00    +0.021 C 
ATOM     14  C   LIG    1      -23.414  77.064  29.904  0.00  0.00    +0.029 C 
BRANCH  10  18
ATOM     15  F   LIG    1      -21.432  73.014  33.096  0.00  0.00    -0.205 F 
ATOM     16  C   LIG    1      -21.048  74.044  32.331  0.00  0.00    +0.124 A 
ATOM     17  C   LIG    1      -21.931  75.102  32.112  0.00  0.00    +0.046 A 
ATOM     18  C   LIG    1      -21.540  76.205  31.339  0.00  0.00    +0.011 A 
ATOM     19  C   LIG    1      -20.261  76.175  30.763  0.00  0.00    +0.129 A 
ATOM     20  F   LIG    1      -19.852  77.196  29.995  0.00  0.00    -0.205 F 
ATOM     21  C   LIG    1      -19.384  75.108  30.970  0.00  0.00    +0.041 A 
ATOM     22  C   LIG    1      -19.775  74.039  31.771  0.00  0.00    +0.041 A 
ENDBRANCH  10  18
ENDBRANCH   1  11
BRANCH   4  23
ATOM     23  C   LIG    1      -18.794  79.068  34.990  0.00  0.00    +0.249 C 
ATOM     24  N   LIG    1      -18.419  79.032  33.663  0.00  0.00    -0.308 N 
ATOM     25  H   LIG    1      -19.048  79.476  32.990  0.00  0.00    +0.149 HD
ATOM     26  O   LIG    1      -18.115  78.625  35.901  0.00  0.00    -0.270 OA
BRANCH  24  27
ATOM     27  C   LIG    1      -17.198  78.470  33.202  0.00  0.00    +0.073 C 
ATOM     28  C   LIG    1      -17.104  77.966  31.787  0.00  0.00    +0.024 C 
ATOM     29  C   LIG    1      -17.037  77.000  32.929  0.00  0.00    +0.024 C 
ENDBRANCH  24  27
ENDBRANCH   4  23
TORSDOF 4
ENDMDL
MODEL 6
REMARK VINA RESULT:      -5.4      1.850      4.842
REMARK  Name = pdb/CHEMBL3671141.pdb
REMARK                            x       y       z     vdW  Elec       q    Type
REMARK                         _______ _______ _______ _____ _____    ______ ____
ROOT
ATOM      1  C   LIG    1      -21.112  77.167  31.530  0.00  0.00    +0.126 A 
ATOM      2  N   LIG    1      -22.146  77.436  32.299  0.00  0.00    -0.212 NA
ATOM      3  C   LIG    1      -23.401  77.406  31.731  0.00  0.00    +0.170 A 
ATOM      4  C   LIG    1      -24.669  77.542  32.268  0.00  0.00    +0.100 A 
ATOM      5  C   LIG    1      -25.534  77.458  31.157  0.00  0.00    +0.150 A 
ATOM      6  N   LIG    1      -24.889  77.271  30.004  0.00  0.00    -0.173 NA
ATOM      7  N   LIG    1      -23.590  77.174  30.367  0.00  0.00    -0.221 N 
ATOM      8  C   LIG    1      -22.521  76.835  29.562  0.00  0.00    +0.118 A 
ATOM      9  C   LIG    1      -21.292  76.755  30.082  0.00  0.00    +0.063 A 
ENDROOT
BRANCH   1  11
ATOM     10  C   LIG    1      -19.243  78.555  32.507  0.00  0.00    +0.108 C 
ATOM     11  N   LIG    1      -19.814  77.271  32.029  0.00  0.00    -0.308 N 
ATOM     12  C   LIG    1      -18.736  76.419  31.509  0.00  0.00    +0.107 C 
ATOM     13  C   LIG    1      -17.578  77.368  31.258  0.00  0.00    +0.021 C 
ATOM     14  C   LIG    1      -17.718  78.353  32.400  0.00  0.00    +0.029 C 
BRANCH  10  18
ATOM     15  F   LIG    1      -21.215  81.538  35.887  0.00  0.00    -0.205 F 
ATOM     16  C   LIG    1      -20.625  80.374  35.586  0.00  0.00    +0.124 A 
ATOM     17  C   LIG    1      -20.282  80.103  34.261  0.00  0.00    +0.046 A 
ATOM     18  C   LIG    1      -19.637  78.903  33.926  0.00  0.00    +0.011 A 
ATOM     19  C   LIG    1      -19.401  77.981  34.957  0.00  0.00    +0.129 A 
ATOM     20  F   LIG    1      -18.810  76.809  34.680  0.00  0.00    -0.205 F 
ATOM     21  C   LIG    1      -19.759  78.248  36.281  0.00  0.00    +0.041 A 
ATOM     22  C   LIG    1      -20.364  79.460  36.600  0.00  0.00    +0.041 A 
ENDBRANCH  10  18
ENDBRANCH   1  11
BRANCH   4  23
ATOM     23  C   LIG    1      -25.067  77.715  33.652  0.00  0.00    +0.249 C 
ATOM     24  N   LIG    1      -24.721  78.937  34.192  0.00  0.00    -0.308 N 
ATOM     25  H   LIG    1      -24.275  79.612  33.568  0.00  0.00    +0.149 HD
ATOM     26  O   LIG    1      -25.650  76.839  34.268  0.00  0.00    -0.270 OA
BRANCH  24  27
ATOM     27  C   LIG    1      -25.001  79.315  35.533  0.00  0.00    +0.073 C 
ATOM     28  C   LIG    1      -24.354  80.548  36.105  0.00  0.00    +0.024 C 
ATOM     29  C   LIG    1      -23.985  79.197  36.636  0.00  0.00    +0.024 C 
ENDBRANCH  24  27
ENDBRANCH   4  23
TORSDOF 4
ENDMDL
MODEL 7
REMARK VINA RESULT:      -5.4     19.106     21.824
REMARK  Name = pdb/CHEMBL3671141.pdb
REMARK                            x       y       z     vdW  Elec       q    Type
REMARK                         _______ _______ _______ _____ _____    ______ ____
ROOT
ATOM      1  C   LIG    1      -22.362  85.818  12.324  0.00  0.00    +0.126 A 
ATOM      2  N   LIG    1      -22.999  84.800  12.863  0.00  0.00    -0.212 NA
ATOM      3  C   LIG    1      -23.593  83.888  12.017  0.00  0.00    +0.170 A 
ATOM      4  C   LIG    1      -24.241  82.687  12.250  0.00  0.00    +0.100 A 
ATOM      5  C   LIG    1      -24.658  82.257  10.973  0.00  0.00    +0.150 A 
ATOM      6  N   LIG    1      -24.304  83.094   9.997  0.00  0.00    -0.173 NA
ATOM      7  N   LIG    1      -23.597  84.057  10.631  0.00  0.00    -0.221 N 
ATOM      8  C   LIG    1      -22.883  85.088  10.052  0.00  0.00    +0.118 A 
ATOM      9  C   LIG    1      -22.209  85.948  10.821  0.00  0.00    +0.063 A 
ENDROOT
BRANCH   1  11
ATOM     10  C   LIG    1      -20.596  86.611  13.945  0.00  0.00    +0.108 C 
ATOM     11  N   LIG    1      -21.820  86.819  13.130  0.00  0.00    -0.308 N 
ATOM     12  C   LIG    1      -22.684  87.809  13.788  0.00  0.00    +0.107 C 
ATOM     13  C   LIG    1      -22.191  87.861  15.223  0.00  0.00    +0.021 C 
ATOM     14  C   LIG    1      -20.698  87.674  15.056  0.00  0.00    +0.029 C 
BRANCH  10  18
ATOM     15  F   LIG    1      -17.516  89.185  11.098  0.00  0.00    -0.205 F 
ATOM     16  C   LIG    1      -17.791  88.059  11.770  0.00  0.00    +0.124 A 
ATOM     17  C   LIG    1      -18.990  87.958  12.476  0.00  0.00    +0.046 A 
ATOM     18  C   LIG    1      -19.312  86.778  13.163  0.00  0.00    +0.011 A 
ATOM     19  C   LIG    1      -18.368  85.740  13.151  0.00  0.00    +0.129 A 
ATOM     20  F   LIG    1      -18.620  84.602  13.815  0.00  0.00    -0.205 F 
ATOM     21  C   LIG    1      -17.160  85.849  12.457  0.00  0.00    +0.041 A 
ATOM     22  C   LIG    1      -16.875  87.013  11.749  0.00  0.00    +0.041 A 
ENDBRANCH  10  18
ENDBRANCH   1  11
BRANCH   4  23
ATOM     23  C   LIG    1      -24.449  81.984  13.502  0.00  0.00    +0.249 C 
ATOM     24  N   LIG    1      -23.425  82.134  14.413  0.00  0.00    -0.308 N 
ATOM     25  H   LIG    1      -22.656  82.755  14.151  0.00  0.00    +0.149 HD
ATOM     26  O   LIG    1      -25.450  81.317  13.706  0.00  0.00    -0.270 OA
BRANCH  24  27
ATOM     27  C   LIG    1      -23.414  81.525  15.697  0.00  0.00    +0.073 C 
ATOM     28  C   LIG    1      -22.134  81.485  16.487  0.00  0.00    +0.024 C 
ATOM     29  C   LIG    1      -22.728  80.213  15.964  0.00  0.00    +0.024 C 
ENDBRANCH  24  27
ENDBRANCH   4  23
TORSDOF 4
ENDMDL
MODEL 8
REMARK VINA RESULT:      -5.3      2.459      5.199
REMARK  Name = pdb/CHEMBL3671141.pdb
REMARK                            x       y       z     vdW  Elec       q    Type
REMARK                         _______ _______ _______ _____ _____    ______ ____
ROOT
ATOM      1  C   LIG    1      -20.546  78.841  33.801  0.00  0.00    +0.126 A 
ATOM      2  N   LIG    1      -21.079  78.217  32.772  0.00  0.00    -0.212 NA
ATOM      3  C   LIG    1      -20.229  77.651  31.847  0.00  0.00    +0.170 A 
ATOM      4  C   LIG    1      -20.458  76.863  30.732  0.00  0.00    +0.100 A 
ATOM      5  C   LIG    1      -19.177  76.646  30.184  0.00  0.00    +0.150 A 
ATOM      6  N   LIG    1      -18.202  77.227  30.884  0.00  0.00    -0.173 NA
ATOM      7  N   LIG    1      -18.842  77.785  31.936  0.00  0.00    -0.221 N 
ATOM      8  C   LIG    1      -18.269  78.387  33.040  0.00  0.00    +0.118 A 
ATOM      9  C   LIG    1      -19.045  78.869  34.016  0.00  0.00    +0.063 A 
ENDROOT
BRANCH   1  11
ATOM     10  C   LIG    1      -22.762  79.879  34.422  0.00  0.00    +0.108 C 
ATOM     11  N   LIG    1      -21.355  79.509  34.720  0.00  0.00    -0.308 N 
ATOM     12  C   LIG    1      -20.784  80.477  35.665  0.00  0.00    +0.107 C 
ATOM     13  C   LIG    1      -21.701  81.684  35.586  0.00  0.00    +0.021 C 
ATOM     14  C   LIG    1      -23.058  81.043  35.388  0.00  0.00    +0.029 C 
BRANCH  10  18
ATOM     15  F   LIG    1      -25.129  76.613  37.241  0.00  0.00    -0.205 F 
ATOM     16  C   LIG    1      -24.919  77.149  36.031  0.00  0.00    +0.124 A 
ATOM     17  C   LIG    1      -24.002  78.191  35.893  0.00  0.00    +0.046 A 
ATOM     18  C   LIG    1      -23.744  78.748  34.631  0.00  0.00    +0.011 A 
ATOM     19  C   LIG    1      -24.475  78.253  33.541  0.00  0.00    +0.129 A 
ATOM     20  F   LIG    1      -24.282  78.772  32.319  0.00  0.00    -0.205 F 
ATOM     21  C   LIG    1      -25.404  77.220  33.683  0.00  0.00    +0.041 A 
ATOM     22  C   LIG    1      -25.619  76.654  34.937  0.00  0.00    +0.041 A 
ENDBRANCH  10  18
ENDBRANCH   1  11
BRANCH   4  23
ATOM     23  C   LIG    1      -21.710  76.342  30.217  0.00  0.00    +0.249 C 
ATOM     24  N   LIG    1      -22.537  75.801  31.180  0.00  0.00    -0.308 N 
ATOM     25  H   LIG    1      -22.223  75.863  32.151  0.00  0.00    +0.149 HD
ATOM     26  O   LIG    1      -21.984  76.383  29.029  0.00  0.00    -0.270 OA
BRANCH  24  27
ATOM     27  C   LIG    1      -23.805  75.223  30.899  0.00  0.00    +0.073 C 
ATOM     28  C   LIG    1      -24.462  74.345  31.928  0.00  0.00    +0.024 C 
ATOM     29  C   LIG    1      -23.984  73.753  30.639  0.00  0.00    +0.024 C 
ENDBRANCH  24  27
ENDBRANCH   4  23
TORSDOF 4
ENDMDL
MODEL 9
REMARK VINA RESULT:      -5.3      6.800     10.869
REMARK  Name = pdb/CHEMBL3671141.pdb
REMARK                            x       y       z     vdW  Elec       q    Type
REMARK                         _______ _______ _______ _____ _____    ______ ____
ROOT
ATOM      1  C   LIG    1      -31.087  75.624  30.973  0.00  0.00    +0.126 A 
ATOM      2  N   LIG    1      -29.774  75.709  30.995  0.00  0.00    -0.212 NA
ATOM      3  C   LIG    1      -29.180  76.260  32.110  0.00  0.00    +0.170 A 
ATOM      4  C   LIG    1      -27.854  76.404  32.483  0.00  0.00    +0.100 A 
ATOM      5  C   LIG    1      -27.907  77.088  33.715  0.00  0.00    +0.150 A 
ATOM      6  N   LIG    1      -29.151  77.353  34.115  0.00  0.00    -0.173 NA
ATOM      7  N   LIG    1      -29.928  76.788  33.163  0.00  0.00    -0.221 N 
ATOM      8  C   LIG    1      -31.303  76.653  33.178  0.00  0.00    +0.118 A 
ATOM      9  C   LIG    1      -31.926  76.041  32.166  0.00  0.00    +0.063 A 
ENDROOT
BRANCH   1  11
ATOM     10  C   LIG    1      -33.128  75.576  29.487  0.00  0.00    +0.108 C 
ATOM     11  N   LIG    1      -31.746  75.159  29.836  0.00  0.00    -0.308 N 
ATOM     12  C   LIG    1      -31.500  73.804  29.322  0.00  0.00    +0.107 C 
ATOM     13  C   LIG    1      -32.881  73.232  29.059  0.00  0.00    +0.021 C 
ATOM     14  C   LIG    1      -33.644  74.447  28.574  0.00  0.00    +0.029 C 
BRANCH  10  18
ATOM     15  F   LIG    1      -32.054  78.602  25.759  0.00  0.00    -0.205 F 
ATOM     16  C   LIG    1      -32.675  78.393  26.926  0.00  0.00    +0.124 A 
ATOM     17  C   LIG    1      -32.579  77.144  27.539  0.00  0.00    +0.046 A 
ATOM     18  C   LIG    1      -33.197  76.910  28.777  0.00  0.00    +0.011 A 
ATOM     19  C   LIG    1      -33.945  77.956  29.338  0.00  0.00    +0.129 A 
ATOM     20  F   LIG    1      -34.575  77.772  30.508  0.00  0.00    -0.205 F 
ATOM     21  C   LIG    1      -34.053  79.202  28.715  0.00  0.00    +0.041 A 
ATOM     22  C   LIG    1      -33.402  79.427  27.506  0.00  0.00    +0.041 A 
ENDBRANCH  10  18
ENDBRANCH   1  11
BRANCH   4  23
ATOM     23  C   LIG    1      -26.655  75.955  31.803  0.00  0.00    +0.249 C 
ATOM     24  N   LIG    1      -25.742  76.956  31.542  0.00  0.00    -0.308 N 
ATOM     25  H   LIG    1      -25.965  77.891  31.891  0.00  0.00    +0.149 HD
ATOM     26  O   LIG    1      -26.492  74.787  31.491  0.00  0.00    -0.270 OA
BRANCH  24  27
ATOM     27  C   LIG    1      -24.505  76.743  30.875  0.00  0.00    +0.073 C 
ATOM     28  C   LIG    1      -23.272  77.457  31.357  0.00  0.00    +0.024 C 
ATOM     29  C   LIG    1      -23.856  77.797  30.021  0.00  0.00    +0.024 C 
ENDBRANCH  24  27
ENDBRANCH   4  23
TORSDOF 4
ENDMDL
