MODEL 1
REMARK VINA RESULT:      -6.5      0.000      0.000
REMARK  Name = pdb/CHEMBL3673481.pdb
REMARK                            x       y       z     vdW  Elec       q    Type
REMARK                         _______ _______ _______ _____ _____    ______ ____
ROOT
ATOM      1  C   LIG    1      -28.235  77.726  10.775  0.00  0.00    +0.161 C 
ENDROOT
BRANCH   1   2
ATOM      2  N   LIG    1      -27.681  77.593  12.117  0.00  0.00    -0.293 N 
ATOM      3  C   LIG    1      -26.746  78.429  12.657  0.00  0.00    +0.162 A 
ATOM      4  N   LIG    1      -26.101  79.422  12.029  0.00  0.00    -0.235 NA
ATOM      5  C   LIG    1      -25.247  80.082  12.867  0.00  0.00    +0.121 A 
ATOM      6  C   LIG    1      -25.000  79.841  14.227  0.00  0.00    +0.002 A 
ATOM      7  C   LIG    1      -25.728  78.763  14.783  0.00  0.00    +0.041 A 
ATOM      8  C   LIG    1      -26.619  78.040  13.971  0.00  0.00    +0.110 A 
ATOM      9  N   LIG    1      -27.433  76.974  14.240  0.00  0.00    -0.213 NA
ATOM     10  C   LIG    1      -28.031  76.712  13.121  0.00  0.00    +0.195 A 
BRANCH   6  11
ATOM     11  C   LIG    1      -24.019  80.640  15.029  0.00  0.00    -0.016 A 
ATOM     12  C   LIG    1      -23.255  80.060  16.065  0.00  0.00    +0.008 A 
ATOM     13  C   LIG    1      -22.341  80.799  16.828  0.00  0.00    +0.001 A 
ATOM     14  C   LIG    1      -22.158  82.150  16.580  0.00  0.00    +0.000 A 
ATOM     15  C   LIG    1      -22.884  82.759  15.564  0.00  0.00    +0.001 A 
ATOM     16  C   LIG    1      -23.795  82.013  14.803  0.00  0.00    +0.008 A 
ENDBRANCH   6  11
BRANCH  10  17
ATOM     17  N   LIG    1      -28.945  75.723  12.940  0.00  0.00    -0.329 N 
ATOM     18  H   LIG    1      -28.810  75.193  12.081  0.00  0.00    +0.145 HD
ATOM     19  H   LIG    1      -29.911  75.860  13.160  0.00  0.00    +0.145 HD
ENDBRANCH  10  17
ENDBRANCH   1   2
BRANCH   1  23
ATOM     20  C   LIG    1      -31.569  80.523  10.551  0.00  0.00    +0.162 A 
ATOM     21  C   LIG    1      -30.451  80.711   9.718  0.00  0.00    +0.162 A 
ATOM     22  C   LIG    1      -29.367  79.805   9.792  0.00  0.00    +0.054 A 
ATOM     23  C   LIG    1      -29.383  78.716  10.688  0.00  0.00    -0.024 A 
ATOM     24  C   LIG    1      -30.534  78.529  11.455  0.00  0.00    +0.009 A 
ATOM     25  C   LIG    1      -31.618  79.392  11.358  0.00  0.00    +0.050 A 
BRANCH  21  26
ATOM     26  O   LIG    1      -30.283  81.762   8.841  0.00  0.00    -0.491 OA
ATOM     27  C   LIG    1      -29.471  82.848   9.296  0.00  0.00    +0.277 C 
ENDBRANCH  21  26
BRANCH  20  28
ATOM     28  O   LIG    1      -32.537  81.482  10.554  0.00  0.00    -0.484 OA
BRANCH  28  29
ATOM     29  C   LIG    1      -33.752  81.339   9.835  0.00  0.00    +0.266 C 
BRANCH  29  33
ATOM     30  C   LIG    1      -36.830  83.979  11.066  0.00  0.00    +0.214 A 
ATOM     31  N   LIG    1      -37.020  83.183  10.002  0.00  0.00    -0.221 NA
ATOM     32  C   LIG    1      -36.022  82.352   9.676  0.00  0.00    +0.121 A 
ATOM     33  C   LIG    1      -34.800  82.291  10.330  0.00  0.00    +0.008 A 
ATOM     34  C   LIG    1      -34.627  83.135  11.432  0.00  0.00    +0.013 A 
ATOM     35  C   LIG    1      -35.658  84.002  11.804  0.00  0.00    +0.067 A 
BRANCH  30  37
ATOM     36  C   LIG    1      -39.101  84.067  11.459  0.00  0.00    +0.279 C 
ATOM     37  O   LIG    1      -37.870  84.799  11.444  0.00  0.00    -0.480 OA
ENDBRANCH  30  37
ENDBRANCH  29  33
ENDBRANCH  28  29
ENDBRANCH  20  28
ENDBRANCH   1  23
TORSDOF 9
ENDMDL
MODEL 2
REMARK VINA RESULT:      -6.3     16.083     19.074
REMARK  Name = pdb/CHEMBL3673481.pdb
REMARK                            x       y       z     vdW  Elec       q    Type
REMARK                         _______ _______ _______ _____ _____    ______ ____
ROOT
ATOM      1  C   LIG    1      -39.741  81.718  26.236  0.00  0.00    +0.161 C 
ENDROOT
BRANCH   1   2
ATOM      2  N   LIG    1      -39.568  80.876  25.060  0.00  0.00    -0.293 N 
ATOM      3  C   LIG    1      -39.739  79.522  25.042  0.00  0.00    +0.162 A 
ATOM      4  N   LIG    1      -39.976  78.730  26.098  0.00  0.00    -0.235 NA
ATOM      5  C   LIG    1      -40.123  77.423  25.731  0.00  0.00    +0.121 A 
ATOM      6  C   LIG    1      -40.059  76.867  24.444  0.00  0.00    +0.002 A 
ATOM      7  C   LIG    1      -39.794  77.792  23.406  0.00  0.00    +0.041 A 
ATOM      8  C   LIG    1      -39.627  79.152  23.722  0.00  0.00    +0.110 A 
ATOM      9  N   LIG    1      -39.367  80.241  22.936  0.00  0.00    -0.213 NA
ATOM     10  C   LIG    1      -39.311  81.245  23.754  0.00  0.00    +0.195 A 
BRANCH   6  11
ATOM     11  C   LIG    1      -40.226  75.401  24.182  0.00  0.00    -0.016 A 
ATOM     12  C   LIG    1      -41.375  74.883  23.545  0.00  0.00    +0.008 A 
ATOM     13  C   LIG    1      -41.546  73.514  23.304  0.00  0.00    +0.001 A 
ATOM     14  C   LIG    1      -40.571  72.610  23.693  0.00  0.00    +0.000 A 
ATOM     15  C   LIG    1      -39.421  73.077  24.316  0.00  0.00    +0.001 A 
ATOM     16  C   LIG    1      -39.254  74.450  24.553  0.00  0.00    +0.008 A 
ENDBRANCH   6  11
BRANCH  10  17
ATOM     17  N   LIG    1      -39.082  82.534  23.390  0.00  0.00    -0.329 N 
ATOM     18  H   LIG    1      -39.378  82.750  22.440  0.00  0.00    +0.145 HD
ATOM     19  H   LIG    1      -38.239  83.005  23.648  0.00  0.00    +0.145 HD
ENDBRANCH  10  17
ENDBRANCH   1   2
BRANCH   1  23
ATOM     20  C   LIG    1      -36.002  82.737  28.230  0.00  0.00    +0.162 A 
ATOM     21  C   LIG    1      -36.570  83.646  27.319  0.00  0.00    +0.162 A 
ATOM     22  C   LIG    1      -37.784  83.315  26.669  0.00  0.00    +0.054 A 
ATOM     23  C   LIG    1      -38.434  82.088  26.915  0.00  0.00    -0.024 A 
ATOM     24  C   LIG    1      -37.871  81.239  27.869  0.00  0.00    +0.009 A 
ATOM     25  C   LIG    1      -36.702  81.576  28.539  0.00  0.00    +0.050 A 
BRANCH  21  26
ATOM     26  O   LIG    1      -36.012  84.850  26.947  0.00  0.00    -0.491 OA
ATOM     27  C   LIG    1      -35.558  84.951  25.595  0.00  0.00    +0.277 C 
ENDBRANCH  21  26
BRANCH  20  28
ATOM     28  O   LIG    1      -34.771  83.022  28.739  0.00  0.00    -0.484 OA
BRANCH  28  29
ATOM     29  C   LIG    1      -34.585  83.481  30.069  0.00  0.00    +0.266 C 
BRANCH  29  33
ATOM     30  C   LIG    1      -32.006  86.843  30.082  0.00  0.00    +0.214 A 
ATOM     31  N   LIG    1      -33.146  86.879  29.373  0.00  0.00    -0.221 NA
ATOM     32  C   LIG    1      -33.932  85.797  29.428  0.00  0.00    +0.121 A 
ATOM     33  C   LIG    1      -33.631  84.637  30.125  0.00  0.00    +0.008 A 
ATOM     34  C   LIG    1      -32.434  84.623  30.850  0.00  0.00    +0.013 A 
ATOM     35  C   LIG    1      -31.600  85.745  30.823  0.00  0.00    +0.067 A 
BRANCH  30  37
ATOM     36  C   LIG    1      -29.848  87.619  30.330  0.00  0.00    +0.279 C 
ATOM     37  O   LIG    1      -31.214  87.970  30.077  0.00  0.00    -0.480 OA
ENDBRANCH  30  37
ENDBRANCH  29  33
ENDBRANCH  28  29
ENDBRANCH  20  28
ENDBRANCH   1  23
TORSDOF 9
ENDMDL
MODEL 3
REMARK VINA RESULT:      -6.3      8.160     10.641
REMARK  Name = pdb/CHEMBL3673481.pdb
REMARK                            x       y       z     vdW  Elec       q    Type
REMARK                         _______ _______ _______ _____ _____    ______ ____
ROOT
ATOM      1  C   LIG    1      -21.586  87.655  11.537  0.00  0.00    +0.161 C 
ENDROOT
BRANCH   1   2
ATOM      2  N   LIG    1      -21.802  87.130  12.880  0.00  0.00    -0.293 N 
ATOM      3  C   LIG    1      -22.193  85.853  13.161  0.00  0.00    +0.162 A 
ATOM      4  N   LIG    1      -22.552  84.912  12.275  0.00  0.00    -0.235 NA
ATOM      5  C   LIG    1      -22.863  83.731  12.887  0.00  0.00    +0.121 A 
ATOM      6  C   LIG    1      -22.841  83.427  14.257  0.00  0.00    +0.002 A 
ATOM      7  C   LIG    1      -22.457  84.497  15.100  0.00  0.00    +0.041 A 
ATOM      8  C   LIG    1      -22.130  85.740  14.531  0.00  0.00    +0.110 A 
ATOM      9  N   LIG    1      -21.736  86.922  15.095  0.00  0.00    -0.213 NA
ATOM     10  C   LIG    1      -21.573  87.736  14.100  0.00  0.00    +0.195 A 
BRANCH   6  11
ATOM     11  C   LIG    1      -23.223  82.083  14.797  0.00  0.00    -0.016 A 
ATOM     12  C   LIG    1      -24.340  81.372  14.307  0.00  0.00    +0.008 A 
ATOM     13  C   LIG    1      -24.713  80.119  14.811  0.00  0.00    +0.001 A 
ATOM     14  C   LIG    1      -23.978  79.529  15.827  0.00  0.00    +0.000 A 
ATOM     15  C   LIG    1      -22.866  80.191  16.333  0.00  0.00    +0.001 A 
ATOM     16  C   LIG    1      -22.497  81.444  15.823  0.00  0.00    +0.008 A 
ENDBRANCH   6  11
BRANCH  10  17
ATOM     17  N   LIG    1      -21.170  89.029  14.210  0.00  0.00    -0.329 N 
ATOM     18  H   LIG    1      -21.927  89.677  14.421  0.00  0.00    +0.145 HD
ATOM     19  H   LIG    1      -20.491  89.417  13.587  0.00  0.00    +0.145 HD
ENDBRANCH  10  17
ENDBRANCH   1   2
BRANCH   1  23
ATOM     20  C   LIG    1      -24.450  90.731  10.385  0.00  0.00    +0.162 A 
ATOM     21  C   LIG    1      -24.909  89.434  10.677  0.00  0.00    +0.162 A 
ATOM     22  C   LIG    1      -23.979  88.434  11.049  0.00  0.00    +0.054 A 
ATOM     23  C   LIG    1      -22.599  88.712  11.130  0.00  0.00    -0.024 A 
ATOM     24  C   LIG    1      -22.190  90.024  10.890  0.00  0.00    +0.009 A 
ATOM     25  C   LIG    1      -23.102  91.019  10.565  0.00  0.00    +0.050 A 
BRANCH  21  26
ATOM     26  O   LIG    1      -26.219  89.015  10.583  0.00  0.00    -0.491 OA
ATOM     27  C   LIG    1      -26.429  87.680  10.116  0.00  0.00    +0.277 C 
ENDBRANCH  21  26
BRANCH  20  28
ATOM     28  O   LIG    1      -25.347  91.636   9.903  0.00  0.00    -0.484 OA
BRANCH  28  29
ATOM     29  C   LIG    1      -25.451  92.954  10.421  0.00  0.00    +0.266 C 
BRANCH  29  33
ATOM     30  C   LIG    1      -27.868  92.923  13.901  0.00  0.00    +0.214 A 
ATOM     31  N   LIG    1      -28.185  92.134  12.861  0.00  0.00    -0.221 NA
ATOM     32  C   LIG    1      -27.371  92.168  11.800  0.00  0.00    +0.121 A 
ATOM     33  C   LIG    1      -26.257  92.987  11.685  0.00  0.00    +0.008 A 
ATOM     34  C   LIG    1      -25.953  93.803  12.780  0.00  0.00    +0.013 A 
ATOM     35  C   LIG    1      -26.778  93.777  13.908  0.00  0.00    +0.067 A 
BRANCH  30  37
ATOM     36  C   LIG    1      -29.054  94.173  15.433  0.00  0.00    +0.279 C 
ATOM     37  O   LIG    1      -28.668  92.857  15.021  0.00  0.00    -0.480 OA
ENDBRANCH  30  37
ENDBRANCH  29  33
ENDBRANCH  28  29
ENDBRANCH  20  28
ENDBRANCH   1  23
TORSDOF 9
ENDMDL
MODEL 4
REMARK VINA RESULT:      -6.3     16.170     18.339
REMARK  Name = pdb/CHEMBL3673481.pdb
REMARK                            x       y       z     vdW  Elec       q    Type
REMARK                         _______ _______ _______ _____ _____    ______ ____
ROOT
ATOM      1  C   LIG    1      -34.119  70.663  29.291  0.00  0.00    +0.161 C 
ENDROOT
BRANCH   1   2
ATOM      2  N   LIG    1      -33.127  71.730  29.341  0.00  0.00    -0.293 N 
ATOM      3  C   LIG    1      -33.359  73.024  28.975  0.00  0.00    +0.162 A 
ATOM      4  N   LIG    1      -34.473  73.509  28.409  0.00  0.00    -0.235 NA
ATOM      5  C   LIG    1      -34.389  74.855  28.192  0.00  0.00    +0.121 A 
ATOM      6  C   LIG    1      -33.324  75.720  28.488  0.00  0.00    +0.002 A 
ATOM      7  C   LIG    1      -32.195  75.099  29.073  0.00  0.00    +0.041 A 
ATOM      8  C   LIG    1      -32.219  73.715  29.316  0.00  0.00    +0.110 A 
ATOM      9  N   LIG    1      -31.288  72.872  29.858  0.00  0.00    -0.213 NA
ATOM     10  C   LIG    1      -31.838  71.699  29.839  0.00  0.00    +0.195 A 
BRANCH   6  11
ATOM     11  C   LIG    1      -33.359  77.186  28.181  0.00  0.00    -0.016 A 
ATOM     12  C   LIG    1      -32.600  77.748  27.131  0.00  0.00    +0.008 A 
ATOM     13  C   LIG    1      -32.618  79.118  26.842  0.00  0.00    +0.001 A 
ATOM     14  C   LIG    1      -33.399  79.980  27.595  0.00  0.00    +0.000 A 
ATOM     15  C   LIG    1      -34.168  79.469  28.632  0.00  0.00    +0.001 A 
ATOM     16  C   LIG    1      -34.148  78.095  28.916  0.00  0.00    +0.008 A 
ENDBRANCH   6  11
BRANCH  10  17
ATOM     17  N   LIG    1      -31.259  70.559  30.299  0.00  0.00    -0.329 N 
ATOM     18  H   LIG    1      -31.183  69.827  29.595  0.00  0.00    +0.145 HD
ATOM     19  H   LIG    1      -31.466  70.201  31.209  0.00  0.00    +0.145 HD
ENDBRANCH  10  17
ENDBRANCH   1   2
BRANCH   1  23
ATOM     20  C   LIG    1      -34.599  68.929  25.322  0.00  0.00    +0.162 A 
ATOM     21  C   LIG    1      -35.148  70.195  25.595  0.00  0.00    +0.162 A 
ATOM     22  C   LIG    1      -34.994  70.758  26.884  0.00  0.00    +0.054 A 
ATOM     23  C   LIG    1      -34.304  70.072  27.904  0.00  0.00    -0.024 A 
ATOM     24  C   LIG    1      -33.723  68.846  27.578  0.00  0.00    +0.009 A 
ATOM     25  C   LIG    1      -33.835  68.307  26.304  0.00  0.00    +0.050 A 
BRANCH  21  26
ATOM     26  O   LIG    1      -35.892  70.945  24.709  0.00  0.00    -0.491 OA
ATOM     27  C   LIG    1      -37.289  71.062  24.990  0.00  0.00    +0.277 C 
ENDBRANCH  21  26
BRANCH  20  28
ATOM     28  O   LIG    1      -34.874  68.355  24.118  0.00  0.00    -0.484 OA
BRANCH  28  29
ATOM     29  C   LIG    1      -36.113  67.718  23.843  0.00  0.00    +0.266 C 
BRANCH  29  33
ATOM     30  C   LIG    1      -37.093  68.021  19.732  0.00  0.00    +0.214 A 
ATOM     31  N   LIG    1      -36.262  67.053  20.150  0.00  0.00    -0.221 NA
ATOM     32  C   LIG    1      -36.010  66.991  21.463  0.00  0.00    +0.121 A 
ATOM     33  C   LIG    1      -36.508  67.879  22.405  0.00  0.00    +0.008 A 
ATOM     34  C   LIG    1      -37.366  68.882  21.942  0.00  0.00    +0.013 A 
ATOM     35  C   LIG    1      -37.660  68.961  20.578  0.00  0.00    +0.067 A 
BRANCH  30  37
ATOM     36  C   LIG    1      -37.284  66.756  17.813  0.00  0.00    +0.279 C 
ATOM     37  O   LIG    1      -37.403  68.062  18.390  0.00  0.00    -0.480 OA
ENDBRANCH  30  37
ENDBRANCH  29  33
ENDBRANCH  28  29
ENDBRANCH  20  28
ENDBRANCH   1  23
TORSDOF 9
ENDMDL
MODEL 5
REMARK VINA RESULT:      -6.2     14.932     18.777
REMARK  Name = pdb/CHEMBL3673481.pdb
REMARK                            x       y       z     vdW  Elec       q    Type
REMARK                         _______ _______ _______ _____ _____    ______ ____
ROOT
ATOM      1  C   LIG    1      -36.618  67.276  23.880  0.00  0.00    +0.161 C 
ENDROOT
BRANCH   1   2
ATOM      2  N   LIG    1      -36.537  68.674  24.285  0.00  0.00    -0.293 N 
ATOM      3  C   LIG    1      -37.514  69.603  24.068  0.00  0.00    +0.162 A 
ATOM      4  N   LIG    1      -38.641  69.431  23.361  0.00  0.00    -0.235 NA
ATOM      5  C   LIG    1      -39.417  70.555  23.362  0.00  0.00    +0.121 A 
ATOM      6  C   LIG    1      -39.169  71.785  23.990  0.00  0.00    +0.002 A 
ATOM      7  C   LIG    1      -37.947  71.858  24.699  0.00  0.00    +0.041 A 
ATOM      8  C   LIG    1      -37.101  70.736  24.731  0.00  0.00    +0.110 A 
ATOM      9  N   LIG    1      -35.886  70.530  25.326  0.00  0.00    -0.213 NA
ATOM     10  C   LIG    1      -35.562  69.312  25.026  0.00  0.00    +0.195 A 
BRANCH   6  11
ATOM     11  C   LIG    1      -40.108  72.949  23.896  0.00  0.00    -0.016 A 
ATOM     12  C   LIG    1      -41.428  72.806  23.417  0.00  0.00    +0.008 A 
ATOM     13  C   LIG    1      -42.312  73.888  23.316  0.00  0.00    +0.001 A 
ATOM     14  C   LIG    1      -41.905  75.158  23.693  0.00  0.00    +0.000 A 
ATOM     15  C   LIG    1      -40.616  75.342  24.178  0.00  0.00    +0.001 A 
ATOM     16  C   LIG    1      -39.737  74.254  24.278  0.00  0.00    +0.008 A 
ENDBRANCH   6  11
BRANCH  10  17
ATOM     17  N   LIG    1      -34.423  68.688  25.426  0.00  0.00    -0.329 N 
ATOM     18  H   LIG    1      -33.750  69.311  25.869  0.00  0.00    +0.145 HD
ATOM     19  H   LIG    1      -33.988  67.987  24.862  0.00  0.00    +0.145 HD
ENDBRANCH  10  17
ENDBRANCH   1   2
BRANCH   1  23
ATOM     20  C   LIG    1      -34.622  66.462  20.093  0.00  0.00    +0.162 A 
ATOM     21  C   LIG    1      -35.949  66.927  20.089  0.00  0.00    +0.162 A 
ATOM     22  C   LIG    1      -36.599  67.190  21.318  0.00  0.00    +0.054 A 
ATOM     23  C   LIG    1      -35.942  66.990  22.550  0.00  0.00    -0.024 A 
ATOM     24  C   LIG    1      -34.607  66.584  22.511  0.00  0.00    +0.009 A 
ATOM     25  C   LIG    1      -33.952  66.364  21.307  0.00  0.00    +0.050 A 
BRANCH  21  26
ATOM     26  O   LIG    1      -36.723  67.111  18.963  0.00  0.00    -0.491 OA
ATOM     27  C   LIG    1      -38.048  66.575  19.005  0.00  0.00    +0.277 C 
ENDBRANCH  21  26
BRANCH  20  28
ATOM     28  O   LIG    1      -34.067  66.092  18.905  0.00  0.00    -0.484 OA
BRANCH  28  29
ATOM     29  C   LIG    1      -33.344  67.000  18.087  0.00  0.00    +0.266 C 
BRANCH  29  33
ATOM     30  C   LIG    1      -29.207  67.209  18.982  0.00  0.00    +0.214 A 
ATOM     31  N   LIG    1      -29.859  68.311  18.576  0.00  0.00    -0.221 NA
ATOM     32  C   LIG    1      -31.170  68.190  18.333  0.00  0.00    +0.121 A 
ATOM     33  C   LIG    1      -31.883  67.004  18.428  0.00  0.00    +0.008 A 
ATOM     34  C   LIG    1      -31.179  65.870  18.846  0.00  0.00    +0.013 A 
ATOM     35  C   LIG    1      -29.812  65.971  19.121  0.00  0.00    +0.067 A 
BRANCH  30  37
ATOM     36  C   LIG    1      -27.337  68.530  18.706  0.00  0.00    +0.279 C 
ATOM     37  O   LIG    1      -27.869  67.334  19.287  0.00  0.00    -0.480 OA
ENDBRANCH  30  37
ENDBRANCH  29  33
ENDBRANCH  28  29
ENDBRANCH  20  28
ENDBRANCH   1  23
TORSDOF 9
ENDMDL
MODEL 6
REMARK VINA RESULT:      -6.2     16.785     19.031
REMARK  Name = pdb/CHEMBL3673481.pdb
REMARK                            x       y       z     vdW  Elec       q    Type
REMARK                         _______ _______ _______ _____ _____    ______ ____
ROOT
ATOM      1  C   LIG    1      -36.215  72.770  28.203  0.00  0.00    +0.161 C 
ENDROOT
BRANCH   1   2
ATOM      2  N   LIG    1      -36.454  71.947  27.023  0.00  0.00    -0.293 N 
ATOM      3  C   LIG    1      -37.579  72.004  26.252  0.00  0.00    +0.162 A 
ATOM      4  N   LIG    1      -38.684  72.722  26.498  0.00  0.00    -0.235 NA
ATOM      5  C   LIG    1      -39.617  72.574  25.511  0.00  0.00    +0.121 A 
ATOM      6  C   LIG    1      -39.534  71.801  24.343  0.00  0.00    +0.002 A 
ATOM      7  C   LIG    1      -38.328  71.077  24.191  0.00  0.00    +0.041 A 
ATOM      8  C   LIG    1      -37.331  71.183  25.176  0.00  0.00    +0.110 A 
ATOM      9  N   LIG    1      -36.095  70.606  25.284  0.00  0.00    -0.213 NA
ATOM     10  C   LIG    1      -35.607  71.054  26.397  0.00  0.00    +0.195 A 
BRANCH   6  11
ATOM     11  C   LIG    1      -40.646  71.718  23.343  0.00  0.00    -0.016 A 
ATOM     12  C   LIG    1      -41.577  72.767  23.173  0.00  0.00    +0.008 A 
ATOM     13  C   LIG    1      -42.626  72.696  22.248  0.00  0.00    +0.001 A 
ATOM     14  C   LIG    1      -42.784  71.570  21.456  0.00  0.00    +0.000 A 
ATOM     15  C   LIG    1      -41.886  70.518  21.586  0.00  0.00    +0.001 A 
ATOM     16  C   LIG    1      -40.836  70.595  22.512  0.00  0.00    +0.008 A 
ENDBRANCH   6  11
BRANCH  10  17
ATOM     17  N   LIG    1      -34.381  70.741  26.892  0.00  0.00    -0.329 N 
ATOM     18  H   LIG    1      -34.137  71.254  27.737  0.00  0.00    +0.145 HD
ATOM     19  H   LIG    1      -33.597  70.598  26.288  0.00  0.00    +0.145 HD
ENDBRANCH  10  17
ENDBRANCH   1   2
BRANCH   1  23
ATOM     20  C   LIG    1      -34.231  76.554  27.344  0.00  0.00    +0.162 A 
ATOM     21  C   LIG    1      -35.621  76.446  27.164  0.00  0.00    +0.162 A 
ATOM     22  C   LIG    1      -36.266  75.217  27.440  0.00  0.00    +0.054 A 
ATOM     23  C   LIG    1      -35.540  74.095  27.890  0.00  0.00    -0.024 A 
ATOM     24  C   LIG    1      -34.172  74.259  28.114  0.00  0.00    +0.009 A 
ATOM     25  C   LIG    1      -33.542  75.474  27.883  0.00  0.00    +0.050 A 
BRANCH  21  26
ATOM     26  O   LIG    1      -36.439  77.444  26.677  0.00  0.00    -0.491 OA
ATOM     27  C   LIG    1      -37.323  78.059  27.618  0.00  0.00    +0.277 C 
ENDBRANCH  21  26
BRANCH  20  28
ATOM     28  O   LIG    1      -33.619  77.704  26.946  0.00  0.00    -0.484 OA
BRANCH  28  29
ATOM     29  C   LIG    1      -33.026  78.609  27.865  0.00  0.00    +0.266 C 
BRANCH  29  33
ATOM     30  C   LIG    1      -35.842  81.481  29.199  0.00  0.00    +0.214 A 
ATOM     31  N   LIG    1      -35.373  81.539  27.942  0.00  0.00    -0.221 NA
ATOM     32  C   LIG    1      -34.505  80.590  27.570  0.00  0.00    +0.121 A 
ATOM     33  C   LIG    1      -34.028  79.587  28.401  0.00  0.00    +0.008 A 
ATOM     34  C   LIG    1      -34.528  79.553  29.707  0.00  0.00    +0.013 A 
ATOM     35  C   LIG    1      -35.447  80.522  30.118  0.00  0.00    +0.067 A 
BRANCH  30  37
ATOM     36  C   LIG    1      -36.214  83.736  29.503  0.00  0.00    +0.279 C 
ATOM     37  O   LIG    1      -36.775  82.420  29.577  0.00  0.00    -0.480 OA
ENDBRANCH  30  37
ENDBRANCH  29  33
ENDBRANCH  28  29
ENDBRANCH  20  28
ENDBRANCH   1  23
TORSDOF 9
ENDMDL
MODEL 7
REMARK VINA RESULT:      -6.2      1.519      2.172
REMARK  Name = pdb/CHEMBL3673481.pdb
REMARK                            x       y       z     vdW  Elec       q    Type
REMARK                         _______ _______ _______ _____ _____    ______ ____
ROOT
ATOM      1  C   LIG    1      -27.947  77.021  10.859  0.00  0.00    +0.161 C 
ENDROOT
BRANCH   1   2
ATOM      2  N   LIG    1      -27.522  77.070  12.252  0.00  0.00    -0.293 N 
ATOM      3  C   LIG    1      -26.606  77.949  12.755  0.00  0.00    +0.162 A 
ATOM      4  N   LIG    1      -25.867  78.823  12.056  0.00  0.00    -0.235 NA
ATOM      5  C   LIG    1      -25.066  79.574  12.869  0.00  0.00    +0.121 A 
ATOM      6  C   LIG    1      -24.952  79.526  14.266  0.00  0.00    +0.002 A 
ATOM      7  C   LIG    1      -25.770  78.560  14.899  0.00  0.00    +0.041 A 
ATOM      8  C   LIG    1      -26.613  77.752  14.117  0.00  0.00    +0.110 A 
ATOM      9  N   LIG    1      -27.490  76.758  14.456  0.00  0.00    -0.213 NA
ATOM     10  C   LIG    1      -27.996  76.354  13.334  0.00  0.00    +0.195 A 
BRANCH   6  11
ATOM     11  C   LIG    1      -24.015  80.405  15.036  0.00  0.00    -0.016 A 
ATOM     12  C   LIG    1      -23.170  79.893  16.046  0.00  0.00    +0.008 A 
ATOM     13  C   LIG    1      -22.297  80.708  16.778  0.00  0.00    +0.001 A 
ATOM     14  C   LIG    1      -22.237  82.069  16.527  0.00  0.00    +0.000 A 
ATOM     15  C   LIG    1      -23.045  82.613  15.537  0.00  0.00    +0.001 A 
ATOM     16  C   LIG    1      -23.915  81.792  14.805  0.00  0.00    +0.008 A 
ENDBRANCH   6  11
BRANCH  10  17
ATOM     17  N   LIG    1      -28.930  75.374  13.209  0.00  0.00    -0.329 N 
ATOM     18  H   LIG    1      -29.795  75.568  13.710  0.00  0.00    +0.145 HD
ATOM     19  H   LIG    1      -28.677  74.408  13.234  0.00  0.00    +0.145 HD
ENDBRANCH  10  17
ENDBRANCH   1   2
BRANCH   1  23
ATOM     20  C   LIG    1      -31.923  78.697  10.249  0.00  0.00    +0.162 A 
ATOM     21  C   LIG    1      -31.609  77.443   9.696  0.00  0.00    +0.162 A 
ATOM     22  C   LIG    1      -30.317  76.898   9.892  0.00  0.00    +0.054 A 
ATOM     23  C   LIG    1      -29.335  77.592  10.628  0.00  0.00    -0.024 A 
ATOM     24  C   LIG    1      -29.703  78.806  11.211  0.00  0.00    +0.009 A 
ATOM     25  C   LIG    1      -30.981  79.326  11.056  0.00  0.00    +0.050 A 
BRANCH  21  26
ATOM     26  O   LIG    1      -32.454  76.687   8.911  0.00  0.00    -0.491 OA
ATOM     27  C   LIG    1      -33.135  75.610   9.560  0.00  0.00    +0.277 C 
ENDBRANCH  21  26
BRANCH  20  28
ATOM     28  O   LIG    1      -33.126  79.255   9.935  0.00  0.00    -0.484 OA
BRANCH  28  29
ATOM     29  C   LIG    1      -33.237  80.427   9.143  0.00  0.00    +0.266 C 
BRANCH  29  33
ATOM     30  C   LIG    1      -35.392  83.495  11.119  0.00  0.00    +0.214 A 
ATOM     31  N   LIG    1      -36.022  82.692  10.247  0.00  0.00    -0.221 NA
ATOM     32  C   LIG    1      -35.296  81.725   9.673  0.00  0.00    +0.121 A 
ATOM     33  C   LIG    1      -33.939  81.527   9.883  0.00  0.00    +0.008 A 
ATOM     34  C   LIG    1      -33.305  82.381  10.791  0.00  0.00    +0.013 A 
ATOM     35  C   LIG    1      -34.043  83.391  11.417  0.00  0.00    +0.067 A 
BRANCH  30  37
ATOM     36  C   LIG    1      -35.462  85.721  11.718  0.00  0.00    +0.279 C 
ATOM     37  O   LIG    1      -36.140  84.460  11.757  0.00  0.00    -0.480 OA
ENDBRANCH  30  37
ENDBRANCH  29  33
ENDBRANCH  28  29
ENDBRANCH  20  28
ENDBRANCH   1  23
TORSDOF 9
ENDMDL
MODEL 8
REMARK VINA RESULT:      -6.2      2.075      2.957
REMARK  Name = pdb/CHEMBL3673481.pdb
REMARK                            x       y       z     vdW  Elec       q    Type
REMARK                         _______ _______ _______ _____ _____    ______ ____
ROOT
ATOM      1  C   LIG    1      -27.952  77.600  10.805  0.00  0.00    +0.161 C 
ENDROOT
BRANCH   1   2
ATOM      2  N   LIG    1      -27.453  77.532  12.173  0.00  0.00    -0.293 N 
ATOM      3  C   LIG    1      -26.546  78.398  12.713  0.00  0.00    +0.162 A 
ATOM      4  N   LIG    1      -25.882  79.367  12.068  0.00  0.00    -0.235 NA
ATOM      5  C   LIG    1      -25.067  80.071  12.909  0.00  0.00    +0.121 A 
ATOM      6  C   LIG    1      -24.875  79.892  14.287  0.00  0.00    +0.002 A 
ATOM      7  C   LIG    1      -25.619  78.834  14.862  0.00  0.00    +0.041 A 
ATOM      8  C   LIG    1      -26.471  78.069  14.047  0.00  0.00    +0.110 A 
ATOM      9  N   LIG    1      -27.289  77.009  14.330  0.00  0.00    -0.213 NA
ATOM     10  C   LIG    1      -27.839  76.693  13.200  0.00  0.00    +0.195 A 
BRANCH   6  11
ATOM     11  C   LIG    1      -23.932  80.734  15.092  0.00  0.00    -0.016 A 
ATOM     12  C   LIG    1      -23.734  82.105  14.816  0.00  0.00    +0.008 A 
ATOM     13  C   LIG    1      -22.848  82.899  15.555  0.00  0.00    +0.001 A 
ATOM     14  C   LIG    1      -22.126  82.349  16.602  0.00  0.00    +0.000 A 
ATOM     15  C   LIG    1      -22.297  81.006  16.913  0.00  0.00    +0.001 A 
ATOM     16  C   LIG    1      -23.187  80.217  16.171  0.00  0.00    +0.008 A 
ENDBRANCH   6  11
BRANCH  10  17
ATOM     17  N   LIG    1      -28.739  75.690  13.027  0.00  0.00    -0.329 N 
ATOM     18  H   LIG    1      -28.651  75.212  12.132  0.00  0.00    +0.145 HD
ATOM     19  H   LIG    1      -29.689  75.787  13.321  0.00  0.00    +0.145 HD
ENDBRANCH  10  17
ENDBRANCH   1   2
BRANCH   1  23
ATOM     20  C   LIG    1      -31.217  80.437  10.274  0.00  0.00    +0.162 A 
ATOM     21  C   LIG    1      -31.371  79.366  11.172  0.00  0.00    +0.162 A 
ATOM     22  C   LIG    1      -30.312  78.442  11.344  0.00  0.00    +0.054 A 
ATOM     23  C   LIG    1      -29.104  78.573  10.628  0.00  0.00    -0.024 A 
ATOM     24  C   LIG    1      -28.967  79.682   9.791  0.00  0.00    +0.009 A 
ATOM     25  C   LIG    1      -29.987  80.613   9.650  0.00  0.00    +0.050 A 
BRANCH  21  26
ATOM     26  O   LIG    1      -32.515  79.090  11.890  0.00  0.00    -0.491 OA
ATOM     27  C   LIG    1      -33.348  78.043  11.384  0.00  0.00    +0.277 C 
ENDBRANCH  21  26
BRANCH  20  28
ATOM     28  O   LIG    1      -32.297  81.231  10.031  0.00  0.00    -0.484 OA
BRANCH  28  29
ATOM     29  C   LIG    1      -32.243  82.336   9.141  0.00  0.00    +0.266 C 
BRANCH  29  33
ATOM     30  C   LIG    1      -32.169  86.002  11.266  0.00  0.00    +0.214 A 
ATOM     31  N   LIG    1      -33.313  85.304  11.179  0.00  0.00    -0.221 NA
ATOM     32  C   LIG    1      -33.269  84.141  10.517  0.00  0.00    +0.121 A 
ATOM     33  C   LIG    1      -32.144  83.636   9.883  0.00  0.00    +0.008 A 
ATOM     34  C   LIG    1      -30.967  84.386   9.983  0.00  0.00    +0.013 A 
ATOM     35  C   LIG    1      -30.980  85.598  10.681  0.00  0.00    +0.067 A 
BRANCH  30  37
ATOM     36  C   LIG    1      -33.535  87.524  12.330  0.00  0.00    +0.279 C 
ATOM     37  O   LIG    1      -32.189  87.174  11.989  0.00  0.00    -0.480 OA
ENDBRANCH  30  37
ENDBRANCH  29  33
ENDBRANCH  28  29
ENDBRANCH  20  28
ENDBRANCH   1  23
TORSDOF 9
ENDMDL
MODEL 9
REMARK VINA RESULT:      -6.1      1.235      1.924
REMARK  Name = pdb/CHEMBL3673481.pdb
REMARK                            x       y       z     vdW  Elec       q    Type
REMARK                         _______ _______ _______ _____ _____    ______ ____
ROOT
ATOM      1  C   LIG    1      -28.175  77.332  10.727  0.00  0.00    +0.161 C 
ENDROOT
BRANCH   1   2
ATOM      2  N   LIG    1      -27.634  77.250  12.078  0.00  0.00    -0.293 N 
ATOM      3  C   LIG    1      -26.726  78.122  12.606  0.00  0.00    +0.162 A 
ATOM      4  N   LIG    1      -26.098  79.114  11.958  0.00  0.00    -0.235 NA
ATOM      5  C   LIG    1      -25.271  79.818  12.787  0.00  0.00    +0.121 A 
ATOM      6  C   LIG    1      -25.035  79.620  14.155  0.00  0.00    +0.002 A 
ATOM      7  C   LIG    1      -25.742  78.539  14.733  0.00  0.00    +0.041 A 
ATOM      8  C   LIG    1      -26.605  77.773  13.931  0.00  0.00    +0.110 A 
ATOM      9  N   LIG    1      -27.395  76.694  14.220  0.00  0.00    -0.213 NA
ATOM     10  C   LIG    1      -27.974  76.387  13.102  0.00  0.00    +0.195 A 
BRANCH   6  11
ATOM     11  C   LIG    1      -24.083  80.465  14.946  0.00  0.00    -0.016 A 
ATOM     12  C   LIG    1      -23.308  79.930  15.999  0.00  0.00    +0.008 A 
ATOM     13  C   LIG    1      -22.422  80.712  16.751  0.00  0.00    +0.001 A 
ATOM     14  C   LIG    1      -22.278  82.063  16.476  0.00  0.00    +0.000 A 
ATOM     15  C   LIG    1      -23.016  82.628  15.444  0.00  0.00    +0.001 A 
ATOM     16  C   LIG    1      -23.899  81.839  14.693  0.00  0.00    +0.008 A 
ENDBRANCH   6  11
BRANCH  10  17
ATOM     17  N   LIG    1      -28.861  75.371  12.938  0.00  0.00    -0.329 N 
ATOM     18  H   LIG    1      -28.447  74.524  12.554  0.00  0.00    +0.145 HD
ATOM     19  H   LIG    1      -29.786  75.538  12.597  0.00  0.00    +0.145 HD
ENDBRANCH  10  17
ENDBRANCH   1   2
BRANCH   1  23
ATOM     20  C   LIG    1      -31.753  79.803  10.450  0.00  0.00    +0.162 A 
ATOM     21  C   LIG    1      -31.871  78.457  10.839  0.00  0.00    +0.162 A 
ATOM     22  C   LIG    1      -30.710  77.652  10.927  0.00  0.00    +0.054 A 
ATOM     23  C   LIG    1      -29.434  78.175  10.629  0.00  0.00    -0.024 A 
ATOM     24  C   LIG    1      -29.351  79.530  10.305  0.00  0.00    +0.009 A 
ATOM     25  C   LIG    1      -30.482  80.333  10.257  0.00  0.00    +0.050 A 
BRANCH  21  26
ATOM     26  O   LIG    1      -33.058  77.808  11.103  0.00  0.00    -0.491 OA
ATOM     27  C   LIG    1      -33.673  77.130  10.003  0.00  0.00    +0.277 C 
ENDBRANCH  21  26
BRANCH  20  28
ATOM     28  O   LIG    1      -32.896  80.516  10.247  0.00  0.00    -0.484 OA
BRANCH  28  29
ATOM     29  C   LIG    1      -33.062  81.842  10.724  0.00  0.00    +0.266 C 
BRANCH  29  33
ATOM     30  C   LIG    1      -37.031  83.114   9.958  0.00  0.00    +0.214 A 
ATOM     31  N   LIG    1      -36.460  82.193   9.164  0.00  0.00    -0.221 NA
ATOM     32  C   LIG    1      -35.214  81.812   9.471  0.00  0.00    +0.121 A 
ATOM     33  C   LIG    1      -34.464  82.332  10.516  0.00  0.00    +0.008 A 
ATOM     34  C   LIG    1      -35.080  83.294  11.323  0.00  0.00    +0.013 A 
ATOM     35  C   LIG    1      -36.386  83.700  11.035  0.00  0.00    +0.067 A 
BRANCH  30  37
ATOM     36  C   LIG    1      -38.504  83.681   8.278  0.00  0.00    +0.279 C 
ATOM     37  O   LIG    1      -38.331  83.475   9.685  0.00  0.00    -0.480 OA
ENDBRANCH  30  37
ENDBRANCH  29  33
ENDBRANCH  28  29
ENDBRANCH  20  28
ENDBRANCH   1  23
TORSDOF 9
ENDMDL
