MODEL 1
REMARK VINA RESULT:      -6.3      0.000      0.000
REMARK  Name = pdb/CHEMBL2152289.pdb
REMARK                            x       y       z     vdW  Elec       q    Type
REMARK                         _______ _______ _______ _____ _____    ______ ____
ROOT
ATOM      1  C   LIG    1      -19.661  78.696  33.501  0.00  0.00    +0.001 A 
ATOM      2  C   LIG    1      -20.850  78.229  32.903  0.00  0.00    +0.022 A 
ATOM      3  C   LIG    1      -20.808  77.610  31.634  0.00  0.00    +0.027 A 
ATOM      4  C   LIG    1      -21.754  77.042  30.709  0.00  0.00    +0.009 A 
ATOM      5  C   LIG    1      -21.013  76.600  29.621  0.00  0.00    +0.093 A 
ATOM      6  N   LIG    1      -19.692  76.882  29.846  0.00  0.00    -0.345 N 
ATOM      7  H   LIG    1      -18.918  76.678  29.230  0.00  0.00    +0.167 HD
ATOM      8  C   LIG    1      -19.550  77.497  31.054  0.00  0.00    +0.139 A 
ATOM      9  N   LIG    1      -18.370  77.908  31.550  0.00  0.00    -0.237 NA
ATOM     10  C   LIG    1      -18.487  78.503  32.764  0.00  0.00    +0.121 A 
ENDROOT
BRANCH   1  13
ATOM     11  C   LIG    1      -20.637  80.937  36.443  0.00  0.00    +0.036 A 
ATOM     12  C   LIG    1      -20.660  80.281  35.202  0.00  0.00    +0.032 A 
ATOM     13  C   LIG    1      -19.663  79.356  34.830  0.00  0.00    -0.013 A 
ATOM     14  C   LIG    1      -18.649  79.098  35.771  0.00  0.00    +0.031 A 
ATOM     15  C   LIG    1      -18.628  79.709  37.028  0.00  0.00    +0.027 A 
ATOM     16  C   LIG    1      -19.598  80.666  37.332  0.00  0.00    +0.046 A 
BRANCH  11  19
ATOM     17  C   LIG    1      -23.789  82.813  37.326  0.00  0.00    +0.109 C 
ATOM     18  C   LIG    1      -22.953  81.568  37.174  0.00  0.00    +0.214 C 
ATOM     19  N   LIG    1      -21.680  81.852  36.711  0.00  0.00    -0.286 N 
ATOM     20  H   LIG    1      -21.473  82.828  36.536  0.00  0.00    +0.155 HD
ATOM     21  O   LIG    1      -23.417  80.463  37.441  0.00  0.00    -0.276 OA
ENDBRANCH  11  19
BRANCH  15  22
ATOM     22  N   LIG    1      -17.520  79.539  37.871  0.00  0.00    -0.358 N 
ATOM     23  H   LIG    1      -16.673  79.988  37.539  0.00  0.00    +0.142 HD
ATOM     24  H   LIG    1      -17.362  78.571  38.141  0.00  0.00    +0.142 HD
ENDBRANCH  15  22
ENDBRANCH   1  13
BRANCH   4  25
ATOM     25  C   LIG    1      -23.210  76.895  30.779  0.00  0.00    -0.013 A 
ATOM     26  C   LIG    1      -24.062  77.958  30.473  0.00  0.00    +0.028 A 
ATOM     27  C   LIG    1      -25.434  77.766  30.560  0.00  0.00    +0.111 A 
ATOM     28  N   LIG    1      -26.012  76.605  30.931  0.00  0.00    -0.263 NA
ATOM     29  C   LIG    1      -25.178  75.589  31.229  0.00  0.00    +0.111 A 
ATOM     30  C   LIG    1      -23.795  75.683  31.167  0.00  0.00    +0.028 A 
ENDBRANCH   4  25
TORSDOF 4
ENDMDL
MODEL 2
REMARK VINA RESULT:      -6.3     21.323     23.502
REMARK  Name = pdb/CHEMBL2152289.pdb
REMARK                            x       y       z     vdW  Elec       q    Type
REMARK                         _______ _______ _______ _____ _____    ______ ____
ROOT
ATOM      1  C   LIG    1      -31.779  93.663  19.606  0.00  0.00    +0.001 A 
ATOM      2  C   LIG    1      -30.843  93.960  18.593  0.00  0.00    +0.022 A 
ATOM      3  C   LIG    1      -31.141  93.663  17.245  0.00  0.00    +0.027 A 
ATOM      4  C   LIG    1      -30.480  93.781  15.971  0.00  0.00    +0.009 A 
ATOM      5  C   LIG    1      -31.368  93.281  15.027  0.00  0.00    +0.093 A 
ATOM      6  N   LIG    1      -32.505  92.868  15.670  0.00  0.00    -0.345 N 
ATOM      7  H   LIG    1      -33.325  92.461  15.243  0.00  0.00    +0.167 HD
ATOM      8  C   LIG    1      -32.384  93.086  17.010  0.00  0.00    +0.139 A 
ATOM      9  N   LIG    1      -33.334  92.773  17.908  0.00  0.00    -0.237 NA
ATOM     10  C   LIG    1      -32.976  93.074  19.181  0.00  0.00    +0.121 A 
ENDROOT
BRANCH   1  13
ATOM     11  C   LIG    1      -30.517  95.373  22.786  0.00  0.00    +0.036 A 
ATOM     12  C   LIG    1      -30.815  95.118  21.439  0.00  0.00    +0.032 A 
ATOM     13  C   LIG    1      -31.502  93.955  21.035  0.00  0.00    -0.013 A 
ATOM     14  C   LIG    1      -31.899  93.063  22.049  0.00  0.00    +0.031 A 
ATOM     15  C   LIG    1      -31.648  93.316  23.400  0.00  0.00    +0.027 A 
ATOM     16  C   LIG    1      -30.911  94.448  23.752  0.00  0.00    +0.046 A 
BRANCH  11  19
ATOM     17  C   LIG    1      -28.082  98.150  23.552  0.00  0.00    +0.109 C 
ATOM     18  C   LIG    1      -28.450  96.726  23.222  0.00  0.00    +0.214 C 
ATOM     19  N   LIG    1      -29.817  96.564  23.082  0.00  0.00    -0.286 N 
ATOM     20  H   LIG    1      -30.383  97.393  23.213  0.00  0.00    +0.155 HD
ATOM     21  O   LIG    1      -27.584  95.862  23.116  0.00  0.00    -0.276 OA
ENDBRANCH  11  19
BRANCH  15  22
ATOM     22  N   LIG    1      -31.926  92.331  24.359  0.00  0.00    -0.358 N 
ATOM     23  H   LIG    1      -32.772  91.801  24.178  0.00  0.00    +0.142 HD
ATOM     24  H   LIG    1      -31.885  92.674  25.316  0.00  0.00    +0.142 HD
ENDBRANCH  15  22
ENDBRANCH   1  13
BRANCH   4  25
ATOM     25  C   LIG    1      -29.159  94.301  15.608  0.00  0.00    -0.013 A 
ATOM     26  C   LIG    1      -28.744  95.571  16.011  0.00  0.00    +0.028 A 
ATOM     27  C   LIG    1      -27.483  96.016  15.636  0.00  0.00    +0.111 A 
ATOM     28  N   LIG    1      -26.619  95.296  14.892  0.00  0.00    -0.263 NA
ATOM     29  C   LIG    1      -27.036  94.074  14.504  0.00  0.00    +0.111 A 
ATOM     30  C   LIG    1      -28.273  93.541  14.833  0.00  0.00    +0.028 A 
ENDBRANCH   4  25
TORSDOF 4
ENDMDL
MODEL 3
REMARK VINA RESULT:      -6.1     18.345     21.624
REMARK  Name = pdb/CHEMBL2152289.pdb
REMARK                            x       y       z     vdW  Elec       q    Type
REMARK                         _______ _______ _______ _____ _____    ______ ____
ROOT
ATOM      1  C   LIG    1      -39.046  71.602  24.199  0.00  0.00    +0.001 A 
ATOM      2  C   LIG    1      -39.221  72.996  24.321  0.00  0.00    +0.022 A 
ATOM      3  C   LIG    1      -40.414  73.602  23.869  0.00  0.00    +0.027 A 
ATOM      4  C   LIG    1      -40.953  74.935  23.792  0.00  0.00    +0.009 A 
ATOM      5  C   LIG    1      -42.211  74.811  23.218  0.00  0.00    +0.093 A 
ATOM      6  N   LIG    1      -42.440  73.488  22.945  0.00  0.00    -0.345 N 
ATOM      7  H   LIG    1      -43.270  73.094  22.526  0.00  0.00    +0.167 HD
ATOM      8  C   LIG    1      -41.363  72.744  23.326  0.00  0.00    +0.139 A 
ATOM      9  N   LIG    1      -41.284  71.411  23.175  0.00  0.00    -0.237 NA
ATOM     10  C   LIG    1      -40.108  70.899  23.618  0.00  0.00    +0.121 A 
ENDROOT
BRANCH   1  13
ATOM     11  C   LIG    1      -36.355  68.944  24.771  0.00  0.00    +0.036 A 
ATOM     12  C   LIG    1      -37.507  69.596  24.303  0.00  0.00    +0.032 A 
ATOM     13  C   LIG    1      -37.806  70.927  24.658  0.00  0.00    -0.013 A 
ATOM     14  C   LIG    1      -36.883  71.588  25.489  0.00  0.00    +0.031 A 
ATOM     15  C   LIG    1      -35.710  70.973  25.934  0.00  0.00    +0.027 A 
ATOM     16  C   LIG    1      -35.483  69.634  25.612  0.00  0.00    +0.046 A 
BRANCH  11  19
ATOM     17  C   LIG    1      -35.385  65.648  23.213  0.00  0.00    +0.109 C 
ATOM     18  C   LIG    1      -35.314  67.147  23.364  0.00  0.00    +0.214 C 
ATOM     19  N   LIG    1      -36.156  67.606  24.362  0.00  0.00    -0.286 N 
ATOM     20  H   LIG    1      -36.698  66.905  24.851  0.00  0.00    +0.155 HD
ATOM     21  O   LIG    1      -34.579  67.817  22.645  0.00  0.00    -0.276 OA
ENDBRANCH  11  19
BRANCH  15  22
ATOM     22  N   LIG    1      -34.899  71.616  26.881  0.00  0.00    -0.358 N 
ATOM     23  H   LIG    1      -35.231  72.533  27.159  0.00  0.00    +0.142 HD
ATOM     24  H   LIG    1      -33.913  71.624  26.630  0.00  0.00    +0.142 HD
ENDBRANCH  15  22
ENDBRANCH   1  13
BRANCH   4  25
ATOM     25  C   LIG    1      -40.400  76.230  24.198  0.00  0.00    -0.013 A 
ATOM     26  C   LIG    1      -39.975  76.459  25.509  0.00  0.00    +0.028 A 
ATOM     27  C   LIG    1      -39.463  77.705  25.840  0.00  0.00    +0.111 A 
ATOM     28  N   LIG    1      -39.349  78.731  24.972  0.00  0.00    -0.263 NA
ATOM     29  C   LIG    1      -39.769  78.498  23.713  0.00  0.00    +0.111 A 
ATOM     30  C   LIG    1      -40.290  77.286  23.284  0.00  0.00    +0.028 A 
ENDBRANCH   4  25
TORSDOF 4
ENDMDL
MODEL 4
REMARK VINA RESULT:      -6.1     12.123     16.839
REMARK  Name = pdb/CHEMBL2152289.pdb
REMARK                            x       y       z     vdW  Elec       q    Type
REMARK                         _______ _______ _______ _____ _____    ______ ____
ROOT
ATOM      1  C   LIG    1      -34.055  72.742  28.340  0.00  0.00    +0.001 A 
ATOM      2  C   LIG    1      -33.828  74.114  28.104  0.00  0.00    +0.022 A 
ATOM      3  C   LIG    1      -32.770  74.779  28.763  0.00  0.00    +0.027 A 
ATOM      4  C   LIG    1      -32.239  76.117  28.815  0.00  0.00    +0.009 A 
ATOM      5  C   LIG    1      -31.164  76.072  29.691  0.00  0.00    +0.093 A 
ATOM      6  N   LIG    1      -31.035  74.792  30.163  0.00  0.00    -0.345 N 
ATOM      7  H   LIG    1      -30.342  74.458  30.817  0.00  0.00    +0.167 HD
ATOM      8  C   LIG    1      -32.001  74.000  29.618  0.00  0.00    +0.139 A 
ATOM      9  N   LIG    1      -32.142  72.693  29.899  0.00  0.00    -0.237 NA
ATOM     10  C   LIG    1      -33.183  72.122  29.242  0.00  0.00    +0.121 A 
ENDROOT
BRANCH   1  13
ATOM     11  C   LIG    1      -36.048  69.983  26.594  0.00  0.00    +0.036 A 
ATOM     12  C   LIG    1      -35.020  70.664  27.264  0.00  0.00    +0.032 A 
ATOM     13  C   LIG    1      -35.158  72.007  27.672  0.00  0.00    -0.013 A 
ATOM     14  C   LIG    1      -36.388  72.633  27.398  0.00  0.00    +0.031 A 
ATOM     15  C   LIG    1      -37.441  71.962  26.769  0.00  0.00    +0.027 A 
ATOM     16  C   LIG    1      -37.240  70.654  26.325  0.00  0.00    +0.046 A 
BRANCH  11  19
ATOM     17  C   LIG    1      -35.076  66.683  25.046  0.00  0.00    +0.109 C 
ATOM     18  C   LIG    1      -35.119  68.189  25.107  0.00  0.00    +0.214 C 
ATOM     19  N   LIG    1      -35.802  68.642  26.221  0.00  0.00    -0.286 N 
ATOM     20  H   LIG    1      -36.178  67.932  26.838  0.00  0.00    +0.155 HD
ATOM     21  O   LIG    1      -34.594  68.869  24.229  0.00  0.00    -0.276 OA
ENDBRANCH  11  19
BRANCH  15  22
ATOM     22  N   LIG    1      -38.588  72.669  26.382  0.00  0.00    -0.358 N 
ATOM     23  H   LIG    1      -38.833  72.561  25.403  0.00  0.00    +0.142 HD
ATOM     24  H   LIG    1      -38.579  73.644  26.670  0.00  0.00    +0.142 HD
ENDBRANCH  15  22
ENDBRANCH   1  13
BRANCH   4  25
ATOM     25  C   LIG    1      -32.650  77.350  28.137  0.00  0.00    -0.013 A 
ATOM     26  C   LIG    1      -32.055  77.752  26.940  0.00  0.00    +0.028 A 
ATOM     27  C   LIG    1      -32.480  78.931  26.343  0.00  0.00    +0.111 A 
ATOM     28  N   LIG    1      -33.438  79.733  26.850  0.00  0.00    -0.263 NA
ATOM     29  C   LIG    1      -33.998  79.336  28.010  0.00  0.00    +0.111 A 
ATOM     30  C   LIG    1      -33.646  78.172  28.679  0.00  0.00    +0.028 A 
ENDBRANCH   4  25
TORSDOF 4
ENDMDL
MODEL 5
REMARK VINA RESULT:      -6.1     15.924     20.872
REMARK  Name = pdb/CHEMBL2152289.pdb
REMARK                            x       y       z     vdW  Elec       q    Type
REMARK                         _______ _______ _______ _____ _____    ______ ____
ROOT
ATOM      1  C   LIG    1      -39.873  73.082  24.166  0.00  0.00    +0.001 A 
ATOM      2  C   LIG    1      -38.958  72.013  24.063  0.00  0.00    +0.022 A 
ATOM      3  C   LIG    1      -39.427  70.699  23.838  0.00  0.00    +0.027 A 
ATOM      4  C   LIG    1      -38.852  69.386  23.700  0.00  0.00    +0.009 A 
ATOM      5  C   LIG    1      -39.915  68.519  23.492  0.00  0.00    +0.093 A 
ATOM      6  N   LIG    1      -41.080  69.240  23.508  0.00  0.00    -0.345 N 
ATOM      7  H   LIG    1      -42.014  68.878  23.384  0.00  0.00    +0.167 HD
ATOM      8  C   LIG    1      -40.805  70.557  23.721  0.00  0.00    +0.139 A 
ATOM      9  N   LIG    1      -41.745  71.515  23.801  0.00  0.00    -0.237 NA
ATOM     10  C   LIG    1      -41.225  72.747  24.031  0.00  0.00    +0.121 A 
ENDROOT
BRANCH   1  13
ATOM     11  C   LIG    1      -37.739  76.080  25.208  0.00  0.00    +0.036 A 
ATOM     12  C   LIG    1      -38.149  74.765  24.940  0.00  0.00    +0.032 A 
ATOM     13  C   LIG    1      -39.422  74.475  24.407  0.00  0.00    -0.013 A 
ATOM     14  C   LIG    1      -40.262  75.569  24.131  0.00  0.00    +0.031 A 
ATOM     15  C   LIG    1      -39.860  76.890  24.352  0.00  0.00    +0.027 A 
ATOM     16  C   LIG    1      -38.617  77.130  24.939  0.00  0.00    +0.046 A 
BRANCH  11  19
ATOM     17  C   LIG    1      -34.594  76.423  27.263  0.00  0.00    +0.109 C 
ATOM     18  C   LIG    1      -36.064  76.145  27.075  0.00  0.00    +0.214 C 
ATOM     19  N   LIG    1      -36.446  76.259  25.749  0.00  0.00    -0.286 N 
ATOM     20  H   LIG    1      -35.717  76.508  25.091  0.00  0.00    +0.155 HD
ATOM     21  O   LIG    1      -36.779  75.865  28.032  0.00  0.00    -0.276 OA
ENDBRANCH  11  19
BRANCH  15  22
ATOM     22  N   LIG    1      -40.783  77.935  24.207  0.00  0.00    -0.358 N 
ATOM     23  H   LIG    1      -40.809  78.579  24.991  0.00  0.00    +0.142 HD
ATOM     24  H   LIG    1      -41.713  77.620  23.938  0.00  0.00    +0.142 HD
ENDBRANCH  15  22
ENDBRANCH   1  13
BRANCH   4  25
ATOM     25  C   LIG    1      -37.461  68.927  23.746  0.00  0.00    -0.013 A 
ATOM     26  C   LIG    1      -36.662  69.143  24.871  0.00  0.00    +0.028 A 
ATOM     27  C   LIG    1      -35.350  68.691  24.860  0.00  0.00    +0.111 A 
ATOM     28  N   LIG    1      -34.781  68.051  23.818  0.00  0.00    -0.263 NA
ATOM     29  C   LIG    1      -35.561  67.856  22.736  0.00  0.00    +0.111 A 
ATOM     30  C   LIG    1      -36.884  68.265  22.655  0.00  0.00    +0.028 A 
ENDBRANCH   4  25
TORSDOF 4
ENDMDL
MODEL 6
REMARK VINA RESULT:      -6.1      1.339      2.711
REMARK  Name = pdb/CHEMBL2152289.pdb
REMARK                            x       y       z     vdW  Elec       q    Type
REMARK                         _______ _______ _______ _____ _____    ______ ____
ROOT
ATOM      1  C   LIG    1      -19.856  78.983  33.643  0.00  0.00    +0.001 A 
ATOM      2  C   LIG    1      -20.996  78.425  33.029  0.00  0.00    +0.022 A 
ATOM      3  C   LIG    1      -20.865  77.682  31.835  0.00  0.00    +0.027 A 
ATOM      4  C   LIG    1      -21.741  76.997  30.920  0.00  0.00    +0.009 A 
ATOM      5  C   LIG    1      -20.926  76.468  29.928  0.00  0.00    +0.093 A 
ATOM      6  N   LIG    1      -19.627  76.808  30.198  0.00  0.00    -0.345 N 
ATOM      7  H   LIG    1      -18.814  76.565  29.652  0.00  0.00    +0.167 HD
ATOM      8  C   LIG    1      -19.572  77.546  31.343  0.00  0.00    +0.139 A 
ATOM      9  N   LIG    1      -18.433  78.038  31.861  0.00  0.00    -0.237 NA
ATOM     10  C   LIG    1      -18.636  78.750  32.998  0.00  0.00    +0.121 A 
ENDROOT
BRANCH   1  13
ATOM     11  C   LIG    1      -19.295  80.193  37.228  0.00  0.00    +0.036 A 
ATOM     12  C   LIG    1      -19.173  79.471  36.030  0.00  0.00    +0.032 A 
ATOM     13  C   LIG    1      -19.952  79.775  34.895  0.00  0.00    -0.013 A 
ATOM     14  C   LIG    1      -20.849  80.854  35.006  0.00  0.00    +0.031 A 
ATOM     15  C   LIG    1      -20.958  81.612  36.175  0.00  0.00    +0.027 A 
ATOM     16  C   LIG    1      -20.214  81.239  37.296  0.00  0.00    +0.046 A 
BRANCH  11  19
ATOM     17  C   LIG    1      -17.620  78.712  40.267  0.00  0.00    +0.109 C 
ATOM     18  C   LIG    1      -18.739  78.837  39.264  0.00  0.00    +0.214 C 
ATOM     19  N   LIG    1      -18.472  79.801  38.308  0.00  0.00    -0.286 N 
ATOM     20  H   LIG    1      -17.589  80.289  38.396  0.00  0.00    +0.155 HD
ATOM     21  O   LIG    1      -19.743  78.137  39.354  0.00  0.00    -0.276 OA
ENDBRANCH  11  19
BRANCH  15  22
ATOM     22  N   LIG    1      -21.969  82.577  36.291  0.00  0.00    -0.358 N 
ATOM     23  H   LIG    1      -21.632  83.507  36.518  0.00  0.00    +0.142 HD
ATOM     24  H   LIG    1      -22.736  82.289  36.893  0.00  0.00    +0.142 HD
ENDBRANCH  15  22
ENDBRANCH   1  13
BRANCH   4  25
ATOM     25  C   LIG    1      -23.195  76.817  30.920  0.00  0.00    -0.013 A 
ATOM     26  C   LIG    1      -24.055  77.862  30.575  0.00  0.00    +0.028 A 
ATOM     27  C   LIG    1      -25.425  77.638  30.597  0.00  0.00    +0.111 A 
ATOM     28  N   LIG    1      -25.993  76.464  30.939  0.00  0.00    -0.263 NA
ATOM     29  C   LIG    1      -25.152  75.467  31.277  0.00  0.00    +0.111 A 
ATOM     30  C   LIG    1      -23.770  75.592  31.280  0.00  0.00    +0.028 A 
ENDBRANCH   4  25
TORSDOF 4
ENDMDL
MODEL 7
REMARK VINA RESULT:      -6.0      6.170     10.339
REMARK  Name = pdb/CHEMBL2152289.pdb
REMARK                            x       y       z     vdW  Elec       q    Type
REMARK                         _______ _______ _______ _____ _____    ______ ____
ROOT
ATOM      1  C   LIG    1      -29.882  75.427  31.439  0.00  0.00    +0.001 A 
ATOM      2  C   LIG    1      -30.635  76.170  30.505  0.00  0.00    +0.022 A 
ATOM      3  C   LIG    1      -31.660  75.543  29.764  0.00  0.00    +0.027 A 
ATOM      4  C   LIG    1      -32.603  75.923  28.743  0.00  0.00    +0.009 A 
ATOM      5  C   LIG    1      -33.337  74.782  28.451  0.00  0.00    +0.093 A 
ATOM      6  N   LIG    1      -32.879  73.753  29.232  0.00  0.00    -0.345 N 
ATOM      7  H   LIG    1      -33.221  72.803  29.239  0.00  0.00    +0.167 HD
ATOM      8  C   LIG    1      -31.862  74.193  30.026  0.00  0.00    +0.139 A 
ATOM      9  N   LIG    1      -31.199  73.411  30.895  0.00  0.00    -0.237 NA
ATOM     10  C   LIG    1      -30.222  74.074  31.562  0.00  0.00    +0.121 A 
ENDROOT
BRANCH   1  13
ATOM     11  C   LIG    1      -26.453  76.761  32.482  0.00  0.00    +0.036 A 
ATOM     12  C   LIG    1      -27.493  76.214  31.715  0.00  0.00    +0.032 A 
ATOM     13  C   LIG    1      -28.793  76.046  32.234  0.00  0.00    -0.013 A 
ATOM     14  C   LIG    1      -29.012  76.473  33.557  0.00  0.00    +0.031 A 
ATOM     15  C   LIG    1      -28.001  77.058  34.326  0.00  0.00    +0.027 A 
ATOM     16  C   LIG    1      -26.713  77.148  33.796  0.00  0.00    +0.046 A 
BRANCH  11  19
ATOM     17  C   LIG    1      -23.377  77.555  30.447  0.00  0.00    +0.109 C 
ATOM     18  C   LIG    1      -24.820  77.736  30.845  0.00  0.00    +0.214 C 
ATOM     19  N   LIG    1      -25.185  76.877  31.867  0.00  0.00    -0.286 N 
ATOM     20  H   LIG    1      -24.465  76.253  32.209  0.00  0.00    +0.155 HD
ATOM     21  O   LIG    1      -25.529  78.563  30.279  0.00  0.00    -0.276 OA
ENDBRANCH  11  19
BRANCH  15  22
ATOM     22  N   LIG    1      -28.224  77.327  35.684  0.00  0.00    -0.358 N 
ATOM     23  H   LIG    1      -27.586  78.008  36.083  0.00  0.00    +0.142 HD
ATOM     24  H   LIG    1      -28.298  76.489  36.256  0.00  0.00    +0.142 HD
ENDBRANCH  15  22
ENDBRANCH   1  13
BRANCH   4  25
ATOM     25  C   LIG    1      -32.842  77.203  28.072  0.00  0.00    -0.013 A 
ATOM     26  C   LIG    1      -32.181  77.537  26.888  0.00  0.00    +0.028 A 
ATOM     27  C   LIG    1      -32.442  78.765  26.296  0.00  0.00    +0.111 A 
ATOM     28  N   LIG    1      -33.299  79.677  26.796  0.00  0.00    -0.263 NA
ATOM     29  C   LIG    1      -33.925  79.345  27.943  0.00  0.00    +0.111 A 
ATOM     30  C   LIG    1      -33.735  78.141  28.605  0.00  0.00    +0.028 A 
ENDBRANCH   4  25
TORSDOF 4
ENDMDL
MODEL 8
REMARK VINA RESULT:      -5.9      2.577      5.545
REMARK  Name = pdb/CHEMBL2152289.pdb
REMARK                            x       y       z     vdW  Elec       q    Type
REMARK                         _______ _______ _______ _____ _____    ______ ____
ROOT
ATOM      1  C   LIG    1      -24.031  77.943  32.570  0.00  0.00    +0.001 A 
ATOM      2  C   LIG    1      -22.624  77.902  32.490  0.00  0.00    +0.022 A 
ATOM      3  C   LIG    1      -21.994  77.503  31.290  0.00  0.00    +0.027 A 
ATOM      4  C   LIG    1      -20.645  77.312  30.823  0.00  0.00    +0.009 A 
ATOM      5  C   LIG    1      -20.749  76.894  29.503  0.00  0.00    +0.093 A 
ATOM      6  N   LIG    1      -22.076  76.819  29.169  0.00  0.00    -0.345 N 
ATOM      7  H   LIG    1      -22.458  76.543  28.276  0.00  0.00    +0.167 HD
ATOM      8  C   LIG    1      -22.842  77.177  30.238  0.00  0.00    +0.139 A 
ATOM      9  N   LIG    1      -24.186  77.191  30.223  0.00  0.00    -0.237 NA
ATOM     10  C   LIG    1      -24.722  77.571  31.410  0.00  0.00    +0.121 A 
ENDROOT
BRANCH   1  13
ATOM     11  C   LIG    1      -24.890  79.754  35.827  0.00  0.00    +0.036 A 
ATOM     12  C   LIG    1      -24.252  79.396  34.630  0.00  0.00    +0.032 A 
ATOM     13  C   LIG    1      -24.731  78.352  33.813  0.00  0.00    -0.013 A 
ATOM     14  C   LIG    1      -25.899  77.693  34.240  0.00  0.00    +0.031 A 
ATOM     15  C   LIG    1      -26.575  78.059  35.407  0.00  0.00    +0.027 A 
ATOM     16  C   LIG    1      -26.032  79.056  36.220  0.00  0.00    +0.046 A 
BRANCH  11  19
ATOM     17  C   LIG    1      -23.963  82.908  37.679  0.00  0.00    +0.109 C 
ATOM     18  C   LIG    1      -24.887  82.039  36.862  0.00  0.00    +0.214 C 
ATOM     19  N   LIG    1      -24.321  80.809  36.575  0.00  0.00    -0.286 N 
ATOM     20  H   LIG    1      -23.389  80.648  36.935  0.00  0.00    +0.155 HD
ATOM     21  O   LIG    1      -25.993  82.447  36.521  0.00  0.00    -0.276 OA
ENDBRANCH  11  19
BRANCH  15  22
ATOM     22  N   LIG    1      -27.643  77.278  35.871  0.00  0.00    -0.358 N 
ATOM     23  H   LIG    1      -28.471  77.810  36.119  0.00  0.00    +0.142 HD
ATOM     24  H   LIG    1      -27.377  76.620  36.600  0.00  0.00    +0.142 HD
ENDBRANCH  15  22
ENDBRANCH   1  13
BRANCH   4  25
ATOM     25  C   LIG    1      -19.353  77.488  31.491  0.00  0.00    -0.013 A 
ATOM     26  C   LIG    1      -18.315  76.571  31.318  0.00  0.00    +0.028 A 
ATOM     27  C   LIG    1      -17.113  76.784  31.979  0.00  0.00    +0.111 A 
ATOM     28  N   LIG    1      -16.876  77.831  32.795  0.00  0.00    -0.263 NA
ATOM     29  C   LIG    1      -17.889  78.705  32.958  0.00  0.00    +0.111 A 
ATOM     30  C   LIG    1      -19.123  78.581  32.337  0.00  0.00    +0.028 A 
ENDBRANCH   4  25
TORSDOF 4
ENDMDL
MODEL 9
REMARK VINA RESULT:      -5.9     17.829     21.813
REMARK  Name = pdb/CHEMBL2152289.pdb
REMARK                            x       y       z     vdW  Elec       q    Type
REMARK                         _______ _______ _______ _____ _____    ______ ____
ROOT
ATOM      1  C   LIG    1      -39.344  70.362  23.473  0.00  0.00    +0.001 A 
ATOM      2  C   LIG    1      -39.179  71.730  23.776  0.00  0.00    +0.022 A 
ATOM      3  C   LIG    1      -40.300  72.588  23.810  0.00  0.00    +0.027 A 
ATOM      4  C   LIG    1      -40.547  73.987  24.044  0.00  0.00    +0.009 A 
ATOM      5  C   LIG    1      -41.918  74.164  23.918  0.00  0.00    +0.093 A 
ATOM      6  N   LIG    1      -42.491  72.957  23.615  0.00  0.00    -0.345 N 
ATOM      7  H   LIG    1      -43.472  72.776  23.464  0.00  0.00    +0.167 HD
ATOM      8  C   LIG    1      -41.528  71.995  23.540  0.00  0.00    +0.139 A 
ATOM      9  N   LIG    1      -41.778  70.707  23.247  0.00  0.00    -0.237 NA
ATOM     10  C   LIG    1      -40.656  69.945  23.219  0.00  0.00    +0.121 A 
ENDROOT
BRANCH   1  13
ATOM     11  C   LIG    1      -36.183  68.438  24.438  0.00  0.00    +0.036 A 
ATOM     12  C   LIG    1      -37.297  69.290  24.502  0.00  0.00    +0.032 A 
ATOM     13  C   LIG    1      -38.192  69.428  23.422  0.00  0.00    -0.013 A 
ATOM     14  C   LIG    1      -37.933  68.654  22.276  0.00  0.00    +0.031 A 
ATOM     15  C   LIG    1      -36.853  67.770  22.204  0.00  0.00    +0.027 A 
ATOM     16  C   LIG    1      -35.956  67.709  23.271  0.00  0.00    +0.046 A 
BRANCH  11  19
ATOM     17  C   LIG    1      -33.594  68.797  27.159  0.00  0.00    +0.109 C 
ATOM     18  C   LIG    1      -34.242  69.170  25.849  0.00  0.00    +0.214 C 
ATOM     19  N   LIG    1      -35.344  68.380  25.574  0.00  0.00    -0.286 N 
ATOM     20  H   LIG    1      -35.572  67.672  26.261  0.00  0.00    +0.155 HD
ATOM     21  O   LIG    1      -33.784  70.075  25.157  0.00  0.00    -0.276 OA
ENDBRANCH  11  19
BRANCH  15  22
ATOM     22  N   LIG    1      -36.548  67.136  20.991  0.00  0.00    -0.358 N 
ATOM     23  H   LIG    1      -37.058  66.274  20.832  0.00  0.00    +0.142 HD
ATOM     24  H   LIG    1      -35.549  67.026  20.832  0.00  0.00    +0.142 HD
ENDBRANCH  15  22
ENDBRANCH   1  13
BRANCH   4  25
ATOM     25  C   LIG    1      -39.639  75.093  24.360  0.00  0.00    -0.013 A 
ATOM     26  C   LIG    1      -39.958  76.412  24.031  0.00  0.00    +0.028 A 
ATOM     27  C   LIG    1      -39.059  77.420  24.350  0.00  0.00    +0.111 A 
ATOM     28  N   LIG    1      -37.875  77.211  24.960  0.00  0.00    -0.263 NA
ATOM     29  C   LIG    1      -37.576  75.932  25.266  0.00  0.00    +0.111 A 
ATOM     30  C   LIG    1      -38.411  74.858  24.993  0.00  0.00    +0.028 A 
ENDBRANCH   4  25
TORSDOF 4
ENDMDL
