MODEL 1
REMARK VINA RESULT:      -5.9      0.000      0.000
REMARK  Name = pdb/CHEMBL3671129.pdb
REMARK                            x       y       z     vdW  Elec       q    Type
REMARK                         _______ _______ _______ _____ _____    ______ ____
ROOT
ATOM      1  C   LIG    1      -20.684  77.099  30.706  0.00  0.00    +0.100 A 
ATOM      2  C   LIG    1      -21.908  77.391  31.291  0.00  0.00    +0.170 A 
ATOM      3  N   LIG    1      -22.296  77.737  32.567  0.00  0.00    -0.212 NA
ATOM      4  C   LIG    1      -23.579  77.960  32.788  0.00  0.00    +0.126 A 
ATOM      5  C   LIG    1      -24.598  77.931  31.673  0.00  0.00    +0.063 A 
ATOM      6  C   LIG    1      -24.179  77.554  30.466  0.00  0.00    +0.118 A 
ATOM      7  N   LIG    1      -22.847  77.263  30.256  0.00  0.00    -0.221 N 
ATOM      8  N   LIG    1      -22.293  76.877  29.088  0.00  0.00    -0.173 NA
ATOM      9  C   LIG    1      -20.997  76.789  29.364  0.00  0.00    +0.150 A 
ENDROOT
BRANCH   4  10
ATOM     10  N   LIG    1      -24.047  78.235  34.069  0.00  0.00    -0.308 N 
ATOM     11  C   LIG    1      -23.207  78.074  35.269  0.00  0.00    +0.108 C 
ATOM     12  C   LIG    1      -24.188  77.517  36.318  0.00  0.00    +0.029 C 
ATOM     13  C   LIG    1      -25.536  78.090  35.924  0.00  0.00    +0.021 C 
ATOM     14  C   LIG    1      -25.469  78.111  34.410  0.00  0.00    +0.107 C 
BRANCH  11  15
ATOM     15  C   LIG    1      -22.543  79.377  35.684  0.00  0.00    +0.011 A 
ATOM     16  C   LIG    1      -21.251  79.359  36.234  0.00  0.00    +0.129 A 
ATOM     17  F   LIG    1      -20.629  78.190  36.447  0.00  0.00    -0.205 F 
ATOM     18  C   LIG    1      -20.579  80.533  36.586  0.00  0.00    +0.041 A 
ATOM     19  C   LIG    1      -21.204  81.764  36.410  0.00  0.00    +0.041 A 
ATOM     20  C   LIG    1      -22.486  81.802  35.879  0.00  0.00    +0.124 A 
ATOM     21  F   LIG    1      -23.104  82.981  35.730  0.00  0.00    -0.205 F 
ATOM     22  C   LIG    1      -23.148  80.633  35.505  0.00  0.00    +0.046 A 
ENDBRANCH  11  15
ENDBRANCH   4  10
BRANCH   1  25
ATOM     23  N   LIG    1      -19.165  77.636  32.479  0.00  0.00    -0.306 N 
ATOM     24  H   LIG    1      -20.017  77.760  33.020  0.00  0.00    +0.150 HD
ATOM     25  C   LIG    1      -19.327  77.094  31.221  0.00  0.00    +0.250 C 
ATOM     26  O   LIG    1      -18.404  76.726  30.514  0.00  0.00    -0.270 OA
BRANCH  23  28
ATOM     27  C   LIG    1      -18.125  78.672  34.424  0.00  0.00    +0.031 C 
ATOM     28  C   LIG    1      -17.866  77.862  33.142  0.00  0.00    +0.026 C 
ATOM     29  C   LIG    1      -17.219  76.521  33.516  0.00  0.00    +0.031 C 
ATOM     30  C   LIG    1      -16.875  78.675  32.280  0.00  0.00    +0.031 C 
ENDBRANCH  23  28
ENDBRANCH   1  25
TORSDOF 4
ENDMDL
MODEL 2
REMARK VINA RESULT:      -5.7     16.888     20.073
REMARK  Name = pdb/CHEMBL3671129.pdb
REMARK                            x       y       z     vdW  Elec       q    Type
REMARK                         _______ _______ _______ _____ _____    ______ ____
ROOT
ATOM      1  C   LIG    1      -37.609  76.193  25.713  0.00  0.00    +0.100 A 
ATOM      2  C   LIG    1      -38.070  74.953  25.292  0.00  0.00    +0.170 A 
ATOM      3  N   LIG    1      -37.619  73.661  25.461  0.00  0.00    -0.212 NA
ATOM      4  C   LIG    1      -38.320  72.683  24.918  0.00  0.00    +0.126 A 
ATOM      5  C   LIG    1      -39.628  72.936  24.206  0.00  0.00    +0.063 A 
ATOM      6  C   LIG    1      -40.000  74.204  24.037  0.00  0.00    +0.118 A 
ATOM      7  N   LIG    1      -39.231  75.226  24.554  0.00  0.00    -0.221 N 
ATOM      8  N   LIG    1      -39.496  76.545  24.459  0.00  0.00    -0.173 NA
ATOM      9  C   LIG    1      -38.525  77.116  25.162  0.00  0.00    +0.150 A 
ENDROOT
BRANCH   4  10
ATOM     10  N   LIG    1      -37.878  71.364  24.983  0.00  0.00    -0.308 N 
ATOM     11  C   LIG    1      -38.796  70.217  24.870  0.00  0.00    +0.108 C 
ATOM     12  C   LIG    1      -38.228  69.206  25.884  0.00  0.00    +0.029 C 
ATOM     13  C   LIG    1      -36.738  69.490  25.915  0.00  0.00    +0.021 C 
ATOM     14  C   LIG    1      -36.674  70.993  25.736  0.00  0.00    +0.107 C 
BRANCH  11  15
ATOM     15  C   LIG    1      -38.873  69.681  23.449  0.00  0.00    +0.011 A 
ATOM     16  C   LIG    1      -40.118  69.583  22.806  0.00  0.00    +0.129 A 
ATOM     17  F   LIG    1      -41.240  69.904  23.465  0.00  0.00    -0.205 F 
ATOM     18  C   LIG    1      -40.236  69.143  21.485  0.00  0.00    +0.041 A 
ATOM     19  C   LIG    1      -39.096  68.768  20.779  0.00  0.00    +0.041 A 
ATOM     20  C   LIG    1      -37.858  68.848  21.401  0.00  0.00    +0.124 A 
ATOM     21  F   LIG    1      -36.760  68.465  20.736  0.00  0.00    -0.205 F 
ATOM     22  C   LIG    1      -37.736  69.309  22.711  0.00  0.00    +0.046 A 
ENDBRANCH  11  15
ENDBRANCH   4  10
BRANCH   1  25
ATOM     23  N   LIG    1      -35.633  75.577  26.919  0.00  0.00    -0.306 N 
ATOM     24  H   LIG    1      -35.722  74.707  26.400  0.00  0.00    +0.150 HD
ATOM     25  C   LIG    1      -36.486  76.593  26.540  0.00  0.00    +0.250 C 
ATOM     26  O   LIG    1      -36.397  77.741  26.940  0.00  0.00    -0.270 OA
BRANCH  23  28
ATOM     27  C   LIG    1      -33.875  74.337  28.064  0.00  0.00    +0.031 C 
ATOM     28  C   LIG    1      -34.511  75.724  27.867  0.00  0.00    +0.026 C 
ATOM     29  C   LIG    1      -33.457  76.685  27.298  0.00  0.00    +0.031 C 
ATOM     30  C   LIG    1      -34.950  76.227  29.259  0.00  0.00    +0.031 C 
ENDBRANCH  23  28
ENDBRANCH   1  25
TORSDOF 4
ENDMDL
MODEL 3
REMARK VINA RESULT:      -5.6     15.673     18.657
REMARK  Name = pdb/CHEMBL3671129.pdb
REMARK                            x       y       z     vdW  Elec       q    Type
REMARK                         _______ _______ _______ _____ _____    ______ ____
ROOT
ATOM      1  C   LIG    1      -37.509  76.346  25.942  0.00  0.00    +0.100 A 
ATOM      2  C   LIG    1      -38.181  75.272  25.376  0.00  0.00    +0.170 A 
ATOM      3  N   LIG    1      -37.957  73.911  25.355  0.00  0.00    -0.212 NA
ATOM      4  C   LIG    1      -38.822  73.150  24.711  0.00  0.00    +0.126 A 
ATOM      5  C   LIG    1      -40.074  73.717  24.083  0.00  0.00    +0.063 A 
ATOM      6  C   LIG    1      -40.224  75.040  24.097  0.00  0.00    +0.118 A 
ATOM      7  N   LIG    1      -39.285  75.836  24.719  0.00  0.00    -0.221 N 
ATOM      8  N   LIG    1      -39.319  77.181  24.810  0.00  0.00    -0.173 NA
ATOM      9  C   LIG    1      -38.257  77.478  25.550  0.00  0.00    +0.150 A 
ENDROOT
BRANCH   4  10
ATOM     10  N   LIG    1      -38.613  71.779  24.584  0.00  0.00    -0.308 N 
ATOM     11  C   LIG    1      -37.270  71.176  24.645  0.00  0.00    +0.108 C 
ATOM     12  C   LIG    1      -37.333  70.060  23.584  0.00  0.00    +0.029 C 
ATOM     13  C   LIG    1      -38.788  69.632  23.566  0.00  0.00    +0.021 C 
ATOM     14  C   LIG    1      -39.529  70.930  23.814  0.00  0.00    +0.107 C 
BRANCH  11  15
ATOM     15  C   LIG    1      -36.926  70.677  26.039  0.00  0.00    +0.011 A 
ATOM     16  C   LIG    1      -35.583  70.489  26.403  0.00  0.00    +0.129 A 
ATOM     17  F   LIG    1      -34.610  70.691  25.503  0.00  0.00    -0.205 F 
ATOM     18  C   LIG    1      -35.214  70.078  27.686  0.00  0.00    +0.041 A 
ATOM     19  C   LIG    1      -36.197  69.826  28.639  0.00  0.00    +0.041 A 
ATOM     20  C   LIG    1      -37.531  69.995  28.295  0.00  0.00    +0.124 A 
ATOM     21  F   LIG    1      -38.484  69.730  29.198  0.00  0.00    -0.205 F 
ATOM     22  C   LIG    1      -37.900  70.427  27.022  0.00  0.00    +0.046 A 
ENDBRANCH  11  15
ENDBRANCH   4  10
BRANCH   1  25
ATOM     23  N   LIG    1      -35.761  75.227  27.138  0.00  0.00    -0.306 N 
ATOM     24  H   LIG    1      -36.064  74.418  26.602  0.00  0.00    +0.150 HD
ATOM     25  C   LIG    1      -36.326  76.432  26.778  0.00  0.00    +0.250 C 
ATOM     26  O   LIG    1      -35.951  77.513  27.200  0.00  0.00    -0.270 OA
BRANCH  23  28
ATOM     27  C   LIG    1      -34.229  73.585  28.085  0.00  0.00    +0.031 C 
ATOM     28  C   LIG    1      -34.643  75.067  28.088  0.00  0.00    +0.026 C 
ATOM     29  C   LIG    1      -33.447  75.925  27.653  0.00  0.00    +0.031 C 
ATOM     30  C   LIG    1      -35.020  75.432  29.541  0.00  0.00    +0.031 C 
ENDBRANCH  23  28
ENDBRANCH   1  25
TORSDOF 4
ENDMDL
MODEL 4
REMARK VINA RESULT:      -5.4      1.636      5.039
REMARK  Name = pdb/CHEMBL3671129.pdb
REMARK                            x       y       z     vdW  Elec       q    Type
REMARK                         _______ _______ _______ _____ _____    ______ ____
ROOT
ATOM      1  C   LIG    1      -19.546  77.178  30.948  0.00  0.00    +0.100 A 
ATOM      2  C   LIG    1      -19.107  77.717  32.149  0.00  0.00    +0.170 A 
ATOM      3  N   LIG    1      -19.750  78.230  33.256  0.00  0.00    -0.212 NA
ATOM      4  C   LIG    1      -19.010  78.666  34.258  0.00  0.00    +0.126 A 
ATOM      5  C   LIG    1      -17.505  78.536  34.256  0.00  0.00    +0.063 A 
ATOM      6  C   LIG    1      -16.929  78.069  33.149  0.00  0.00    +0.118 A 
ATOM      7  N   LIG    1      -17.706  77.672  32.080  0.00  0.00    -0.221 N 
ATOM      8  N   LIG    1      -17.253  77.180  30.909  0.00  0.00    -0.173 NA
ATOM      9  C   LIG    1      -18.361  76.879  30.240  0.00  0.00    +0.150 A 
ENDROOT
BRANCH   4  10
ATOM     10  N   LIG    1      -19.593  79.267  35.370  0.00  0.00    -0.308 N 
ATOM     11  C   LIG    1      -20.729  80.199  35.259  0.00  0.00    +0.108 C 
ATOM     12  C   LIG    1      -20.422  81.264  36.329  0.00  0.00    +0.029 C 
ATOM     13  C   LIG    1      -19.643  80.520  37.396  0.00  0.00    +0.021 C 
ATOM     14  C   LIG    1      -18.826  79.527  36.594  0.00  0.00    +0.107 C 
BRANCH  11  15
ATOM     15  C   LIG    1      -22.066  79.502  35.456  0.00  0.00    +0.011 A 
ATOM     16  C   LIG    1      -23.258  80.170  35.133  0.00  0.00    +0.129 A 
ATOM     17  F   LIG    1      -23.219  81.442  34.709  0.00  0.00    -0.205 F 
ATOM     18  C   LIG    1      -24.507  79.556  35.251  0.00  0.00    +0.041 A 
ATOM     19  C   LIG    1      -24.590  78.248  35.720  0.00  0.00    +0.041 A 
ATOM     20  C   LIG    1      -23.424  77.574  36.055  0.00  0.00    +0.124 A 
ATOM     21  F   LIG    1      -23.498  76.324  36.530  0.00  0.00    -0.205 F 
ATOM     22  C   LIG    1      -22.175  78.177  35.915  0.00  0.00    +0.046 A 
ENDBRANCH  11  15
ENDBRANCH   4  10
BRANCH   1  25
ATOM     23  N   LIG    1      -21.905  77.007  31.327  0.00  0.00    -0.306 N 
ATOM     24  H   LIG    1      -21.687  77.488  32.196  0.00  0.00    +0.150 HD
ATOM     25  C   LIG    1      -20.870  76.907  30.421  0.00  0.00    +0.250 C 
ATOM     26  O   LIG    1      -21.004  76.514  29.274  0.00  0.00    -0.270 OA
BRANCH  23  28
ATOM     27  C   LIG    1      -24.124  76.909  32.329  0.00  0.00    +0.031 C 
ATOM     28  C   LIG    1      -23.309  76.644  31.052  0.00  0.00    +0.026 C 
ATOM     29  C   LIG    1      -23.867  77.505  29.910  0.00  0.00    +0.031 C 
ATOM     30  C   LIG    1      -23.494  75.153  30.693  0.00  0.00    +0.031 C 
ENDBRANCH  23  28
ENDBRANCH   1  25
TORSDOF 4
ENDMDL
MODEL 5
REMARK VINA RESULT:      -5.4      3.162      5.840
REMARK  Name = pdb/CHEMBL3671129.pdb
REMARK                            x       y       z     vdW  Elec       q    Type
REMARK                         _______ _______ _______ _____ _____    ______ ____
ROOT
ATOM      1  C   LIG    1      -21.450  78.951  34.011  0.00  0.00    +0.100 A 
ATOM      2  C   LIG    1      -22.814  78.785  34.207  0.00  0.00    +0.170 A 
ATOM      3  N   LIG    1      -23.744  77.888  33.726  0.00  0.00    -0.212 NA
ATOM      4  C   LIG    1      -24.993  78.011  34.132  0.00  0.00    +0.126 A 
ATOM      5  C   LIG    1      -25.401  79.037  35.163  0.00  0.00    +0.063 A 
ATOM      6  C   LIG    1      -24.474  79.904  35.569  0.00  0.00    +0.118 A 
ATOM      7  N   LIG    1      -23.183  79.808  35.093  0.00  0.00    -0.221 N 
ATOM      8  N   LIG    1      -22.153  80.614  35.425  0.00  0.00    -0.173 NA
ATOM      9  C   LIG    1      -21.117  80.089  34.779  0.00  0.00    +0.150 A 
ENDROOT
BRANCH   4  10
ATOM     10  N   LIG    1      -25.996  77.189  33.624  0.00  0.00    -0.308 N 
ATOM     11  C   LIG    1      -26.196  76.992  32.178  0.00  0.00    +0.108 C 
ATOM     12  C   LIG    1      -27.730  76.941  32.035  0.00  0.00    +0.029 C 
ATOM     13  C   LIG    1      -28.218  76.373  33.354  0.00  0.00    +0.021 C 
ATOM     14  C   LIG    1      -27.245  76.957  34.358  0.00  0.00    +0.107 C 
BRANCH  11  15
ATOM     15  C   LIG    1      -25.493  75.745  31.665  0.00  0.00    +0.011 A 
ATOM     16  C   LIG    1      -24.249  75.857  31.025  0.00  0.00    +0.129 A 
ATOM     17  F   LIG    1      -23.711  77.067  30.811  0.00  0.00    -0.205 F 
ATOM     18  C   LIG    1      -23.541  74.738  30.580  0.00  0.00    +0.041 A 
ATOM     19  C   LIG    1      -24.081  73.466  30.753  0.00  0.00    +0.041 A 
ATOM     20  C   LIG    1      -25.316  73.336  31.374  0.00  0.00    +0.124 A 
ATOM     21  F   LIG    1      -25.854  72.118  31.522  0.00  0.00    -0.205 F 
ATOM     22  C   LIG    1      -26.012  74.450  31.839  0.00  0.00    +0.046 A 
ENDBRANCH  11  15
ENDBRANCH   4  10
BRANCH   1  25
ATOM     23  N   LIG    1      -20.874  77.803  31.989  0.00  0.00    -0.306 N 
ATOM     24  H   LIG    1      -21.701  78.265  31.622  0.00  0.00    +0.150 HD
ATOM     25  C   LIG    1      -20.470  78.202  33.246  0.00  0.00    +0.250 C 
ATOM     26  O   LIG    1      -19.413  77.875  33.758  0.00  0.00    -0.270 OA
BRANCH  23  28
ATOM     27  C   LIG    1      -20.253  75.477  31.611  0.00  0.00    +0.031 C 
ATOM     28  C   LIG    1      -20.102  76.918  31.094  0.00  0.00    +0.026 C 
ATOM     29  C   LIG    1      -20.650  77.000  29.663  0.00  0.00    +0.031 C 
ATOM     30  C   LIG    1      -18.591  77.240  31.073  0.00  0.00    +0.031 C 
ENDBRANCH  23  28
ENDBRANCH   1  25
TORSDOF 4
ENDMDL
MODEL 6
REMARK VINA RESULT:      -5.3     15.729     18.019
REMARK  Name = pdb/CHEMBL3671129.pdb
REMARK                            x       y       z     vdW  Elec       q    Type
REMARK                         _______ _______ _______ _____ _____    ______ ____
ROOT
ATOM      1  C   LIG    1      -18.803  73.900  18.396  0.00  0.00    +0.100 A 
ATOM      2  C   LIG    1      -18.569  75.041  17.642  0.00  0.00    +0.170 A 
ATOM      3  N   LIG    1      -19.222  75.633  16.581  0.00  0.00    -0.212 NA
ATOM      4  C   LIG    1      -18.721  76.750  16.089  0.00  0.00    +0.126 A 
ATOM      5  C   LIG    1      -17.522  77.430  16.708  0.00  0.00    +0.063 A 
ATOM      6  C   LIG    1      -16.905  76.800  17.707  0.00  0.00    +0.118 A 
ATOM      7  N   LIG    1      -17.399  75.600  18.176  0.00  0.00    -0.221 N 
ATOM      8  N   LIG    1      -16.876  74.866  19.180  0.00  0.00    -0.173 NA
ATOM      9  C   LIG    1      -17.727  73.854  19.311  0.00  0.00    +0.150 A 
ENDROOT
BRANCH   4  10
ATOM     10  N   LIG    1      -19.285  77.355  14.968  0.00  0.00    -0.308 N 
ATOM     11  C   LIG    1      -20.733  77.327  14.701  0.00  0.00    +0.108 C 
ATOM     12  C   LIG    1      -20.809  77.153  13.172  0.00  0.00    +0.029 C 
ATOM     13  C   LIG    1      -19.555  77.824  12.648  0.00  0.00    +0.021 C 
ATOM     14  C   LIG    1      -18.530  77.517  13.721  0.00  0.00    +0.107 C 
BRANCH  11  15
ATOM     15  C   LIG    1      -21.437  78.575  15.211  0.00  0.00    +0.011 A 
ATOM     16  C   LIG    1      -22.834  78.584  15.347  0.00  0.00    +0.129 A 
ATOM     17  F   LIG    1      -23.551  77.515  14.971  0.00  0.00    -0.205 F 
ATOM     18  C   LIG    1      -23.522  79.688  15.856  0.00  0.00    +0.041 A 
ATOM     19  C   LIG    1      -22.815  80.829  16.226  0.00  0.00    +0.041 A 
ATOM     20  C   LIG    1      -21.434  80.844  16.089  0.00  0.00    +0.124 A 
ATOM     21  F   LIG    1      -20.750  81.947  16.419  0.00  0.00    -0.205 F 
ATOM     22  C   LIG    1      -20.745  79.734  15.603  0.00  0.00    +0.046 A 
ENDBRANCH  11  15
ENDBRANCH   4  10
BRANCH   1  25
ATOM     23  N   LIG    1      -21.079  73.352  17.891  0.00  0.00    -0.306 N 
ATOM     24  H   LIG    1      -21.058  74.227  17.373  0.00  0.00    +0.150 HD
ATOM     25  C   LIG    1      -19.866  72.913  18.378  0.00  0.00    +0.250 C 
ATOM     26  O   LIG    1      -19.688  71.811  18.869  0.00  0.00    -0.270 OA
BRANCH  23  28
ATOM     27  C   LIG    1      -22.007  71.154  17.396  0.00  0.00    +0.031 C 
ATOM     28  C   LIG    1      -22.330  72.569  17.906  0.00  0.00    +0.026 C 
ATOM     29  C   LIG    1      -22.882  72.476  19.335  0.00  0.00    +0.031 C 
ATOM     30  C   LIG    1      -23.424  73.148  16.982  0.00  0.00    +0.031 C 
ENDBRANCH  23  28
ENDBRANCH   1  25
TORSDOF 4
ENDMDL
MODEL 7
REMARK VINA RESULT:      -5.3     18.394     21.452
REMARK  Name = pdb/CHEMBL3671129.pdb
REMARK                            x       y       z     vdW  Elec       q    Type
REMARK                         _______ _______ _______ _____ _____    ______ ____
ROOT
ATOM      1  C   LIG    1      -24.605  81.786  12.271  0.00  0.00    +0.100 A 
ATOM      2  C   LIG    1      -24.269  83.122  12.110  0.00  0.00    +0.170 A 
ATOM      3  N   LIG    1      -23.402  83.973  12.763  0.00  0.00    -0.212 NA
ATOM      4  C   LIG    1      -23.316  85.219  12.336  0.00  0.00    +0.126 A 
ATOM      5  C   LIG    1      -24.066  85.700  11.116  0.00  0.00    +0.063 A 
ATOM      6  C   LIG    1      -24.919  84.851  10.544  0.00  0.00    +0.118 A 
ATOM      7  N   LIG    1      -25.049  83.568  11.033  0.00  0.00    -0.221 N 
ATOM      8  N   LIG    1      -25.868  82.613  10.545  0.00  0.00    -0.173 NA
ATOM      9  C   LIG    1      -25.590  81.546  11.287  0.00  0.00    +0.150 A 
ENDROOT
BRANCH   4  10
ATOM     10  N   LIG    1      -22.521  86.150  13.000  0.00  0.00    -0.308 N 
ATOM     11  C   LIG    1      -21.691  85.791  14.164  0.00  0.00    +0.108 C 
ATOM     12  C   LIG    1      -21.821  87.020  15.085  0.00  0.00    +0.029 C 
ATOM     13  C   LIG    1      -22.036  88.186  14.139  0.00  0.00    +0.021 C 
ATOM     14  C   LIG    1      -22.867  87.575  13.028  0.00  0.00    +0.107 C 
BRANCH  11  15
ATOM     15  C   LIG    1      -20.258  85.470  13.771  0.00  0.00    +0.011 A 
ATOM     16  C   LIG    1      -19.806  84.141  13.801  0.00  0.00    +0.129 A 
ATOM     17  F   LIG    1      -20.619  83.166  14.233  0.00  0.00    -0.205 F 
ATOM     18  C   LIG    1      -18.514  83.789  13.403  0.00  0.00    +0.041 A 
ATOM     19  C   LIG    1      -17.630  84.778  12.979  0.00  0.00    +0.041 A 
ATOM     20  C   LIG    1      -18.054  86.099  12.954  0.00  0.00    +0.124 A 
ATOM     21  F   LIG    1      -17.202  87.058  12.571  0.00  0.00    -0.205 F 
ATOM     22  C   LIG    1      -19.351  86.449  13.328  0.00  0.00    +0.046 A 
ENDBRANCH  11  15
ENDBRANCH   4  10
BRANCH   1  25
ATOM     23  N   LIG    1      -23.590  81.208  14.363  0.00  0.00    -0.306 N 
ATOM     24  H   LIG    1      -23.795  82.175  14.602  0.00  0.00    +0.150 HD
ATOM     25  C   LIG    1      -24.127  80.756  13.175  0.00  0.00    +0.250 C 
ATOM     26  O   LIG    1      -24.119  79.589  12.825  0.00  0.00    -0.270 OA
BRANCH  23  28
ATOM     27  C   LIG    1      -22.495  81.258  16.539  0.00  0.00    +0.031 C 
ATOM     28  C   LIG    1      -22.921  80.358  15.367  0.00  0.00    +0.026 C 
ATOM     29  C   LIG    1      -23.888  79.282  15.882  0.00  0.00    +0.031 C 
ATOM     30  C   LIG    1      -21.645  79.671  14.831  0.00  0.00    +0.031 C 
ENDBRANCH  23  28
ENDBRANCH   1  25
TORSDOF 4
ENDMDL
MODEL 8
REMARK VINA RESULT:      -5.2      2.686      5.993
REMARK  Name = pdb/CHEMBL3671129.pdb
REMARK                            x       y       z     vdW  Elec       q    Type
REMARK                         _______ _______ _______ _____ _____    ______ ____
ROOT
ATOM      1  C   LIG    1      -25.130  78.698  34.808  0.00  0.00    +0.100 A 
ATOM      2  C   LIG    1      -24.608  77.847  33.844  0.00  0.00    +0.170 A 
ATOM      3  N   LIG    1      -23.414  77.807  33.154  0.00  0.00    -0.212 NA
ATOM      4  C   LIG    1      -23.231  76.829  32.286  0.00  0.00    +0.126 A 
ATOM      5  C   LIG    1      -24.245  75.725  32.102  0.00  0.00    +0.063 A 
ATOM      6  C   LIG    1      -25.397  75.830  32.762  0.00  0.00    +0.118 A 
ATOM      7  N   LIG    1      -25.607  76.888  33.622  0.00  0.00    -0.221 N 
ATOM      8  N   LIG    1      -26.719  77.109  34.352  0.00  0.00    -0.173 NA
ATOM      9  C   LIG    1      -26.423  78.190  35.066  0.00  0.00    +0.150 A 
ENDROOT
BRANCH   4  10
ATOM     10  N   LIG    1      -22.084  76.775  31.500  0.00  0.00    -0.308 N 
ATOM     11  C   LIG    1      -21.059  77.834  31.527  0.00  0.00    +0.108 C 
ATOM     12  C   LIG    1      -20.625  77.945  30.052  0.00  0.00    +0.029 C 
ATOM     13  C   LIG    1      -20.828  76.552  29.487  0.00  0.00    +0.021 C 
ATOM     14  C   LIG    1      -22.065  76.066  30.216  0.00  0.00    +0.107 C 
BRANCH  11  15
ATOM     15  C   LIG    1      -19.918  77.505  32.477  0.00  0.00    +0.011 A 
ATOM     16  C   LIG    1      -19.196  78.543  33.088  0.00  0.00    +0.129 A 
ATOM     17  F   LIG    1      -19.474  79.820  32.787  0.00  0.00    -0.205 F 
ATOM     18  C   LIG    1      -18.172  78.293  34.005  0.00  0.00    +0.041 A 
ATOM     19  C   LIG    1      -17.832  76.980  34.318  0.00  0.00    +0.041 A 
ATOM     20  C   LIG    1      -18.527  75.940  33.715  0.00  0.00    +0.124 A 
ATOM     21  F   LIG    1      -18.189  74.674  33.992  0.00  0.00    -0.205 F 
ATOM     22  C   LIG    1      -19.564  76.188  32.818  0.00  0.00    +0.046 A 
ENDBRANCH  11  15
ENDBRANCH   4  10
BRANCH   1  25
ATOM     23  N   LIG    1      -23.224  80.033  35.374  0.00  0.00    -0.306 N 
ATOM     24  H   LIG    1      -22.771  79.499  34.638  0.00  0.00    +0.150 HD
ATOM     25  C   LIG    1      -24.586  79.855  35.494  0.00  0.00    +0.250 C 
ATOM     26  O   LIG    1      -25.302  80.538  36.206  0.00  0.00    -0.270 OA
BRANCH  23  28
ATOM     27  C   LIG    1      -22.294  80.595  37.555  0.00  0.00    +0.031 C 
ATOM     28  C   LIG    1      -22.438  81.054  36.094  0.00  0.00    +0.026 C 
ATOM     29  C   LIG    1      -21.042  81.189  35.470  0.00  0.00    +0.031 C 
ATOM     30  C   LIG    1      -23.115  82.442  36.116  0.00  0.00    +0.031 C 
ENDBRANCH  23  28
ENDBRANCH   1  25
TORSDOF 4
ENDMDL
MODEL 9
REMARK VINA RESULT:      -5.2     17.525     20.360
REMARK  Name = pdb/CHEMBL3671129.pdb
REMARK                            x       y       z     vdW  Elec       q    Type
REMARK                         _______ _______ _______ _____ _____    ______ ____
ROOT
ATOM      1  C   LIG    1      -18.850  85.131  13.384  0.00  0.00    +0.100 A 
ATOM      2  C   LIG    1      -19.007  83.789  13.703  0.00  0.00    +0.170 A 
ATOM      3  N   LIG    1      -19.942  83.086  14.434  0.00  0.00    -0.212 NA
ATOM      4  C   LIG    1      -19.793  81.778  14.537  0.00  0.00    +0.126 A 
ATOM      5  C   LIG    1      -18.693  81.039  13.812  0.00  0.00    +0.063 A 
ATOM      6  C   LIG    1      -17.794  81.767  13.151  0.00  0.00    +0.118 A 
ATOM      7  N   LIG    1      -17.921  83.140  13.098  0.00  0.00    -0.221 N 
ATOM      8  N   LIG    1      -17.088  83.989  12.462  0.00  0.00    -0.173 NA
ATOM      9  C   LIG    1      -17.656  85.179  12.631  0.00  0.00    +0.150 A 
ENDROOT
BRANCH   4  10
ATOM     10  N   LIG    1      -20.655  81.020  15.325  0.00  0.00    -0.308 N 
ATOM     11  C   LIG    1      -21.238  79.749  14.859  0.00  0.00    +0.108 C 
ATOM     12  C   LIG    1      -22.671  79.788  15.423  0.00  0.00    +0.029 C 
ATOM     13  C   LIG    1      -22.560  80.606  16.695  0.00  0.00    +0.021 C 
ATOM     14  C   LIG    1      -21.509  81.640  16.345  0.00  0.00    +0.107 C 
BRANCH  11  15
ATOM     15  C   LIG    1      -20.432  78.545  15.319  0.00  0.00    +0.011 A 
ATOM     16  C   LIG    1      -20.590  77.309  14.671  0.00  0.00    +0.129 A 
ATOM     17  F   LIG    1      -21.494  77.178  13.689  0.00  0.00    -0.205 F 
ATOM     18  C   LIG    1      -19.837  76.186  15.024  0.00  0.00    +0.041 A 
ATOM     19  C   LIG    1      -18.913  76.274  16.060  0.00  0.00    +0.041 A 
ATOM     20  C   LIG    1      -18.750  77.484  16.721  0.00  0.00    +0.124 A 
ATOM     21  F   LIG    1      -17.880  77.570  17.735  0.00  0.00    -0.205 F 
ATOM     22  C   LIG    1      -19.483  78.612  16.354  0.00  0.00    +0.046 A 
ENDBRANCH  11  15
ENDBRANCH   4  10
BRANCH   1  25
ATOM     23  N   LIG    1      -20.982  86.220  13.313  0.00  0.00    -0.306 N 
ATOM     24  H   LIG    1      -21.329  85.285  13.120  0.00  0.00    +0.150 HD
ATOM     25  C   LIG    1      -19.652  86.306  13.668  0.00  0.00    +0.250 C 
ATOM     26  O   LIG    1      -19.124  87.320  14.091  0.00  0.00    -0.270 OA
BRANCH  23  28
ATOM     27  C   LIG    1      -21.337  88.534  12.637  0.00  0.00    +0.031 C 
ATOM     28  C   LIG    1      -21.949  87.334  13.379  0.00  0.00    +0.026 C 
ATOM     29  C   LIG    1      -23.265  86.937  12.696  0.00  0.00    +0.031 C 
ATOM     30  C   LIG    1      -22.251  87.795  14.822  0.00  0.00    +0.031 C 
ENDBRANCH  23  28
ENDBRANCH   1  25
TORSDOF 4
ENDMDL
