MODEL 1
REMARK VINA RESULT:      -6.6      0.000      0.000
REMARK  Name = pdb/CHEMBL3675937.pdb
REMARK                            x       y       z     vdW  Elec       q    Type
REMARK                         _______ _______ _______ _____ _____    ______ ____
ROOT
ATOM      1  C   LIG    1      -22.893  77.073  30.546  0.00  0.00    +0.100 A 
ATOM      2  C   LIG    1      -21.900  77.455  31.434  0.00  0.00    +0.170 A 
ATOM      3  N   LIG    1      -21.949  77.864  32.746  0.00  0.00    -0.212 NA
ATOM      4  C   LIG    1      -20.816  78.164  33.340  0.00  0.00    +0.126 A 
ATOM      5  C   LIG    1      -19.484  78.049  32.638  0.00  0.00    +0.063 A 
ATOM      6  C   LIG    1      -19.493  77.623  31.370  0.00  0.00    +0.118 A 
ATOM      7  N   LIG    1      -20.694  77.331  30.743  0.00  0.00    -0.221 N 
ATOM      8  N   LIG    1      -20.874  76.904  29.472  0.00  0.00    -0.173 NA
ATOM      9  C   LIG    1      -22.194  76.750  29.363  0.00  0.00    +0.150 A 
ENDROOT
BRANCH   4  10
ATOM     10  N   LIG    1      -20.807  78.576  34.663  0.00  0.00    -0.308 N 
ATOM     11  C   LIG    1      -20.559  79.979  35.061  0.00  0.00    +0.108 C 
ATOM     12  C   LIG    1      -19.501  79.823  36.165  0.00  0.00    +0.029 C 
ATOM     13  C   LIG    1      -19.931  78.552  36.876  0.00  0.00    +0.021 C 
ATOM     14  C   LIG    1      -20.382  77.657  35.726  0.00  0.00    +0.107 C 
BRANCH  11  15
ATOM     15  C   LIG    1      -21.853  80.638  35.537  0.00  0.00    +0.011 A 
ATOM     16  C   LIG    1      -21.852  81.934  36.074  0.00  0.00    +0.129 A 
ATOM     17  F   LIG    1      -20.702  82.614  36.189  0.00  0.00    -0.205 F 
ATOM     18  C   LIG    1      -23.027  82.555  36.515  0.00  0.00    +0.041 A 
ATOM     19  C   LIG    1      -24.246  81.889  36.409  0.00  0.00    +0.041 A 
ATOM     20  C   LIG    1      -24.270  80.612  35.869  0.00  0.00    +0.124 A 
ATOM     21  F   LIG    1      -25.434  79.958  35.766  0.00  0.00    -0.205 F 
ATOM     22  C   LIG    1      -23.099  79.991  35.438  0.00  0.00    +0.046 A 
ENDBRANCH  11  15
ENDBRANCH   4  10
BRANCH   1  25
ATOM     23  N   LIG    1      -24.705  76.818  32.071  0.00  0.00    -0.306 N 
ATOM     24  H   LIG    1      -23.973  76.549  32.727  0.00  0.00    +0.149 HD
ATOM     25  C   LIG    1      -24.326  77.019  30.762  0.00  0.00    +0.249 C 
ATOM     26  O   LIG    1      -25.131  77.149  29.852  0.00  0.00    -0.270 OA
BRANCH  23  29
ATOM     27  F   LIG    1      -25.917  74.501  33.228  0.00  0.00    -0.242 F 
ATOM     28  C   LIG    1      -26.657  75.309  32.406  0.00  0.00    +0.200 C 
ATOM     29  C   LIG    1      -26.099  76.736  32.483  0.00  0.00    +0.110 C 
ATOM     30  C   LIG    1      -26.261  77.279  33.905  0.00  0.00    +0.040 C 
ATOM     31  C   LIG    1      -27.720  77.198  34.351  0.00  0.00    +0.083 C 
ATOM     32  N   LIG    1      -28.254  75.837  34.265  0.00  0.00    -0.313 NA
ATOM     33  H   LIG    1      -27.721  75.235  34.897  0.00  0.00    +0.122 HD
ATOM     34  C   LIG    1      -28.108  75.292  32.902  0.00  0.00    +0.119 C 
ENDBRANCH  23  29
ENDBRANCH   1  25
TORSDOF 4
ENDMDL
MODEL 2
REMARK VINA RESULT:      -6.3      2.813      5.739
REMARK  Name = pdb/CHEMBL3675937.pdb
REMARK                            x       y       z     vdW  Elec       q    Type
REMARK                         _______ _______ _______ _____ _____    ______ ____
ROOT
ATOM      1  C   LIG    1      -24.124  78.027  32.256  0.00  0.00    +0.100 A 
ATOM      2  C   LIG    1      -23.068  77.425  31.592  0.00  0.00    +0.170 A 
ATOM      3  N   LIG    1      -21.757  77.216  31.950  0.00  0.00    -0.212 NA
ATOM      4  C   LIG    1      -20.976  76.598  31.094  0.00  0.00    +0.126 A 
ATOM      5  C   LIG    1      -21.478  76.100  29.760  0.00  0.00    +0.063 A 
ATOM      6  C   LIG    1      -22.768  76.309  29.473  0.00  0.00    +0.118 A 
ATOM      7  N   LIG    1      -23.580  76.981  30.372  0.00  0.00    -0.221 N 
ATOM      8  N   LIG    1      -24.892  77.280  30.228  0.00  0.00    -0.173 NA
ATOM      9  C   LIG    1      -25.210  77.905  31.363  0.00  0.00    +0.150 A 
ENDROOT
BRANCH   4  10
ATOM     10  N   LIG    1      -19.647  76.357  31.406  0.00  0.00    -0.308 N 
ATOM     11  C   LIG    1      -18.649  77.440  31.540  0.00  0.00    +0.108 C 
ATOM     12  C   LIG    1      -17.483  76.918  30.683  0.00  0.00    +0.029 C 
ATOM     13  C   LIG    1      -17.507  75.422  30.947  0.00  0.00    +0.021 C 
ATOM     14  C   LIG    1      -18.999  75.108  30.985  0.00  0.00    +0.107 C 
BRANCH  11  15
ATOM     15  C   LIG    1      -18.285  77.655  33.008  0.00  0.00    +0.011 A 
ATOM     16  C   LIG    1      -17.415  78.684  33.397  0.00  0.00    +0.129 A 
ATOM     17  F   LIG    1      -16.875  79.493  32.474  0.00  0.00    -0.205 F 
ATOM     18  C   LIG    1      -17.070  78.897  34.738  0.00  0.00    +0.041 A 
ATOM     19  C   LIG    1      -17.611  78.084  35.731  0.00  0.00    +0.041 A 
ATOM     20  C   LIG    1      -18.484  77.069  35.368  0.00  0.00    +0.124 A 
ATOM     21  F   LIG    1      -19.007  76.277  36.313  0.00  0.00    -0.205 F 
ATOM     22  C   LIG    1      -18.820  76.852  34.034  0.00  0.00    +0.046 A 
ENDBRANCH  11  15
ENDBRANCH   4  10
BRANCH   1  25
ATOM     23  N   LIG    1      -22.908  79.137  33.978  0.00  0.00    -0.306 N 
ATOM     24  H   LIG    1      -22.094  78.861  33.431  0.00  0.00    +0.149 HD
ATOM     25  C   LIG    1      -24.130  78.653  33.565  0.00  0.00    +0.249 C 
ATOM     26  O   LIG    1      -25.144  78.748  34.241  0.00  0.00    -0.270 OA
BRANCH  23  29
ATOM     27  F   LIG    1      -20.367  79.915  35.035  0.00  0.00    -0.242 F 
ATOM     28  C   LIG    1      -21.351  79.490  35.889  0.00  0.00    +0.200 C 
ATOM     29  C   LIG    1      -22.717  79.798  35.261  0.00  0.00    +0.110 C 
ATOM     30  C   LIG    1      -22.886  81.311  35.105  0.00  0.00    +0.040 C 
ATOM     31  C   LIG    1      -22.686  82.018  36.444  0.00  0.00    +0.083 C 
ATOM     32  N   LIG    1      -21.387  81.713  37.047  0.00  0.00    -0.313 NA
ATOM     33  H   LIG    1      -20.649  82.052  36.424  0.00  0.00    +0.122 HD
ATOM     34  C   LIG    1      -21.201  80.258  37.207  0.00  0.00    +0.119 C 
ENDBRANCH  23  29
ENDBRANCH   1  25
TORSDOF 4
ENDMDL
MODEL 3
REMARK VINA RESULT:      -6.1      2.623      6.187
REMARK  Name = pdb/CHEMBL3675937.pdb
REMARK                            x       y       z     vdW  Elec       q    Type
REMARK                         _______ _______ _______ _____ _____    ______ ____
ROOT
ATOM      1  C   LIG    1      -18.612  78.445  33.425  0.00  0.00    +0.100 A 
ATOM      2  C   LIG    1      -19.542  77.998  32.501  0.00  0.00    +0.170 A 
ATOM      3  N   LIG    1      -20.917  77.990  32.513  0.00  0.00    -0.212 NA
ATOM      4  C   LIG    1      -21.539  77.494  31.467  0.00  0.00    +0.126 A 
ATOM      5  C   LIG    1      -20.795  76.965  30.264  0.00  0.00    +0.063 A 
ATOM      6  C   LIG    1      -19.459  77.020  30.296  0.00  0.00    +0.118 A 
ATOM      7  N   LIG    1      -18.810  77.524  31.412  0.00  0.00    -0.221 N 
ATOM      8  N   LIG    1      -17.475  77.636  31.604  0.00  0.00    -0.173 NA
ATOM      9  C   LIG    1      -17.366  78.192  32.812  0.00  0.00    +0.150 A 
ENDROOT
BRANCH   4  10
ATOM     10  N   LIG    1      -22.924  77.465  31.424  0.00  0.00    -0.308 N 
ATOM     11  C   LIG    1      -23.727  76.496  32.200  0.00  0.00    +0.108 C 
ATOM     12  C   LIG    1      -24.699  75.953  31.140  0.00  0.00    +0.029 C 
ATOM     13  C   LIG    1      -24.995  77.176  30.289  0.00  0.00    +0.021 C 
ATOM     14  C   LIG    1      -23.639  77.869  30.207  0.00  0.00    +0.107 C 
BRANCH  11  15
ATOM     15  C   LIG    1      -24.420  77.191  33.372  0.00  0.00    +0.011 A 
ATOM     16  C   LIG    1      -25.355  76.512  34.168  0.00  0.00    +0.129 A 
ATOM     17  F   LIG    1      -25.666  75.236  33.900  0.00  0.00    -0.205 F 
ATOM     18  C   LIG    1      -26.000  77.132  35.245  0.00  0.00    +0.041 A 
ATOM     19  C   LIG    1      -25.705  78.455  35.564  0.00  0.00    +0.041 A 
ATOM     20  C   LIG    1      -24.773  79.139  34.798  0.00  0.00    +0.124 A 
ATOM     21  F   LIG    1      -24.483  80.413  35.089  0.00  0.00    -0.205 F 
ATOM     22  C   LIG    1      -24.138  78.525  33.720  0.00  0.00    +0.046 A 
ENDBRANCH  11  15
ENDBRANCH   4  10
BRANCH   1  25
ATOM     23  N   LIG    1      -20.080  79.623  34.885  0.00  0.00    -0.306 N 
ATOM     24  H   LIG    1      -20.636  79.755  34.042  0.00  0.00    +0.149 HD
ATOM     25  C   LIG    1      -18.844  79.033  34.730  0.00  0.00    +0.249 C 
ATOM     26  O   LIG    1      -18.010  78.999  35.622  0.00  0.00    -0.270 OA
BRANCH  23  29
ATOM     27  F   LIG    1      -21.950  81.780  35.042  0.00  0.00    -0.242 F 
ATOM     28  C   LIG    1      -20.905  81.729  35.925  0.00  0.00    +0.200 C 
ATOM     29  C   LIG    1      -20.496  80.264  36.124  0.00  0.00    +0.110 C 
ATOM     30  C   LIG    1      -21.652  79.485  36.758  0.00  0.00    +0.040 C 
ATOM     31  C   LIG    1      -22.100  80.148  38.059  0.00  0.00    +0.083 C 
ATOM     32  N   LIG    1      -22.478  81.550  37.869  0.00  0.00    -0.313 NA
ATOM     33  H   LIG    1      -23.276  81.591  37.230  0.00  0.00    +0.122 HD
ATOM     34  C   LIG    1      -21.378  82.320  37.258  0.00  0.00    +0.119 C 
ENDBRANCH  23  29
ENDBRANCH   1  25
TORSDOF 4
ENDMDL
MODEL 4
REMARK VINA RESULT:      -6.0     16.261     19.746
REMARK  Name = pdb/CHEMBL3675937.pdb
REMARK                            x       y       z     vdW  Elec       q    Type
REMARK                         _______ _______ _______ _____ _____    ______ ____
ROOT
ATOM      1  C   LIG    1      -38.093  68.830  22.402  0.00  0.00    +0.100 A 
ATOM      2  C   LIG    1      -39.008  69.787  22.808  0.00  0.00    +0.170 A 
ATOM      3  N   LIG    1      -38.950  70.761  23.777  0.00  0.00    -0.212 NA
ATOM      4  C   LIG    1      -39.996  71.540  23.931  0.00  0.00    +0.126 A 
ATOM      5  C   LIG    1      -41.230  71.411  23.069  0.00  0.00    +0.063 A 
ATOM      6  C   LIG    1      -41.222  70.462  22.125  0.00  0.00    +0.118 A 
ATOM      7  N   LIG    1      -40.124  69.630  21.985  0.00  0.00    -0.221 N 
ATOM      8  N   LIG    1      -39.966  68.623  21.095  0.00  0.00    -0.173 NA
ATOM      9  C   LIG    1      -38.745  68.150  21.351  0.00  0.00    +0.150 A 
ENDROOT
BRANCH   4  10
ATOM     10  N   LIG    1      -39.989  72.541  24.888  0.00  0.00    -0.308 N 
ATOM     11  C   LIG    1      -38.868  73.493  25.040  0.00  0.00    +0.108 C 
ATOM     12  C   LIG    1      -38.603  73.448  26.554  0.00  0.00    +0.029 C 
ATOM     13  C   LIG    1      -39.997  73.308  27.141  0.00  0.00    +0.021 C 
ATOM     14  C   LIG    1      -40.679  72.350  26.171  0.00  0.00    +0.107 C 
BRANCH  11  15
ATOM     15  C   LIG    1      -39.265  74.877  24.526  0.00  0.00    +0.011 A 
ATOM     16  C   LIG    1      -38.376  75.960  24.596  0.00  0.00    +0.129 A 
ATOM     17  F   LIG    1      -37.158  75.797  25.132  0.00  0.00    -0.205 F 
ATOM     18  C   LIG    1      -38.722  77.234  24.130  0.00  0.00    +0.041 A 
ATOM     19  C   LIG    1      -39.975  77.449  23.560  0.00  0.00    +0.041 A 
ATOM     20  C   LIG    1      -40.863  76.387  23.470  0.00  0.00    +0.124 A 
ATOM     21  F   LIG    1      -42.073  76.581  22.929  0.00  0.00    -0.205 F 
ATOM     22  C   LIG    1      -40.522  75.122  23.942  0.00  0.00    +0.046 A 
ENDBRANCH  11  15
ENDBRANCH   4  10
BRANCH   1  25
ATOM     23  N   LIG    1      -36.638  68.757  24.288  0.00  0.00    -0.306 N 
ATOM     24  H   LIG    1      -37.406  69.230  24.761  0.00  0.00    +0.149 HD
ATOM     25  C   LIG    1      -36.768  68.565  22.929  0.00  0.00    +0.249 C 
ATOM     26  O   LIG    1      -35.843  68.193  22.222  0.00  0.00    -0.270 OA
BRANCH  23  29
ATOM     27  F   LIG    1      -36.060  69.774  26.896  0.00  0.00    -0.242 F 
ATOM     28  C   LIG    1      -35.053  69.677  25.973  0.00  0.00    +0.200 C 
ATOM     29  C   LIG    1      -35.386  68.541  24.997  0.00  0.00    +0.110 C 
ATOM     30  C   LIG    1      -35.429  67.208  25.749  0.00  0.00    +0.040 C 
ATOM     31  C   LIG    1      -34.120  66.969  26.500  0.00  0.00    +0.083 C 
ATOM     32  N   LIG    1      -33.798  68.061  27.421  0.00  0.00    -0.313 NA
ATOM     33  H   LIG    1      -34.536  68.120  28.129  0.00  0.00    +0.122 HD
ATOM     34  C   LIG    1      -33.752  69.356  26.717  0.00  0.00    +0.119 C 
ENDBRANCH  23  29
ENDBRANCH   1  25
TORSDOF 4
ENDMDL
MODEL 5
REMARK VINA RESULT:      -5.9     11.602     17.229
REMARK  Name = pdb/CHEMBL3675937.pdb
REMARK                            x       y       z     vdW  Elec       q    Type
REMARK                         _______ _______ _______ _____ _____    ______ ____
ROOT
ATOM      1  C   LIG    1      -37.541  76.209  25.811  0.00  0.00    +0.100 A 
ATOM      2  C   LIG    1      -38.047  74.939  25.588  0.00  0.00    +0.170 A 
ATOM      3  N   LIG    1      -37.788  73.729  26.188  0.00  0.00    -0.212 NA
ATOM      4  C   LIG    1      -38.441  72.675  25.754  0.00  0.00    +0.126 A 
ATOM      5  C   LIG    1      -39.467  72.762  24.649  0.00  0.00    +0.063 A 
ATOM      6  C   LIG    1      -39.697  73.968  24.119  0.00  0.00    +0.118 A 
ATOM      7  N   LIG    1      -38.988  75.071  24.566  0.00  0.00    -0.221 N 
ATOM      8  N   LIG    1      -39.093  76.347  24.127  0.00  0.00    -0.173 NA
ATOM      9  C   LIG    1      -38.224  77.023  24.881  0.00  0.00    +0.150 A 
ENDROOT
BRANCH   4  10
ATOM     10  N   LIG    1      -38.223  71.432  26.326  0.00  0.00    -0.308 N 
ATOM     11  C   LIG    1      -37.474  70.357  25.640  0.00  0.00    +0.108 C 
ATOM     12  C   LIG    1      -38.403  69.145  25.820  0.00  0.00    +0.029 C 
ATOM     13  C   LIG    1      -38.974  69.355  27.212  0.00  0.00    +0.021 C 
ATOM     14  C   LIG    1      -39.201  70.862  27.262  0.00  0.00    +0.107 C 
BRANCH  11  15
ATOM     15  C   LIG    1      -36.096  70.175  26.275  0.00  0.00    +0.011 A 
ATOM     16  C   LIG    1      -35.121  69.367  25.671  0.00  0.00    +0.129 A 
ATOM     17  F   LIG    1      -35.392  68.727  24.525  0.00  0.00    -0.205 F 
ATOM     18  C   LIG    1      -33.852  69.188  26.237  0.00  0.00    +0.041 A 
ATOM     19  C   LIG    1      -33.524  69.838  27.424  0.00  0.00    +0.041 A 
ATOM     20  C   LIG    1      -34.469  70.652  28.029  0.00  0.00    +0.124 A 
ATOM     21  F   LIG    1      -34.169  71.278  29.174  0.00  0.00    -0.205 F 
ATOM     22  C   LIG    1      -35.734  70.823  27.471  0.00  0.00    +0.046 A 
ENDBRANCH  11  15
ENDBRANCH   4  10
BRANCH   1  25
ATOM     23  N   LIG    1      -35.581  75.674  27.055  0.00  0.00    -0.306 N 
ATOM     24  H   LIG    1      -35.761  74.728  26.724  0.00  0.00    +0.149 HD
ATOM     25  C   LIG    1      -36.535  76.627  26.769  0.00  0.00    +0.249 C 
ATOM     26  O   LIG    1      -36.532  77.739  27.274  0.00  0.00    -0.270 OA
BRANCH  23  29
ATOM     27  F   LIG    1      -33.515  73.786  27.639  0.00  0.00    -0.242 F 
ATOM     28  C   LIG    1      -33.970  74.614  28.630  0.00  0.00    +0.200 C 
ATOM     29  C   LIG    1      -34.491  75.908  27.991  0.00  0.00    +0.110 C 
ATOM     30  C   LIG    1      -33.343  76.640  27.292  0.00  0.00    +0.040 C 
ATOM     31  C   LIG    1      -32.192  76.891  28.263  0.00  0.00    +0.083 C 
ATOM     32  N   LIG    1      -31.703  75.657  28.880  0.00  0.00    -0.313 NA
ATOM     33  H   LIG    1      -31.338  75.045  28.145  0.00  0.00    +0.122 HD
ATOM     34  C   LIG    1      -32.794  74.934  29.561  0.00  0.00    +0.119 C 
ENDBRANCH  23  29
ENDBRANCH   1  25
TORSDOF 4
ENDMDL
MODEL 6
REMARK VINA RESULT:      -5.9     18.689     21.489
REMARK  Name = pdb/CHEMBL3675937.pdb
REMARK                            x       y       z     vdW  Elec       q    Type
REMARK                         _______ _______ _______ _____ _____    ______ ____
ROOT
ATOM      1  C   LIG    1      -19.275  82.140  13.770  0.00  0.00    +0.100 A 
ATOM      2  C   LIG    1      -19.420  83.515  13.681  0.00  0.00    +0.170 A 
ATOM      3  N   LIG    1      -20.516  84.334  13.818  0.00  0.00    -0.212 NA
ATOM      4  C   LIG    1      -20.339  85.628  13.679  0.00  0.00    +0.126 A 
ATOM      5  C   LIG    1      -18.982  86.229  13.401  0.00  0.00    +0.063 A 
ATOM      6  C   LIG    1      -17.947  85.388  13.301  0.00  0.00    +0.118 A 
ATOM      7  N   LIG    1      -18.146  84.023  13.426  0.00  0.00    -0.221 N 
ATOM      8  N   LIG    1      -17.213  83.047  13.339  0.00  0.00    -0.173 NA
ATOM      9  C   LIG    1      -17.899  81.922  13.550  0.00  0.00    +0.150 A 
ENDROOT
BRANCH   4  10
ATOM     10  N   LIG    1      -21.408  86.500  13.813  0.00  0.00    -0.308 N 
ATOM     11  C   LIG    1      -21.801  87.451  12.752  0.00  0.00    +0.108 C 
ATOM     12  C   LIG    1      -21.945  88.769  13.531  0.00  0.00    +0.029 C 
ATOM     13  C   LIG    1      -22.529  88.320  14.858  0.00  0.00    +0.021 C 
ATOM     14  C   LIG    1      -21.784  87.019  15.135  0.00  0.00    +0.107 C 
BRANCH  11  15
ATOM     15  C   LIG    1      -23.091  86.994  12.072  0.00  0.00    +0.011 A 
ATOM     16  C   LIG    1      -23.776  87.831  11.178  0.00  0.00    +0.129 A 
ATOM     17  F   LIG    1      -23.310  89.061  10.916  0.00  0.00    -0.205 F 
ATOM     18  C   LIG    1      -24.959  87.430  10.546  0.00  0.00    +0.041 A 
ATOM     19  C   LIG    1      -25.477  86.159  10.784  0.00  0.00    +0.041 A 
ATOM     20  C   LIG    1      -24.807  85.312  11.653  0.00  0.00    +0.124 A 
ATOM     21  F   LIG    1      -25.297  84.089  11.896  0.00  0.00    -0.205 F 
ATOM     22  C   LIG    1      -23.635  85.714  12.290  0.00  0.00    +0.046 A 
ENDBRANCH  11  15
ENDBRANCH   4  10
BRANCH   1  25
ATOM     23  N   LIG    1      -21.586  81.560  13.798  0.00  0.00    -0.306 N 
ATOM     24  H   LIG    1      -21.727  82.559  13.656  0.00  0.00    +0.149 HD
ATOM     25  C   LIG    1      -20.293  81.138  14.024  0.00  0.00    +0.249 C 
ATOM     26  O   LIG    1      -20.021  80.008  14.400  0.00  0.00    -0.270 OA
BRANCH  23  29
ATOM     27  F   LIG    1      -23.364  81.723  16.031  0.00  0.00    -0.242 F 
ATOM     28  C   LIG    1      -23.088  80.501  15.478  0.00  0.00    +0.200 C 
ATOM     29  C   LIG    1      -22.741  80.696  13.996  0.00  0.00    +0.110 C 
ATOM     30  C   LIG    1      -23.954  81.258  13.250  0.00  0.00    +0.040 C 
ATOM     31  C   LIG    1      -25.174  80.362  13.451  0.00  0.00    +0.083 C 
ATOM     32  N   LIG    1      -25.496  80.167  14.866  0.00  0.00    -0.313 NA
ATOM     33  H   LIG    1      -25.729  81.075  15.277  0.00  0.00    +0.122 HD
ATOM     34  C   LIG    1      -24.340  79.626  15.606  0.00  0.00    +0.119 C 
ENDBRANCH  23  29
ENDBRANCH   1  25
TORSDOF 4
ENDMDL
MODEL 7
REMARK VINA RESULT:      -5.8     16.102     20.212
REMARK  Name = pdb/CHEMBL3675937.pdb
REMARK                            x       y       z     vdW  Elec       q    Type
REMARK                         _______ _______ _______ _____ _____    ______ ____
ROOT
ATOM      1  C   LIG    1      -36.381  67.723  21.973  0.00  0.00    +0.100 A 
ATOM      2  C   LIG    1      -37.579  68.391  22.165  0.00  0.00    +0.170 A 
ATOM      3  N   LIG    1      -38.064  69.121  23.226  0.00  0.00    -0.212 NA
ATOM      4  C   LIG    1      -39.261  69.651  23.112  0.00  0.00    +0.126 A 
ATOM      5  C   LIG    1      -40.092  69.502  21.860  0.00  0.00    +0.063 A 
ATOM      6  C   LIG    1      -39.561  68.803  20.850  0.00  0.00    +0.118 A 
ATOM      7  N   LIG    1      -38.308  68.228  20.986  0.00  0.00    -0.221 N 
ATOM      8  N   LIG    1      -37.642  67.487  20.072  0.00  0.00    -0.173 NA
ATOM      9  C   LIG    1      -36.487  67.190  20.670  0.00  0.00    +0.150 A 
ENDROOT
BRANCH   4  10
ATOM     10  N   LIG    1      -39.796  70.400  24.147  0.00  0.00    -0.308 N 
ATOM     11  C   LIG    1      -39.173  71.650  24.634  0.00  0.00    +0.108 C 
ATOM     12  C   LIG    1      -39.155  71.436  26.156  0.00  0.00    +0.029 C 
ATOM     13  C   LIG    1      -40.458  70.700  26.414  0.00  0.00    +0.021 C 
ATOM     14  C   LIG    1      -40.550  69.749  25.225  0.00  0.00    +0.107 C 
BRANCH  11  15
ATOM     15  C   LIG    1      -39.990  72.864  24.193  0.00  0.00    +0.011 A 
ATOM     16  C   LIG    1      -39.505  74.169  24.369  0.00  0.00    +0.129 A 
ATOM     17  F   LIG    1      -38.311  74.370  24.945  0.00  0.00    -0.205 F 
ATOM     18  C   LIG    1      -40.239  75.293  23.971  0.00  0.00    +0.041 A 
ATOM     19  C   LIG    1      -41.482  75.131  23.363  0.00  0.00    +0.041 A 
ATOM     20  C   LIG    1      -41.973  73.849  23.168  0.00  0.00    +0.124 A 
ATOM     21  F   LIG    1      -43.169  73.679  22.590  0.00  0.00    -0.205 F 
ATOM     22  C   LIG    1      -41.246  72.731  23.572  0.00  0.00    +0.046 A 
ENDBRANCH  11  15
ENDBRANCH   4  10
BRANCH   1  25
ATOM     23  N   LIG    1      -35.530  67.980  24.184  0.00  0.00    -0.306 N 
ATOM     24  H   LIG    1      -36.397  68.492  24.341  0.00  0.00    +0.149 HD
ATOM     25  C   LIG    1      -35.266  67.584  22.890  0.00  0.00    +0.249 C 
ATOM     26  O   LIG    1      -34.182  67.142  22.541  0.00  0.00    -0.270 OA
BRANCH  23  29
ATOM     27  F   LIG    1      -35.624  69.527  26.587  0.00  0.00    -0.242 F 
ATOM     28  C   LIG    1      -34.411  69.230  26.023  0.00  0.00    +0.200 C 
ATOM     29  C   LIG    1      -34.537  67.914  25.245  0.00  0.00    +0.110 C 
ATOM     30  C   LIG    1      -34.871  66.772  26.209  0.00  0.00    +0.040 C 
ATOM     31  C   LIG    1      -33.836  66.692  27.330  0.00  0.00    +0.083 C 
ATOM     32  N   LIG    1      -33.709  67.953  28.063  0.00  0.00    -0.313 NA
ATOM     33  H   LIG    1      -34.607  68.165  28.507  0.00  0.00    +0.122 HD
ATOM     34  C   LIG    1      -33.388  69.069  27.153  0.00  0.00    +0.119 C 
ENDBRANCH  23  29
ENDBRANCH   1  25
TORSDOF 4
ENDMDL
MODEL 8
REMARK VINA RESULT:      -5.7      2.812      6.370
REMARK  Name = pdb/CHEMBL3675937.pdb
REMARK                            x       y       z     vdW  Elec       q    Type
REMARK                         _______ _______ _______ _____ _____    ______ ____
ROOT
ATOM      1  C   LIG    1      -18.956  79.459  36.171  0.00  0.00    +0.100 A 
ATOM      2  C   LIG    1      -18.973  78.673  35.030  0.00  0.00    +0.170 A 
ATOM      3  N   LIG    1      -19.928  78.486  34.058  0.00  0.00    -0.212 NA
ATOM      4  C   LIG    1      -19.650  77.663  33.072  0.00  0.00    +0.126 A 
ATOM      5  C   LIG    1      -18.324  76.949  32.970  0.00  0.00    +0.063 A 
ATOM      6  C   LIG    1      -17.422  77.188  33.929  0.00  0.00    +0.118 A 
ATOM      7  N   LIG    1      -17.731  78.039  34.977  0.00  0.00    -0.221 N 
ATOM      8  N   LIG    1      -16.942  78.372  36.024  0.00  0.00    -0.173 NA
ATOM      9  C   LIG    1      -17.683  79.226  36.733  0.00  0.00    +0.150 A 
ENDROOT
BRANCH   4  10
ATOM     10  N   LIG    1      -20.574  77.442  32.064  0.00  0.00    -0.308 N 
ATOM     11  C   LIG    1      -21.442  76.245  32.024  0.00  0.00    +0.108 C 
ATOM     12  C   LIG    1      -21.267  75.762  30.575  0.00  0.00    +0.029 C 
ATOM     13  C   LIG    1      -21.167  77.059  29.791  0.00  0.00    +0.021 C 
ATOM     14  C   LIG    1      -20.328  77.944  30.706  0.00  0.00    +0.107 C 
BRANCH  11  15
ATOM     15  C   LIG    1      -22.882  76.615  32.379  0.00  0.00    +0.011 A 
ATOM     16  C   LIG    1      -23.949  75.761  32.064  0.00  0.00    +0.129 A 
ATOM     17  F   LIG    1      -23.719  74.603  31.429  0.00  0.00    -0.205 F 
ATOM     18  C   LIG    1      -25.275  76.083  32.382  0.00  0.00    +0.041 A 
ATOM     19  C   LIG    1      -25.560  77.273  33.047  0.00  0.00    +0.041 A 
ATOM     20  C   LIG    1      -24.518  78.124  33.379  0.00  0.00    +0.124 A 
ATOM     21  F   LIG    1      -24.778  79.274  34.013  0.00  0.00    -0.205 F 
ATOM     22  C   LIG    1      -23.200  77.809  33.055  0.00  0.00    +0.046 A 
ENDBRANCH  11  15
ENDBRANCH   4  10
BRANCH   1  25
ATOM     23  N   LIG    1      -21.283  79.875  36.467  0.00  0.00    -0.306 N 
ATOM     24  H   LIG    1      -21.393  79.097  35.819  0.00  0.00    +0.149 HD
ATOM     25  C   LIG    1      -19.999  80.323  36.689  0.00  0.00    +0.249 C 
ATOM     26  O   LIG    1      -19.754  81.363  37.283  0.00  0.00    -0.270 OA
BRANCH  23  29
ATOM     27  F   LIG    1      -22.986  81.405  34.754  0.00  0.00    -0.242 F 
ATOM     28  C   LIG    1      -22.768  81.827  36.038  0.00  0.00    +0.200 C 
ATOM     29  C   LIG    1      -22.460  80.605  36.914  0.00  0.00    +0.110 C 
ATOM     30  C   LIG    1      -23.675  79.675  36.951  0.00  0.00    +0.040 C 
ATOM     31  C   LIG    1      -24.918  80.429  37.418  0.00  0.00    +0.083 C 
ATOM     32  N   LIG    1      -25.204  81.602  36.588  0.00  0.00    -0.313 NA
ATOM     33  H   LIG    1      -25.393  81.288  35.632  0.00  0.00    +0.122 HD
ATOM     34  C   LIG    1      -24.045  82.513  36.537  0.00  0.00    +0.119 C 
ENDBRANCH  23  29
ENDBRANCH   1  25
TORSDOF 4
ENDMDL
MODEL 9
REMARK VINA RESULT:      -5.6     12.790     15.896
REMARK  Name = pdb/CHEMBL3675937.pdb
REMARK                            x       y       z     vdW  Elec       q    Type
REMARK                         _______ _______ _______ _____ _____    ______ ____
ROOT
ATOM      1  C   LIG    1      -39.585  80.383  25.618  0.00  0.00    +0.100 A 
ATOM      2  C   LIG    1      -38.675  81.229  26.229  0.00  0.00    +0.170 A 
ATOM      3  N   LIG    1      -37.650  80.991  27.114  0.00  0.00    -0.212 NA
ATOM      4  C   LIG    1      -36.940  82.018  27.525  0.00  0.00    +0.126 A 
ATOM      5  C   LIG    1      -37.203  83.424  27.041  0.00  0.00    +0.063 A 
ATOM      6  C   LIG    1      -38.197  83.594  26.162  0.00  0.00    +0.118 A 
ATOM      7  N   LIG    1      -38.955  82.510  25.751  0.00  0.00    -0.221 N 
ATOM      8  N   LIG    1      -39.994  82.517  24.884  0.00  0.00    -0.173 NA
ATOM      9  C   LIG    1      -40.364  81.237  24.808  0.00  0.00    +0.150 A 
ENDROOT
BRANCH   4  10
ATOM     10  N   LIG    1      -35.892  81.834  28.412  0.00  0.00    -0.308 N 
ATOM     11  C   LIG    1      -35.801  80.663  29.311  0.00  0.00    +0.108 C 
ATOM     12  C   LIG    1      -35.494  81.315  30.668  0.00  0.00    +0.029 C 
ATOM     13  C   LIG    1      -34.582  82.471  30.294  0.00  0.00    +0.021 C 
ATOM     14  C   LIG    1      -35.205  82.990  29.003  0.00  0.00    +0.107 C 
BRANCH  11  15
ATOM     15  C   LIG    1      -34.715  79.700  28.831  0.00  0.00    +0.011 A 
ATOM     16  C   LIG    1      -34.467  78.494  29.502  0.00  0.00    +0.129 A 
ATOM     17  F   LIG    1      -35.177  78.172  30.592  0.00  0.00    -0.205 F 
ATOM     18  C   LIG    1      -33.477  77.600  29.076  0.00  0.00    +0.041 A 
ATOM     19  C   LIG    1      -32.718  77.890  27.945  0.00  0.00    +0.041 A 
ATOM     20  C   LIG    1      -32.958  79.072  27.260  0.00  0.00    +0.124 A 
ATOM     21  F   LIG    1      -32.232  79.367  26.174  0.00  0.00    -0.205 F 
ATOM     22  C   LIG    1      -33.937  79.966  27.688  0.00  0.00    +0.046 A 
ENDBRANCH  11  15
ENDBRANCH   4  10
BRANCH   1  25
ATOM     23  N   LIG    1      -38.542  78.268  25.957  0.00  0.00    -0.306 N 
ATOM     24  H   LIG    1      -37.681  78.789  25.797  0.00  0.00    +0.149 HD
ATOM     25  C   LIG    1      -39.726  78.947  25.768  0.00  0.00    +0.249 C 
ATOM     26  O   LIG    1      -40.812  78.388  25.736  0.00  0.00    -0.270 OA
BRANCH  23  29
ATOM     27  F   LIG    1      -37.157  76.487  24.201  0.00  0.00    -0.242 F 
ATOM     28  C   LIG    1      -38.319  76.075  24.799  0.00  0.00    +0.200 C 
ATOM     29  C   LIG    1      -38.482  76.824  26.128  0.00  0.00    +0.110 C 
ATOM     30  C   LIG    1      -37.338  76.452  27.076  0.00  0.00    +0.040 C 
ATOM     31  C   LIG    1      -37.262  74.938  27.263  0.00  0.00    +0.083 C 
ATOM     32  N   LIG    1      -37.119  74.225  25.992  0.00  0.00    -0.313 NA
ATOM     33  H   LIG    1      -36.239  74.511  25.554  0.00  0.00    +0.122 HD
ATOM     34  C   LIG    1      -38.211  74.569  25.062  0.00  0.00    +0.119 C 
ENDBRANCH  23  29
ENDBRANCH   1  25
TORSDOF 4
ENDMDL
