MODEL 1
REMARK VINA RESULT:      -6.9      0.000      0.000
REMARK  Name = pdb/CHEMBL3894183.pdb
REMARK                            x       y       z     vdW  Elec       q    Type
REMARK                         _______ _______ _______ _____ _____    ______ ____
ROOT
ATOM      1  C   LIG    1      -33.871  66.163  20.222  0.00  0.00    +0.221 A 
ATOM      2  N   LIG    1      -33.558  66.507  21.482  0.00  0.00    -0.219 NA
ATOM      3  C   LIG    1      -34.570  66.871  22.307  0.00  0.00    +0.142 A 
ATOM      4  C   LIG    1      -35.896  67.033  21.932  0.00  0.00    +0.087 A 
ATOM      5  C   LIG    1      -36.181  66.694  20.607  0.00  0.00    +0.034 A 
ATOM      6  C   LIG    1      -35.162  66.267  19.733  0.00  0.00    +0.070 A 
ENDROOT
BRANCH   4   7
ATOM      7  N   LIG    1      -36.940  67.453  22.796  0.00  0.00    -0.198 NA
ATOM      8  C   LIG    1      -37.331  68.675  22.891  0.00  0.00    +0.285 C 
BRANCH   8   9
ATOM      9  N   LIG    1      -38.329  69.220  23.685  0.00  0.00    -0.267 N 
ATOM     10  H   LIG    1      -39.037  68.601  24.075  0.00  0.00    +0.157 HD
BRANCH   9  11
ATOM     11  C   LIG    1      -38.348  70.504  24.276  0.00  0.00    +0.061 A 
ATOM     12  C   LIG    1      -37.377  70.960  25.211  0.00  0.00    +0.087 A 
ATOM     13  C   LIG    1      -37.498  72.265  25.740  0.00  0.00    +0.030 A 
ATOM     14  C   LIG    1      -38.520  73.123  25.348  0.00  0.00    +0.014 A 
ATOM     15  C   LIG    1      -39.469  72.704  24.423  0.00  0.00    +0.057 A 
ATOM     16  C   LIG    1      -39.379  71.402  23.917  0.00  0.00    +0.037 A 
BRANCH  12  17
ATOM     17  N   LIG    1      -36.272  70.175  25.680  0.00  0.00    -0.238 N 
ATOM     18  N   LIG    1      -35.055  70.173  25.058  0.00  0.00    -0.175 NA
ATOM     19  C   LIG    1      -34.378  69.187  25.665  0.00  0.00    +0.135 A 
ATOM     20  C   LIG    1      -35.089  68.589  26.713  0.00  0.00    +0.041 A 
ATOM     21  C   LIG    1      -36.271  69.282  26.744  0.00  0.00    +0.114 A 
ENDBRANCH  12  17
BRANCH  15  22
ATOM     22  C   LIG    1      -40.559  73.646  23.989  0.00  0.00    +0.417 C 
ATOM     23  F   LIG    1      -41.440  73.912  24.994  0.00  0.00    -0.166 F 
ATOM     24  F   LIG    1      -41.305  73.132  22.970  0.00  0.00    -0.166 F 
ATOM     25  F   LIG    1      -40.111  74.855  23.553  0.00  0.00    -0.166 F 
ENDBRANCH  15  22
ENDBRANCH   9  11
ENDBRANCH   8   9
BRANCH   8  26
ATOM     26  O   LIG    1      -36.770  69.652  22.146  0.00  0.00    -0.481 OA
ATOM     27  H   LIG    1      -36.296  69.307  21.384  0.00  0.00    +0.295 HD
ENDBRANCH   8  26
ENDBRANCH   4   7
BRANCH   1  28
ATOM     28  O   LIG    1      -32.890  65.680  19.356  0.00  0.00    -0.438 OA
BRANCH  28  32
ATOM     29  C   LIG    1      -29.419  68.037  18.663  0.00  0.00    -0.014 A 
ATOM     30  C   LIG    1      -30.724  68.477  18.378  0.00  0.00    +0.012 A 
ATOM     31  C   LIG    1      -31.854  67.671  18.628  0.00  0.00    +0.047 A 
ATOM     32  C   LIG    1      -31.718  66.379  19.143  0.00  0.00    +0.130 A 
ATOM     33  C   LIG    1      -30.425  65.910  19.349  0.00  0.00    +0.047 A 
ATOM     34  C   LIG    1      -29.310  66.726  19.149  0.00  0.00    +0.012 A 
BRANCH  29  36
ATOM     35  C   LIG    1      -27.636  69.742  19.400  0.00  0.00    +0.124 A 
ATOM     36  C   LIG    1      -28.193  68.859  18.453  0.00  0.00    +0.023 A 
ATOM     37  C   LIG    1      -27.492  68.762  17.229  0.00  0.00    +0.033 A 
ATOM     38  C   LIG    1      -26.331  69.491  17.001  0.00  0.00    +0.060 A 
ATOM     39 CL   LIG    1      -25.485  69.350  15.515  0.00  0.00    -0.082 Cl
ATOM     40  C   LIG    1      -25.887  70.328  17.999  0.00  0.00    +0.133 A 
ATOM     41  N   LIG    1      -26.516  70.471  19.185  0.00  0.00    -0.239 NA
BRANCH  35  42
ATOM     42  N   LIG    1      -28.167  69.944  20.671  0.00  0.00    -0.343 N 
ATOM     43  H   LIG    1      -28.690  69.128  20.972  0.00  0.00    +0.144 HD
ATOM     44  H   LIG    1      -27.370  70.115  21.281  0.00  0.00    +0.144 HD
ENDBRANCH  35  42
ENDBRANCH  29  36
ENDBRANCH  28  32
ENDBRANCH   1  28
TORSDOF 10
ENDMDL
MODEL 2
REMARK VINA RESULT:      -6.8      2.455      3.930
REMARK  Name = pdb/CHEMBL3894183.pdb
REMARK                            x       y       z     vdW  Elec       q    Type
REMARK                         _______ _______ _______ _____ _____    ______ ____
ROOT
ATOM      1  C   LIG    1      -36.327  67.099  20.472  0.00  0.00    +0.221 A 
ATOM      2  N   LIG    1      -36.276  66.819  21.784  0.00  0.00    -0.219 NA
ATOM      3  C   LIG    1      -37.044  67.562  22.619  0.00  0.00    +0.142 A 
ATOM      4  C   LIG    1      -37.794  68.670  22.251  0.00  0.00    +0.087 A 
ATOM      5  C   LIG    1      -37.801  68.951  20.882  0.00  0.00    +0.034 A 
ATOM      6  C   LIG    1      -37.052  68.170  19.979  0.00  0.00    +0.070 A 
ENDROOT
BRANCH   4   7
ATOM      7  N   LIG    1      -38.561  69.465  23.141  0.00  0.00    -0.198 NA
ATOM      8  C   LIG    1      -38.061  70.408  23.858  0.00  0.00    +0.285 C 
BRANCH   8   9
ATOM      9  N   LIG    1      -38.688  71.255  24.759  0.00  0.00    -0.267 N 
ATOM     10  H   LIG    1      -38.637  71.038  25.753  0.00  0.00    +0.157 HD
BRANCH   9  11
ATOM     11  C   LIG    1      -39.166  72.564  24.516  0.00  0.00    +0.061 A 
ATOM     12  C   LIG    1      -40.448  72.850  23.969  0.00  0.00    +0.087 A 
ATOM     13  C   LIG    1      -40.820  74.198  23.766  0.00  0.00    +0.030 A 
ATOM     14  C   LIG    1      -39.980  75.250  24.117  0.00  0.00    +0.014 A 
ATOM     15  C   LIG    1      -38.730  74.993  24.669  0.00  0.00    +0.057 A 
ATOM     16  C   LIG    1      -38.338  73.661  24.843  0.00  0.00    +0.037 A 
BRANCH  12  17
ATOM     17  N   LIG    1      -41.406  71.853  23.583  0.00  0.00    -0.238 N 
ATOM     18  N   LIG    1      -41.754  70.813  24.399  0.00  0.00    -0.175 NA
ATOM     19  C   LIG    1      -42.499  70.018  23.617  0.00  0.00    +0.135 A 
ATOM     20  C   LIG    1      -42.708  70.540  22.334  0.00  0.00    +0.041 A 
ATOM     21  C   LIG    1      -42.053  71.743  22.359  0.00  0.00    +0.114 A 
ENDBRANCH  12  17
BRANCH  15  22
ATOM     22  C   LIG    1      -37.837  76.138  25.065  0.00  0.00    +0.417 C 
ATOM     23  F   LIG    1      -36.861  75.750  25.934  0.00  0.00    -0.166 F 
ATOM     24  F   LIG    1      -38.524  77.129  25.700  0.00  0.00    -0.166 F 
ATOM     25  F   LIG    1      -37.197  76.734  24.022  0.00  0.00    -0.166 F 
ENDBRANCH  15  22
ENDBRANCH   9  11
ENDBRANCH   8   9
BRANCH   8  26
ATOM     26  O   LIG    1      -36.748  70.717  23.794  0.00  0.00    -0.481 OA
ATOM     27  H   LIG    1      -36.582  71.520  23.291  0.00  0.00    +0.295 HD
ENDBRANCH   8  26
ENDBRANCH   4   7
BRANCH   1  28
ATOM     28  O   LIG    1      -35.643  66.305  19.552  0.00  0.00    -0.438 OA
BRANCH  28  32
ATOM     29  C   LIG    1      -31.576  67.063  18.569  0.00  0.00    -0.014 A 
ATOM     30  C   LIG    1      -32.650  67.382  17.720  0.00  0.00    +0.012 A 
ATOM     31  C   LIG    1      -33.989  67.123  18.082  0.00  0.00    +0.047 A 
ATOM     32  C   LIG    1      -34.300  66.504  19.295  0.00  0.00    +0.130 A 
ATOM     33  C   LIG    1      -33.236  66.113  20.100  0.00  0.00    +0.047 A 
ATOM     34  C   LIG    1      -31.915  66.414  19.765  0.00  0.00    +0.012 A 
BRANCH  29  36
ATOM     35  C   LIG    1      -29.492  68.573  18.486  0.00  0.00    +0.124 A 
ATOM     36  C   LIG    1      -30.147  67.346  18.254  0.00  0.00    +0.023 A 
ATOM     37  C   LIG    1      -29.342  66.327  17.694  0.00  0.00    +0.033 A 
ATOM     38  C   LIG    1      -27.999  66.540  17.408  0.00  0.00    +0.060 A 
ATOM     39 CL   LIG    1      -27.035  65.287  16.742  0.00  0.00    -0.082 Cl
ATOM     40  C   LIG    1      -27.472  67.783  17.671  0.00  0.00    +0.133 A 
ATOM     41  N   LIG    1      -28.190  68.800  18.197  0.00  0.00    -0.239 NA
BRANCH  35  42
ATOM     42  N   LIG    1      -30.111  69.680  19.060  0.00  0.00    -0.343 N 
ATOM     43  H   LIG    1      -30.049  70.483  18.442  0.00  0.00    +0.144 HD
ATOM     44  H   LIG    1      -31.079  69.409  19.214  0.00  0.00    +0.144 HD
ENDBRANCH  35  42
ENDBRANCH  29  36
ENDBRANCH  28  32
ENDBRANCH   1  28
TORSDOF 10
ENDMDL
MODEL 3
REMARK VINA RESULT:      -6.6     14.325     16.287
REMARK  Name = pdb/CHEMBL3894183.pdb
REMARK                            x       y       z     vdW  Elec       q    Type
REMARK                         _______ _______ _______ _____ _____    ______ ____
ROOT
ATOM      1  C   LIG    1      -25.469  71.749  30.615  0.00  0.00    +0.221 A 
ATOM      2  N   LIG    1      -26.516  72.346  31.207  0.00  0.00    -0.219 NA
ATOM      3  C   LIG    1      -26.330  73.589  31.716  0.00  0.00    +0.142 A 
ATOM      4  C   LIG    1      -25.116  74.258  31.783  0.00  0.00    +0.087 A 
ATOM      5  C   LIG    1      -24.042  73.596  31.183  0.00  0.00    +0.034 A 
ATOM      6  C   LIG    1      -24.209  72.322  30.603  0.00  0.00    +0.070 A 
ENDROOT
BRANCH   4   7
ATOM      7  N   LIG    1      -24.926  75.543  32.354  0.00  0.00    -0.198 NA
ATOM      8  C   LIG    1      -24.957  76.632  31.671  0.00  0.00    +0.285 C 
BRANCH   8   9
ATOM      9  N   LIG    1      -24.791  77.941  32.095  0.00  0.00    -0.267 N 
ATOM     10  H   LIG    1      -25.565  78.595  31.985  0.00  0.00    +0.157 HD
BRANCH   9  11
ATOM     11  C   LIG    1      -23.772  78.448  32.935  0.00  0.00    +0.061 A 
ATOM     12  C   LIG    1      -22.388  78.163  32.761  0.00  0.00    +0.087 A 
ATOM     13  C   LIG    1      -21.456  78.723  33.665  0.00  0.00    +0.030 A 
ATOM     14  C   LIG    1      -21.853  79.567  34.696  0.00  0.00    +0.014 A 
ATOM     15  C   LIG    1      -23.197  79.872  34.873  0.00  0.00    +0.057 A 
ATOM     16  C   LIG    1      -24.133  79.297  34.005  0.00  0.00    +0.037 A 
BRANCH  12  17
ATOM     17  N   LIG    1      -21.857  77.321  31.728  0.00  0.00    -0.238 N 
ATOM     18  N   LIG    1      -22.075  77.559  30.400  0.00  0.00    -0.175 NA
ATOM     19  C   LIG    1      -21.597  76.467  29.787  0.00  0.00    +0.135 A 
ATOM     20  C   LIG    1      -21.010  75.549  30.668  0.00  0.00    +0.041 A 
ATOM     21  C   LIG    1      -21.131  76.148  31.894  0.00  0.00    +0.114 A 
ENDBRANCH  12  17
BRANCH  15  22
ATOM     22  C   LIG    1      -23.615  80.804  35.979  0.00  0.00    +0.417 C 
ATOM     23  F   LIG    1      -23.089  80.440  37.183  0.00  0.00    -0.166 F 
ATOM     24  F   LIG    1      -24.966  80.817  36.155  0.00  0.00    -0.166 F 
ATOM     25  F   LIG    1      -23.249  82.100  35.785  0.00  0.00    -0.166 F 
ENDBRANCH  15  22
ENDBRANCH   9  11
ENDBRANCH   8   9
BRANCH   8  26
ATOM     26  O   LIG    1      -25.192  76.620  30.340  0.00  0.00    -0.481 OA
ATOM     27  H   LIG    1      -24.749  75.892  29.895  0.00  0.00    +0.295 HD
ENDBRANCH   8  26
ENDBRANCH   4   7
BRANCH   1  28
ATOM     28  O   LIG    1      -25.623  70.517  29.982  0.00  0.00    -0.438 OA
BRANCH  28  32
ATOM     29  C   LIG    1      -22.310  68.254  28.572  0.00  0.00    -0.014 A 
ATOM     30  C   LIG    1      -22.930  68.028  29.814  0.00  0.00    +0.012 A 
ATOM     31  C   LIG    1      -24.033  68.794  30.247  0.00  0.00    +0.047 A 
ATOM     32  C   LIG    1      -24.536  69.837  29.466  0.00  0.00    +0.130 A 
ATOM     33  C   LIG    1      -23.874  70.116  28.275  0.00  0.00    +0.047 A 
ATOM     34  C   LIG    1      -22.815  69.327  27.824  0.00  0.00    +0.012 A 
BRANCH  29  36
ATOM     35  C   LIG    1      -21.248  66.505  27.009  0.00  0.00    +0.124 A 
ATOM     36  C   LIG    1      -21.166  67.453  28.049  0.00  0.00    +0.023 A 
ATOM     37  C   LIG    1      -19.877  67.640  28.598  0.00  0.00    +0.033 A 
ATOM     38  C   LIG    1      -18.778  66.934  28.123  0.00  0.00    +0.060 A 
ATOM     39 CL   LIG    1      -17.219  67.184  28.792  0.00  0.00    -0.082 Cl
ATOM     40  C   LIG    1      -18.983  66.028  27.108  0.00  0.00    +0.133 A 
ATOM     41  N   LIG    1      -20.190  65.796  26.548  0.00  0.00    -0.239 NA
BRANCH  35  42
ATOM     42  N   LIG    1      -22.424  66.209  26.326  0.00  0.00    -0.343 N 
ATOM     43  H   LIG    1      -22.329  65.338  25.813  0.00  0.00    +0.144 HD
ATOM     44  H   LIG    1      -23.148  66.138  27.038  0.00  0.00    +0.144 HD
ENDBRANCH  35  42
ENDBRANCH  29  36
ENDBRANCH  28  32
ENDBRANCH   1  28
TORSDOF 10
ENDMDL
MODEL 4
REMARK VINA RESULT:      -6.6      2.298      3.592
REMARK  Name = pdb/CHEMBL3894183.pdb
REMARK                            x       y       z     vdW  Elec       q    Type
REMARK                         _______ _______ _______ _____ _____    ______ ____
ROOT
ATOM      1  C   LIG    1      -36.294  67.157  20.913  0.00  0.00    +0.221 A 
ATOM      2  N   LIG    1      -36.140  67.094  22.245  0.00  0.00    -0.219 NA
ATOM      3  C   LIG    1      -36.894  67.924  23.008  0.00  0.00    +0.142 A 
ATOM      4  C   LIG    1      -37.730  68.922  22.529  0.00  0.00    +0.087 A 
ATOM      5  C   LIG    1      -37.845  68.978  21.138  0.00  0.00    +0.034 A 
ATOM      6  C   LIG    1      -37.112  68.100  20.314  0.00  0.00    +0.070 A 
ENDROOT
BRANCH   4   7
ATOM      7  N   LIG    1      -38.483  69.811  23.338  0.00  0.00    -0.198 NA
ATOM      8  C   LIG    1      -37.970  70.823  23.943  0.00  0.00    +0.285 C 
BRANCH   8   9
ATOM      9  N   LIG    1      -38.582  71.764  24.756  0.00  0.00    -0.267 N 
ATOM     10  H   LIG    1      -38.204  71.927  25.688  0.00  0.00    +0.157 HD
BRANCH   9  11
ATOM     11  C   LIG    1      -39.509  72.759  24.369  0.00  0.00    +0.061 A 
ATOM     12  C   LIG    1      -39.362  74.141  24.674  0.00  0.00    +0.087 A 
ATOM     13  C   LIG    1      -40.355  75.048  24.237  0.00  0.00    +0.030 A 
ATOM     14  C   LIG    1      -41.452  74.629  23.492  0.00  0.00    +0.014 A 
ATOM     15  C   LIG    1      -41.606  73.286  23.168  0.00  0.00    +0.057 A 
ATOM     16  C   LIG    1      -40.647  72.374  23.623  0.00  0.00    +0.037 A 
BRANCH  12  17
ATOM     17  N   LIG    1      -38.269  74.694  25.421  0.00  0.00    -0.238 N 
ATOM     18  N   LIG    1      -37.823  74.144  26.590  0.00  0.00    -0.175 NA
ATOM     19  C   LIG    1      -36.950  75.044  27.065  0.00  0.00    +0.135 A 
ATOM     20  C   LIG    1      -36.757  76.135  26.208  0.00  0.00    +0.041 A 
ATOM     21  C   LIG    1      -37.562  75.856  25.135  0.00  0.00    +0.114 A 
ENDBRANCH  12  17
BRANCH  15  22
ATOM     22  C   LIG    1      -42.785  72.845  22.343  0.00  0.00    +0.417 C 
ATOM     23  F   LIG    1      -42.434  71.936  21.390  0.00  0.00    -0.166 F 
ATOM     24  F   LIG    1      -43.356  73.883  21.670  0.00  0.00    -0.166 F 
ATOM     25  F   LIG    1      -43.786  72.269  23.062  0.00  0.00    -0.166 F 
ENDBRANCH  15  22
ENDBRANCH   9  11
ENDBRANCH   8   9
BRANCH   8  26
ATOM     26  O   LIG    1      -36.656  71.117  23.830  0.00  0.00    -0.481 OA
ATOM     27  H   LIG    1      -36.092  70.375  24.064  0.00  0.00    +0.295 HD
ENDBRANCH   8  26
ENDBRANCH   4   7
BRANCH   1  28
ATOM     28  O   LIG    1      -35.627  66.260  20.080  0.00  0.00    -0.438 OA
BRANCH  28  32
ATOM     29  C   LIG    1      -31.785  67.186  18.510  0.00  0.00    -0.014 A 
ATOM     30  C   LIG    1      -32.982  67.395  17.802  0.00  0.00    +0.012 A 
ATOM     31  C   LIG    1      -34.241  67.083  18.358  0.00  0.00    +0.047 A 
ATOM     32  C   LIG    1      -34.346  66.518  19.631  0.00  0.00    +0.130 A 
ATOM     33  C   LIG    1      -33.161  66.235  20.301  0.00  0.00    +0.047 A 
ATOM     34  C   LIG    1      -31.919  66.589  19.772  0.00  0.00    +0.012 A 
BRANCH  29  36
ATOM     35  C   LIG    1      -29.732  68.721  18.268  0.00  0.00    +0.124 A 
ATOM     36  C   LIG    1      -30.432  67.530  17.988  0.00  0.00    +0.023 A 
ATOM     37  C   LIG    1      -29.752  66.610  17.157  0.00  0.00    +0.033 A 
ATOM     38  C   LIG    1      -28.479  66.879  16.668  0.00  0.00    +0.060 A 
ATOM     39 CL   LIG    1      -27.664  65.744  15.673  0.00  0.00    -0.082 Cl
ATOM     40  C   LIG    1      -27.900  68.081  17.004  0.00  0.00    +0.133 A 
ATOM     41  N   LIG    1      -28.500  69.005  17.785  0.00  0.00    -0.239 NA
BRANCH  35  42
ATOM     42  N   LIG    1      -30.226  69.729  19.091  0.00  0.00    -0.343 N 
ATOM     43  H   LIG    1      -29.791  69.685  20.008  0.00  0.00    +0.144 HD
ATOM     44  H   LIG    1      -30.005  70.605  18.622  0.00  0.00    +0.144 HD
ENDBRANCH  35  42
ENDBRANCH  29  36
ENDBRANCH  28  32
ENDBRANCH   1  28
TORSDOF 10
ENDMDL
MODEL 5
REMARK VINA RESULT:      -6.5     22.117     24.607
REMARK  Name = pdb/CHEMBL3894183.pdb
REMARK                            x       y       z     vdW  Elec       q    Type
REMARK                         _______ _______ _______ _____ _____    ______ ____
ROOT
ATOM      1  C   LIG    1      -33.375  89.869  28.629  0.00  0.00    +0.221 A 
ATOM      2  N   LIG    1      -32.521  90.900  28.726  0.00  0.00    -0.219 NA
ATOM      3  C   LIG    1      -32.654  91.915  27.837  0.00  0.00    +0.142 A 
ATOM      4  C   LIG    1      -33.525  91.932  26.756  0.00  0.00    +0.087 A 
ATOM      5  C   LIG    1      -34.379  90.830  26.670  0.00  0.00    +0.034 A 
ATOM      6  C   LIG    1      -34.301  89.777  27.603  0.00  0.00    +0.070 A 
ENDROOT
BRANCH   4   7
ATOM      7  N   LIG    1      -33.627  92.984  25.810  0.00  0.00    -0.198 NA
ATOM      8  C   LIG    1      -32.842  93.103  24.798  0.00  0.00    +0.285 C 
BRANCH   8   9
ATOM      9  N   LIG    1      -32.829  94.070  23.805  0.00  0.00    -0.267 N 
ATOM     10  H   LIG    1      -33.002  95.040  24.063  0.00  0.00    +0.157 HD
BRANCH   9  11
ATOM     11  C   LIG    1      -32.321  93.943  22.491  0.00  0.00    +0.061 A 
ATOM     12  C   LIG    1      -31.077  94.488  22.066  0.00  0.00    +0.087 A 
ATOM     13  C   LIG    1      -30.671  94.301  20.726  0.00  0.00    +0.030 A 
ATOM     14  C   LIG    1      -31.437  93.573  19.823  0.00  0.00    +0.014 A 
ATOM     15  C   LIG    1      -32.648  93.017  20.221  0.00  0.00    +0.057 A 
ATOM     16  C   LIG    1      -33.076  93.223  21.537  0.00  0.00    +0.037 A 
BRANCH  12  17
ATOM     17  N   LIG    1      -30.194  95.243  22.908  0.00  0.00    -0.238 N 
ATOM     18  N   LIG    1      -30.113  95.043  24.257  0.00  0.00    -0.175 NA
ATOM     19  C   LIG    1      -29.347  96.053  24.694  0.00  0.00    +0.135 A 
ATOM     20  C   LIG    1      -28.866  96.870  23.663  0.00  0.00    +0.041 A 
ATOM     21  C   LIG    1      -29.369  96.294  22.526  0.00  0.00    +0.114 A 
ENDBRANCH  12  17
BRANCH  15  22
ATOM     22  C   LIG    1      -33.461  92.212  19.243  0.00  0.00    +0.417 C 
ATOM     23  F   LIG    1      -33.985  91.091  19.812  0.00  0.00    -0.166 F 
ATOM     24  F   LIG    1      -32.712  91.777  18.190  0.00  0.00    -0.166 F 
ATOM     25  F   LIG    1      -34.512  92.886  18.702  0.00  0.00    -0.166 F 
ENDBRANCH  15  22
ENDBRANCH   9  11
ENDBRANCH   8   9
BRANCH   8  26
ATOM     26  O   LIG    1      -31.861  92.206  24.561  0.00  0.00    -0.481 OA
ATOM     27  H   LIG    1      -31.269  92.485  23.856  0.00  0.00    +0.295 HD
ENDBRANCH   8  26
ENDBRANCH   4   7
BRANCH   1  28
ATOM     28  O   LIG    1      -33.358  88.844  29.575  0.00  0.00    -0.438 OA
BRANCH  28  32
ATOM     29  C   LIG    1      -30.329  88.520  32.541  0.00  0.00    -0.014 A 
ATOM     30  C   LIG    1      -31.602  89.061  32.791  0.00  0.00    +0.012 A 
ATOM     31  C   LIG    1      -32.587  89.146  31.784  0.00  0.00    +0.047 A 
ATOM     32  C   LIG    1      -32.321  88.723  30.479  0.00  0.00    +0.130 A 
ATOM     33  C   LIG    1      -31.036  88.264  30.209  0.00  0.00    +0.047 A 
ATOM     34  C   LIG    1      -30.079  88.133  31.217  0.00  0.00    +0.012 A 
BRANCH  29  36
ATOM     35  C   LIG    1      -28.579  89.437  34.193  0.00  0.00    +0.124 A 
ATOM     36  C   LIG    1      -29.264  88.372  33.574  0.00  0.00    +0.023 A 
ATOM     37  C   LIG    1      -28.892  87.079  34.010  0.00  0.00    +0.033 A 
ATOM     38  C   LIG    1      -27.923  86.896  34.989  0.00  0.00    +0.060 A 
ATOM     39 CL   LIG    1      -27.495  85.321  35.516  0.00  0.00    -0.082 Cl
ATOM     40  C   LIG    1      -27.317  88.014  35.515  0.00  0.00    +0.133 A 
ATOM     41  N   LIG    1      -27.621  89.274  35.134  0.00  0.00    -0.239 NA
BRANCH  35  42
ATOM     42  N   LIG    1      -28.831  90.779  33.917  0.00  0.00    -0.343 N 
ATOM     43  H   LIG    1      -28.087  91.363  34.284  0.00  0.00    +0.144 HD
ATOM     44  H   LIG    1      -28.888  90.848  32.903  0.00  0.00    +0.144 HD
ENDBRANCH  35  42
ENDBRANCH  29  36
ENDBRANCH  28  32
ENDBRANCH   1  28
TORSDOF 10
ENDMDL
MODEL 6
REMARK VINA RESULT:      -6.5     21.909     24.664
REMARK  Name = pdb/CHEMBL3894183.pdb
REMARK                            x       y       z     vdW  Elec       q    Type
REMARK                         _______ _______ _______ _____ _____    ______ ____
ROOT
ATOM      1  C   LIG    1      -33.393  89.790  28.615  0.00  0.00    +0.221 A 
ATOM      2  N   LIG    1      -32.520  90.805  28.713  0.00  0.00    -0.219 NA
ATOM      3  C   LIG    1      -32.642  91.829  27.833  0.00  0.00    +0.142 A 
ATOM      4  C   LIG    1      -33.520  91.869  26.759  0.00  0.00    +0.087 A 
ATOM      5  C   LIG    1      -34.394  90.782  26.670  0.00  0.00    +0.034 A 
ATOM      6  C   LIG    1      -34.327  89.721  27.596  0.00  0.00    +0.070 A 
ENDROOT
BRANCH   4   7
ATOM      7  N   LIG    1      -33.611  92.929  25.821  0.00  0.00    -0.198 NA
ATOM      8  C   LIG    1      -32.802  93.068  24.830  0.00  0.00    +0.285 C 
BRANCH   8   9
ATOM      9  N   LIG    1      -32.775  94.046  23.847  0.00  0.00    -0.267 N 
ATOM     10  H   LIG    1      -32.866  95.022  24.124  0.00  0.00    +0.157 HD
BRANCH   9  11
ATOM     11  C   LIG    1      -32.350  93.902  22.506  0.00  0.00    +0.061 A 
ATOM     12  C   LIG    1      -31.131  94.435  22.001  0.00  0.00    +0.087 A 
ATOM     13  C   LIG    1      -30.808  94.231  20.640  0.00  0.00    +0.030 A 
ATOM     14  C   LIG    1      -31.633  93.499  19.793  0.00  0.00    +0.014 A 
ATOM     15  C   LIG    1      -32.820  92.955  20.271  0.00  0.00    +0.057 A 
ATOM     16  C   LIG    1      -33.166  93.177  21.608  0.00  0.00    +0.037 A 
BRANCH  12  17
ATOM     17  N   LIG    1      -30.194  95.193  22.778  0.00  0.00    -0.238 N 
ATOM     18  N   LIG    1      -30.069  95.044  24.131  0.00  0.00    -0.175 NA
ATOM     19  C   LIG    1      -29.255  96.044  24.499  0.00  0.00    +0.135 A 
ATOM     20  C   LIG    1      -28.788  96.804  23.419  0.00  0.00    +0.041 A 
ATOM     21  C   LIG    1      -29.350  96.199  22.325  0.00  0.00    +0.114 A 
ENDBRANCH  12  17
BRANCH  15  22
ATOM     22  C   LIG    1      -33.696  92.145  19.353  0.00  0.00    +0.417 C 
ATOM     23  F   LIG    1      -34.485  92.933  18.569  0.00  0.00    -0.166 F 
ATOM     24  F   LIG    1      -34.549  91.336  20.041  0.00  0.00    -0.166 F 
ATOM     25  F   LIG    1      -33.012  91.333  18.502  0.00  0.00    -0.166 F 
ENDBRANCH  15  22
ENDBRANCH   9  11
ENDBRANCH   8   9
BRANCH   8  26
ATOM     26  O   LIG    1      -31.804  92.185  24.609  0.00  0.00    -0.481 OA
ATOM     27  H   LIG    1      -32.115  91.374  24.197  0.00  0.00    +0.295 HD
ENDBRANCH   8  26
ENDBRANCH   4   7
BRANCH   1  28
ATOM     28  O   LIG    1      -33.387  88.759  29.554  0.00  0.00    -0.438 OA
BRANCH  28  32
ATOM     29  C   LIG    1      -30.362  88.619  32.539  0.00  0.00    -0.014 A 
ATOM     30  C   LIG    1      -30.176  88.151  31.226  0.00  0.00    +0.012 A 
ATOM     31  C   LIG    1      -31.201  88.220  30.258  0.00  0.00    +0.047 A 
ATOM     32  C   LIG    1      -32.461  88.730  30.579  0.00  0.00    +0.130 A 
ATOM     33  C   LIG    1      -32.674  89.117  31.898  0.00  0.00    +0.047 A 
ATOM     34  C   LIG    1      -31.646  89.095  32.842  0.00  0.00    +0.012 A 
BRANCH  29  36
ATOM     35  C   LIG    1      -28.756  87.443  34.173  0.00  0.00    +0.124 A 
ATOM     36  C   LIG    1      -29.306  88.604  33.591  0.00  0.00    +0.023 A 
ATOM     37  C   LIG    1      -28.772  89.827  34.059  0.00  0.00    +0.033 A 
ATOM     38  C   LIG    1      -27.768  89.858  35.019  0.00  0.00    +0.060 A 
ATOM     39 CL   LIG    1      -27.122  91.351  35.564  0.00  0.00    -0.082 Cl
ATOM     40  C   LIG    1      -27.316  88.659  35.520  0.00  0.00    +0.133 A 
ATOM     41  N   LIG    1      -27.792  87.459  35.123  0.00  0.00    -0.239 NA
BRANCH  35  42
ATOM     42  N   LIG    1      -29.132  86.151  33.818  0.00  0.00    -0.343 N 
ATOM     43  H   LIG    1      -29.748  86.168  33.011  0.00  0.00    +0.144 HD
ATOM     44  H   LIG    1      -28.267  85.657  33.609  0.00  0.00    +0.144 HD
ENDBRANCH  35  42
ENDBRANCH  29  36
ENDBRANCH  28  32
ENDBRANCH   1  28
TORSDOF 10
ENDMDL
MODEL 7
REMARK VINA RESULT:      -6.5     15.409     17.369
REMARK  Name = pdb/CHEMBL3894183.pdb
REMARK                            x       y       z     vdW  Elec       q    Type
REMARK                         _______ _______ _______ _____ _____    ______ ____
ROOT
ATOM      1  C   LIG    1      -23.430  77.121  31.904  0.00  0.00    +0.221 A 
ATOM      2  N   LIG    1      -24.019  76.096  32.540  0.00  0.00    -0.219 NA
ATOM      3  C   LIG    1      -25.323  75.847  32.264  0.00  0.00    +0.142 A 
ATOM      4  C   LIG    1      -26.142  76.633  31.466  0.00  0.00    +0.087 A 
ATOM      5  C   LIG    1      -25.503  77.708  30.843  0.00  0.00    +0.034 A 
ATOM      6  C   LIG    1      -24.137  77.970  31.070  0.00  0.00    +0.070 A 
ENDROOT
BRANCH   4   7
ATOM      7  N   LIG    1      -27.516  76.384  31.216  0.00  0.00    -0.198 NA
ATOM      8  C   LIG    1      -28.460  76.793  31.987  0.00  0.00    +0.285 C 
BRANCH   8   9
ATOM      9  N   LIG    1      -29.831  76.624  31.865  0.00  0.00    -0.267 N 
ATOM     10  H   LIG    1      -30.448  77.362  32.200  0.00  0.00    +0.157 HD
BRANCH   9  11
ATOM     11  C   LIG    1      -30.510  75.672  31.069  0.00  0.00    +0.061 A 
ATOM     12  C   LIG    1      -30.357  74.265  31.216  0.00  0.00    +0.087 A 
ATOM     13  C   LIG    1      -31.086  73.406  30.361  0.00  0.00    +0.030 A 
ATOM     14  C   LIG    1      -31.968  73.899  29.406  0.00  0.00    +0.014 A 
ATOM     15  C   LIG    1      -32.145  75.270  29.258  0.00  0.00    +0.057 A 
ATOM     16  C   LIG    1      -31.404  76.131  30.076  0.00  0.00    +0.037 A 
BRANCH  12  17
ATOM     17  N   LIG    1      -29.491  73.638  32.172  0.00  0.00    -0.238 N 
ATOM     18  N   LIG    1      -29.644  73.801  33.521  0.00  0.00    -0.175 NA
ATOM     19  C   LIG    1      -28.548  73.235  34.046  0.00  0.00    +0.135 A 
ATOM     20  C   LIG    1      -27.714  72.646  33.088  0.00  0.00    +0.041 A 
ATOM     21  C   LIG    1      -28.371  72.860  31.905  0.00  0.00    +0.114 A 
ENDBRANCH  12  17
BRANCH  15  22
ATOM     22  C   LIG    1      -33.118  75.794  28.236  0.00  0.00    +0.417 C 
ATOM     23  F   LIG    1      -33.641  74.797  27.468  0.00  0.00    -0.166 F 
ATOM     24  F   LIG    1      -32.529  76.661  27.366  0.00  0.00    -0.166 F 
ATOM     25  F   LIG    1      -34.180  76.458  28.767  0.00  0.00    -0.166 F 
ENDBRANCH  15  22
ENDBRANCH   9  11
ENDBRANCH   8   9
BRANCH   8  26
ATOM     26  O   LIG    1      -28.196  77.515  33.098  0.00  0.00    -0.481 OA
ATOM     27  H   LIG    1      -27.643  77.038  33.724  0.00  0.00    +0.295 HD
ENDBRANCH   8  26
ENDBRANCH   4   7
BRANCH   1  28
ATOM     28  O   LIG    1      -22.067  77.365  32.066  0.00  0.00    -0.438 OA
BRANCH  28  32
ATOM     29  C   LIG    1      -20.859  79.911  35.250  0.00  0.00    -0.014 A 
ATOM     30  C   LIG    1      -22.192  79.519  35.035  0.00  0.00    +0.012 A 
ATOM     31  C   LIG    1      -22.556  78.666  33.971  0.00  0.00    +0.047 A 
ATOM     32  C   LIG    1      -21.602  78.201  33.063  0.00  0.00    +0.130 A 
ATOM     33  C   LIG    1      -20.297  78.651  33.225  0.00  0.00    +0.047 A 
ATOM     34  C   LIG    1      -19.928  79.455  34.306  0.00  0.00    +0.012 A 
BRANCH  29  36
ATOM     35  C   LIG    1      -20.906  82.071  36.652  0.00  0.00    +0.124 A 
ATOM     36  C   LIG    1      -20.412  80.779  36.377  0.00  0.00    +0.023 A 
ATOM     37  C   LIG    1      -19.430  80.303  37.276  0.00  0.00    +0.033 A 
ATOM     38  C   LIG    1      -19.003  81.068  38.354  0.00  0.00    +0.060 A 
ATOM     39 CL   LIG    1      -17.821  80.468  39.443  0.00  0.00    -0.082 Cl
ATOM     40  C   LIG    1      -19.553  82.319  38.516  0.00  0.00    +0.133 A 
ATOM     41  N   LIG    1      -20.487  82.835  37.687  0.00  0.00    -0.239 NA
BRANCH  35  42
ATOM     42  N   LIG    1      -21.897  82.693  35.898  0.00  0.00    -0.343 N 
ATOM     43  H   LIG    1      -21.484  83.323  35.217  0.00  0.00    +0.144 HD
ATOM     44  H   LIG    1      -22.411  81.943  35.440  0.00  0.00    +0.144 HD
ENDBRANCH  35  42
ENDBRANCH  29  36
ENDBRANCH  28  32
ENDBRANCH   1  28
TORSDOF 10
ENDMDL
MODEL 8
REMARK VINA RESULT:      -6.5     18.415     20.854
REMARK  Name = pdb/CHEMBL3894183.pdb
REMARK                            x       y       z     vdW  Elec       q    Type
REMARK                         _______ _______ _______ _____ _____    ______ ____
ROOT
ATOM      1  C   LIG    1      -26.075  81.640  37.059  0.00  0.00    +0.221 A 
ATOM      2  N   LIG    1      -27.395  81.440  37.199  0.00  0.00    -0.219 NA
ATOM      3  C   LIG    1      -28.216  82.508  37.045  0.00  0.00    +0.142 A 
ATOM      4  C   LIG    1      -27.804  83.822  36.871  0.00  0.00    +0.087 A 
ATOM      5  C   LIG    1      -26.423  83.998  36.759  0.00  0.00    +0.034 A 
ATOM      6  C   LIG    1      -25.541  82.903  36.867  0.00  0.00    +0.070 A 
ENDROOT
BRANCH   4   7
ATOM      7  N   LIG    1      -28.673  84.937  36.752  0.00  0.00    -0.198 NA
ATOM      8  C   LIG    1      -29.171  85.329  35.632  0.00  0.00    +0.285 C 
BRANCH   8   9
ATOM      9  N   LIG    1      -30.025  86.390  35.373  0.00  0.00    -0.267 N 
ATOM     10  H   LIG    1      -30.873  86.484  35.930  0.00  0.00    +0.157 HD
BRANCH   9  11
ATOM     11  C   LIG    1      -29.744  87.551  34.616  0.00  0.00    +0.061 A 
ATOM     12  C   LIG    1      -30.141  87.727  33.260  0.00  0.00    +0.087 A 
ATOM     13  C   LIG    1      -29.803  88.930  32.600  0.00  0.00    +0.030 A 
ATOM     14  C   LIG    1      -29.123  89.955  33.247  0.00  0.00    +0.014 A 
ATOM     15  C   LIG    1      -28.741  89.811  34.576  0.00  0.00    +0.057 A 
ATOM     16  C   LIG    1      -29.041  88.611  35.231  0.00  0.00    +0.037 A 
BRANCH  12  17
ATOM     17  N   LIG    1      -30.858  86.750  32.492  0.00  0.00    -0.238 N 
ATOM     18  N   LIG    1      -31.588  85.749  33.071  0.00  0.00    -0.175 NA
ATOM     19  C   LIG    1      -31.926  84.954  32.047  0.00  0.00    +0.135 A 
ATOM     20  C   LIG    1      -31.499  85.439  30.804  0.00  0.00    +0.041 A 
ATOM     21  C   LIG    1      -30.876  86.620  31.109  0.00  0.00    +0.114 A 
ENDBRANCH  12  17
BRANCH  15  22
ATOM     22  C   LIG    1      -28.024  90.934  35.276  0.00  0.00    +0.417 C 
ATOM     23  F   LIG    1      -28.110  90.832  36.632  0.00  0.00    -0.166 F 
ATOM     24  F   LIG    1      -28.551  92.152  34.963  0.00  0.00    -0.166 F 
ATOM     25  F   LIG    1      -26.697  91.015  34.988  0.00  0.00    -0.166 F 
ENDBRANCH  15  22
ENDBRANCH   9  11
ENDBRANCH   8   9
BRANCH   8  26
ATOM     26  O   LIG    1      -28.903  84.679  34.479  0.00  0.00    -0.481 OA
ATOM     27  H   LIG    1      -28.654  85.277  33.769  0.00  0.00    +0.295 HD
ENDBRANCH   8  26
ENDBRANCH   4   7
BRANCH   1  28
ATOM     28  O   LIG    1      -25.187  80.566  37.102  0.00  0.00    -0.438 OA
BRANCH  28  32
ATOM     29  C   LIG    1      -24.206  78.438  33.554  0.00  0.00    -0.014 A 
ATOM     30  C   LIG    1      -25.285  78.096  34.388  0.00  0.00    +0.012 A 
ATOM     31  C   LIG    1      -25.587  78.830  35.555  0.00  0.00    +0.047 A 
ATOM     32  C   LIG    1      -24.797  79.914  35.948  0.00  0.00    +0.130 A 
ATOM     33  C   LIG    1      -23.682  80.203  35.170  0.00  0.00    +0.047 A 
ATOM     34  C   LIG    1      -23.413  79.509  33.989  0.00  0.00    +0.012 A 
BRANCH  29  36
ATOM     35  C   LIG    1      -24.793  77.300  31.319  0.00  0.00    +0.124 A 
ATOM     36  C   LIG    1      -23.864  77.721  32.292  0.00  0.00    +0.023 A 
ATOM     37  C   LIG    1      -22.510  77.436  31.999  0.00  0.00    +0.033 A 
ATOM     38  C   LIG    1      -22.143  76.793  30.823  0.00  0.00    +0.060 A 
ATOM     39 CL   LIG    1      -20.495  76.468  30.478  0.00  0.00    -0.082 Cl
ATOM     40  C   LIG    1      -23.142  76.422  29.952  0.00  0.00    +0.133 A 
ATOM     41  N   LIG    1      -24.453  76.657  30.178  0.00  0.00    -0.239 NA
BRANCH  35  42
ATOM     42  N   LIG    1      -26.164  77.521  31.418  0.00  0.00    -0.343 N 
ATOM     43  H   LIG    1      -26.355  78.316  32.020  0.00  0.00    +0.144 HD
ATOM     44  H   LIG    1      -26.487  77.694  30.468  0.00  0.00    +0.144 HD
ENDBRANCH  35  42
ENDBRANCH  29  36
ENDBRANCH  28  32
ENDBRANCH   1  28
TORSDOF 10
ENDMDL
MODEL 9
REMARK VINA RESULT:      -6.5     15.116     19.206
REMARK  Name = pdb/CHEMBL3894183.pdb
REMARK                            x       y       z     vdW  Elec       q    Type
REMARK                         _______ _______ _______ _____ _____    ______ ____
ROOT
ATOM      1  C   LIG    1      -25.572  77.723  13.856  0.00  0.00    +0.221 A 
ATOM      2  N   LIG    1      -26.066  78.304  14.961  0.00  0.00    -0.219 NA
ATOM      3  C   LIG    1      -25.392  79.364  15.472  0.00  0.00    +0.142 A 
ATOM      4  C   LIG    1      -24.166  79.832  15.022  0.00  0.00    +0.087 A 
ATOM      5  C   LIG    1      -23.668  79.186  13.888  0.00  0.00    +0.034 A 
ATOM      6  C   LIG    1      -24.364  78.111  13.301  0.00  0.00    +0.070 A 
ENDROOT
BRANCH   4   7
ATOM      7  N   LIG    1      -23.451  80.918  15.591  0.00  0.00    -0.198 NA
ATOM      8  C   LIG    1      -23.577  82.134  15.192  0.00  0.00    +0.285 C 
BRANCH   8   9
ATOM      9  N   LIG    1      -22.948  83.280  15.653  0.00  0.00    -0.267 N 
ATOM     10  H   LIG    1      -22.865  83.423  16.658  0.00  0.00    +0.157 HD
BRANCH   9  11
ATOM     11  C   LIG    1      -22.135  84.170  14.912  0.00  0.00    +0.061 A 
ATOM     12  C   LIG    1      -20.984  83.766  14.179  0.00  0.00    +0.087 A 
ATOM     13  C   LIG    1      -20.245  84.744  13.476  0.00  0.00    +0.030 A 
ATOM     14  C   LIG    1      -20.630  86.080  13.456  0.00  0.00    +0.014 A 
ATOM     15  C   LIG    1      -21.761  86.493  14.152  0.00  0.00    +0.057 A 
ATOM     16  C   LIG    1      -22.483  85.539  14.879  0.00  0.00    +0.037 A 
BRANCH  12  17
ATOM     17  N   LIG    1      -20.498  82.419  14.111  0.00  0.00    -0.238 N 
ATOM     18  N   LIG    1      -20.012  81.755  15.203  0.00  0.00    -0.175 NA
ATOM     19  C   LIG    1      -19.487  80.630  14.698  0.00  0.00    +0.135 A 
ATOM     20  C   LIG    1      -19.674  80.503  13.316  0.00  0.00    +0.041 A 
ATOM     21  C   LIG    1      -20.380  81.627  12.975  0.00  0.00    +0.114 A 
ENDBRANCH  12  17
BRANCH  15  22
ATOM     22  C   LIG    1      -22.182  87.937  14.107  0.00  0.00    +0.417 C 
ATOM     23  F   LIG    1      -23.119  88.169  13.146  0.00  0.00    -0.166 F 
ATOM     24  F   LIG    1      -21.141  88.766  13.816  0.00  0.00    -0.166 F 
ATOM     25  F   LIG    1      -22.715  88.399  15.271  0.00  0.00    -0.166 F 
ENDBRANCH  15  22
ENDBRANCH   9  11
ENDBRANCH   8   9
BRANCH   8  26
ATOM     26  O   LIG    1      -24.427  82.462  14.194  0.00  0.00    -0.481 OA
ATOM     27  H   LIG    1      -24.007  82.995  13.513  0.00  0.00    +0.295 HD
ENDBRANCH   8  26
ENDBRANCH   4   7
BRANCH   1  28
ATOM     28  O   LIG    1      -26.272  76.697  13.222  0.00  0.00    -0.438 OA
BRANCH  28  32
ATOM     29  C   LIG    1      -29.906  77.273  11.090  0.00  0.00    -0.014 A 
ATOM     30  C   LIG    1      -29.533  76.046  11.666  0.00  0.00    +0.012 A 
ATOM     31  C   LIG    1      -28.322  75.893  12.374  0.00  0.00    +0.047 A 
ATOM     32  C   LIG    1      -27.423  76.955  12.502  0.00  0.00    +0.130 A 
ATOM     33  C   LIG    1      -27.751  78.146  11.864  0.00  0.00    +0.047 A 
ATOM     34  C   LIG    1      -28.971  78.312  11.207  0.00  0.00    +0.012 A 
BRANCH  29  36
ATOM     35  C   LIG    1      -32.256  78.293  10.831  0.00  0.00    +0.124 A 
ATOM     36  C   LIG    1      -31.187  77.502  10.363  0.00  0.00    +0.023 A 
ATOM     37  C   LIG    1      -31.381  76.912   9.092  0.00  0.00    +0.033 A 
ATOM     38  C   LIG    1      -32.550  77.119   8.369  0.00  0.00    +0.060 A 
ATOM     39 CL   LIG    1      -32.762  76.408   6.822  0.00  0.00    -0.082 Cl
ATOM     40  C   LIG    1      -33.528  77.906   8.933  0.00  0.00    +0.133 A 
ATOM     41  N   LIG    1      -33.407  78.489  10.146  0.00  0.00    -0.239 NA
BRANCH  35  42
ATOM     42  N   LIG    1      -32.235  78.977  12.043  0.00  0.00    -0.343 N 
ATOM     43  H   LIG    1      -31.721  78.449  12.741  0.00  0.00    +0.144 HD
ATOM     44  H   LIG    1      -31.784  79.869  11.851  0.00  0.00    +0.144 HD
ENDBRANCH  35  42
ENDBRANCH  29  36
ENDBRANCH  28  32
ENDBRANCH   1  28
TORSDOF 10
ENDMDL
