MODEL 1
REMARK VINA RESULT:      -6.2      0.000      0.000
REMARK  Name = pdb/CHEMBL3671133.pdb
REMARK                            x       y       z     vdW  Elec       q    Type
REMARK                         _______ _______ _______ _____ _____    ______ ____
ROOT
ATOM      1  C   LIG    1      -25.642  77.550  32.922  0.00  0.00    +0.100 A 
ATOM      2  C   LIG    1      -25.140  78.309  33.968  0.00  0.00    +0.170 A 
ATOM      3  N   LIG    1      -23.996  79.054  34.108  0.00  0.00    -0.212 NA
ATOM      4  C   LIG    1      -23.737  79.584  35.286  0.00  0.00    +0.126 A 
ATOM      5  C   LIG    1      -24.694  79.447  36.449  0.00  0.00    +0.063 A 
ATOM      6  C   LIG    1      -25.812  78.741  36.248  0.00  0.00    +0.118 A 
ATOM      7  N   LIG    1      -26.053  78.158  35.018  0.00  0.00    -0.221 N 
ATOM      8  N   LIG    1      -27.112  77.394  34.674  0.00  0.00    -0.173 NA
ATOM      9  C   LIG    1      -26.849  77.018  33.424  0.00  0.00    +0.150 A 
ENDROOT
BRANCH   4  10
ATOM     10  N   LIG    1      -22.562  80.296  35.480  0.00  0.00    -0.308 N 
ATOM     11  C   LIG    1      -21.392  79.735  36.181  0.00  0.00    +0.108 C 
ATOM     12  C   LIG    1      -20.944  80.911  37.066  0.00  0.00    +0.029 C 
ATOM     13  C   LIG    1      -21.219  82.125  36.199  0.00  0.00    +0.021 C 
ATOM     14  C   LIG    1      -22.522  81.763  35.502  0.00  0.00    +0.107 C 
BRANCH  11  15
ATOM     15  C   LIG    1      -20.321  79.281  35.200  0.00  0.00    +0.011 A 
ATOM     16  C   LIG    1      -19.125  78.728  35.686  0.00  0.00    +0.129 A 
ATOM     17  F   LIG    1      -18.937  78.603  37.006  0.00  0.00    -0.205 F 
ATOM     18  C   LIG    1      -18.106  78.305  34.832  0.00  0.00    +0.041 A 
ATOM     19  C   LIG    1      -18.271  78.413  33.452  0.00  0.00    +0.041 A 
ATOM     20  C   LIG    1      -19.456  78.937  32.953  0.00  0.00    +0.124 A 
ATOM     21  F   LIG    1      -19.620  79.037  31.626  0.00  0.00    -0.205 F 
ATOM     22  C   LIG    1      -20.473  79.363  33.802  0.00  0.00    +0.046 A 
ENDBRANCH  11  15
ENDBRANCH   4  10
BRANCH   1  25
ATOM     23  N   LIG    1      -23.850  77.827  31.359  0.00  0.00    -0.304 N 
ATOM     24  H   LIG    1      -23.371  78.319  32.109  0.00  0.00    +0.149 HD
ATOM     25  C   LIG    1      -25.092  77.300  31.605  0.00  0.00    +0.250 C 
ATOM     26  O   LIG    1      -25.712  76.653  30.765  0.00  0.00    -0.270 OA
BRANCH  23  27
ATOM     27  C   LIG    1      -23.203  77.600  30.091  0.00  0.00    +0.179 C 
BRANCH  27  32
ATOM     28  C   LIG    1      -20.006  75.092  32.703  0.00  0.00    +0.086 C 
ATOM     29  C   LIG    1      -20.439  75.806  31.486  0.00  0.00    +0.102 A 
ATOM     30  C   LIG    1      -19.833  76.066  30.277  0.00  0.00    +0.045 A 
ATOM     31  C   LIG    1      -20.767  76.804  29.512  0.00  0.00    +0.046 A 
ATOM     32  C   LIG    1      -21.888  76.951  30.302  0.00  0.00    +0.122 A 
ATOM     33  O   LIG    1      -21.692  76.340  31.506  0.00  0.00    -0.463 OA
ENDBRANCH  27  32
ENDBRANCH  23  27
ENDBRANCH   1  25
TORSDOF 5
ENDMDL
MODEL 2
REMARK VINA RESULT:      -6.0      2.448      5.629
REMARK  Name = pdb/CHEMBL3671133.pdb
REMARK                            x       y       z     vdW  Elec       q    Type
REMARK                         _______ _______ _______ _____ _____    ______ ____
ROOT
ATOM      1  C   LIG    1      -20.624  77.183  30.595  0.00  0.00    +0.100 A 
ATOM      2  C   LIG    1      -20.267  77.762  31.802  0.00  0.00    +0.170 A 
ATOM      3  N   LIG    1      -21.002  78.350  32.802  0.00  0.00    -0.212 NA
ATOM      4  C   LIG    1      -20.355  78.919  33.799  0.00  0.00    +0.126 A 
ATOM      5  C   LIG    1      -18.846  78.881  33.895  0.00  0.00    +0.063 A 
ATOM      6  C   LIG    1      -18.182  78.264  32.913  0.00  0.00    +0.118 A 
ATOM      7  N   LIG    1      -18.871  77.703  31.853  0.00  0.00    -0.221 N 
ATOM      8  N   LIG    1      -18.341  77.081  30.777  0.00  0.00    -0.173 NA
ATOM      9  C   LIG    1      -19.397  76.789  30.020  0.00  0.00    +0.150 A 
ENDROOT
BRANCH   4  10
ATOM     10  N   LIG    1      -21.064  79.572  34.798  0.00  0.00    -0.308 N 
ATOM     11  C   LIG    1      -22.531  79.720  34.773  0.00  0.00    +0.108 C 
ATOM     12  C   LIG    1      -22.722  81.179  35.222  0.00  0.00    +0.029 C 
ATOM     13  C   LIG    1      -21.621  81.377  36.246  0.00  0.00    +0.021 C 
ATOM     14  C   LIG    1      -20.456  80.595  35.656  0.00  0.00    +0.107 C 
BRANCH  11  15
ATOM     15  C   LIG    1      -23.207  78.716  35.697  0.00  0.00    +0.011 A 
ATOM     16  C   LIG    1      -24.603  78.737  35.841  0.00  0.00    +0.129 A 
ATOM     17  F   LIG    1      -25.329  79.637  35.165  0.00  0.00    -0.205 F 
ATOM     18  C   LIG    1      -25.273  77.848  36.681  0.00  0.00    +0.041 A 
ATOM     19  C   LIG    1      -24.550  76.892  37.394  0.00  0.00    +0.041 A 
ATOM     20  C   LIG    1      -23.170  76.842  37.247  0.00  0.00    +0.124 A 
ATOM     21  F   LIG    1      -22.471  75.922  37.927  0.00  0.00    -0.205 F 
ATOM     22  C   LIG    1      -22.499  77.731  36.412  0.00  0.00    +0.046 A 
ENDBRANCH  11  15
ENDBRANCH   4  10
BRANCH   1  25
ATOM     23  N   LIG    1      -22.985  77.577  30.666  0.00  0.00    -0.304 N 
ATOM     24  H   LIG    1      -22.794  78.110  31.511  0.00  0.00    +0.149 HD
ATOM     25  C   LIG    1      -21.931  77.011  29.994  0.00  0.00    +0.250 C 
ATOM     26  O   LIG    1      -22.076  76.394  28.942  0.00  0.00    -0.270 OA
BRANCH  23  27
ATOM     27  C   LIG    1      -24.319  77.494  30.128  0.00  0.00    +0.179 C 
BRANCH  27  32
ATOM     28  C   LIG    1      -28.594  76.047  31.847  0.00  0.00    +0.086 C 
ATOM     29  C   LIG    1      -27.233  76.597  31.999  0.00  0.00    +0.102 A 
ATOM     30  C   LIG    1      -26.501  77.019  33.087  0.00  0.00    +0.045 A 
ATOM     31  C   LIG    1      -25.249  77.447  32.585  0.00  0.00    +0.046 A 
ATOM     32  C   LIG    1      -25.293  77.260  31.218  0.00  0.00    +0.122 A 
ATOM     33  O   LIG    1      -26.502  76.739  30.859  0.00  0.00    -0.463 OA
ENDBRANCH  27  32
ENDBRANCH  23  27
ENDBRANCH   1  25
TORSDOF 5
ENDMDL
MODEL 3
REMARK VINA RESULT:      -5.7      2.362      5.200
REMARK  Name = pdb/CHEMBL3671133.pdb
REMARK                            x       y       z     vdW  Elec       q    Type
REMARK                         _______ _______ _______ _____ _____    ______ ____
ROOT
ATOM      1  C   LIG    1      -20.853  77.397  30.905  0.00  0.00    +0.100 A 
ATOM      2  C   LIG    1      -20.669  77.981  32.149  0.00  0.00    +0.170 A 
ATOM      3  N   LIG    1      -21.544  78.508  33.065  0.00  0.00    -0.212 NA
ATOM      4  C   LIG    1      -21.048  79.103  34.131  0.00  0.00    +0.126 A 
ATOM      5  C   LIG    1      -19.560  79.155  34.395  0.00  0.00    +0.063 A 
ATOM      6  C   LIG    1      -18.754  78.594  33.488  0.00  0.00    +0.118 A 
ATOM      7  N   LIG    1      -19.285  78.006  32.354  0.00  0.00    -0.221 N 
ATOM      8  N   LIG    1      -18.603  77.432  31.340  0.00  0.00    -0.173 NA
ATOM      9  C   LIG    1      -19.548  77.086  30.468  0.00  0.00    +0.150 A 
ENDROOT
BRANCH   4  10
ATOM     10  N   LIG    1      -21.902  79.697  35.050  0.00  0.00    -0.308 N 
ATOM     11  C   LIG    1      -21.817  79.446  36.501  0.00  0.00    +0.108 C 
ATOM     12  C   LIG    1      -23.297  79.296  36.895  0.00  0.00    +0.029 C 
ATOM     13  C   LIG    1      -24.000  80.297  36.000  0.00  0.00    +0.021 C 
ATOM     14  C   LIG    1      -23.238  80.181  34.687  0.00  0.00    +0.107 C 
BRANCH  11  15
ATOM     15  C   LIG    1      -21.117  80.588  37.223  0.00  0.00    +0.011 A 
ATOM     16  C   LIG    1      -20.537  80.360  38.481  0.00  0.00    +0.129 A 
ATOM     17  F   LIG    1      -20.601  79.142  39.035  0.00  0.00    -0.205 F 
ATOM     18  C   LIG    1      -19.892  81.373  39.192  0.00  0.00    +0.041 A 
ATOM     19  C   LIG    1      -19.799  82.651  38.643  0.00  0.00    +0.041 A 
ATOM     20  C   LIG    1      -20.348  82.889  37.391  0.00  0.00    +0.124 A 
ATOM     21  F   LIG    1      -20.256  84.116  36.857  0.00  0.00    -0.205 F 
ATOM     22  C   LIG    1      -20.995  81.882  36.681  0.00  0.00    +0.046 A 
ENDBRANCH  11  15
ENDBRANCH   4  10
BRANCH   1  25
ATOM     23  N   LIG    1      -23.237  77.564  30.760  0.00  0.00    -0.304 N 
ATOM     24  H   LIG    1      -23.183  78.043  31.656  0.00  0.00    +0.149 HD
ATOM     25  C   LIG    1      -22.073  77.154  30.162  0.00  0.00    +0.250 C 
ATOM     26  O   LIG    1      -22.053  76.613  29.060  0.00  0.00    -0.270 OA
BRANCH  23  27
ATOM     27  C   LIG    1      -24.498  77.402  30.082  0.00  0.00    +0.179 C 
BRANCH  27  32
ATOM     28  C   LIG    1      -28.711  77.108  32.426  0.00  0.00    +0.086 C 
ATOM     29  C   LIG    1      -27.387  76.590  32.031  0.00  0.00    +0.102 A 
ATOM     30  C   LIG    1      -26.700  75.432  32.323  0.00  0.00    +0.045 A 
ATOM     31  C   LIG    1      -25.463  75.519  31.640  0.00  0.00    +0.046 A 
ATOM     32  C   LIG    1      -25.470  76.726  30.972  0.00  0.00    +0.122 A 
ATOM     33  O   LIG    1      -26.645  77.381  31.207  0.00  0.00    -0.463 OA
ENDBRANCH  27  32
ENDBRANCH  23  27
ENDBRANCH   1  25
TORSDOF 5
ENDMDL
MODEL 4
REMARK VINA RESULT:      -5.7      2.895      5.310
REMARK  Name = pdb/CHEMBL3671133.pdb
REMARK                            x       y       z     vdW  Elec       q    Type
REMARK                         _______ _______ _______ _____ _____    ______ ____
ROOT
ATOM      1  C   LIG    1      -22.709  76.784  30.486  0.00  0.00    +0.100 A 
ATOM      2  C   LIG    1      -21.718  77.180  31.369  0.00  0.00    +0.170 A 
ATOM      3  N   LIG    1      -21.738  77.498  32.705  0.00  0.00    -0.212 NA
ATOM      4  C   LIG    1      -20.630  77.953  33.254  0.00  0.00    +0.126 A 
ATOM      5  C   LIG    1      -19.341  78.068  32.472  0.00  0.00    +0.063 A 
ATOM      6  C   LIG    1      -19.368  77.710  31.184  0.00  0.00    +0.118 A 
ATOM      7  N   LIG    1      -20.546  77.269  30.610  0.00  0.00    -0.221 N 
ATOM      8  N   LIG    1      -20.738  76.907  29.322  0.00  0.00    -0.173 NA
ATOM      9  C   LIG    1      -22.040  76.636  29.253  0.00  0.00    +0.150 A 
ENDROOT
BRANCH   4  10
ATOM     10  N   LIG    1      -20.629  78.338  34.587  0.00  0.00    -0.308 N 
ATOM     11  C   LIG    1      -20.438  79.737  35.017  0.00  0.00    +0.108 C 
ATOM     12  C   LIG    1      -19.480  79.586  36.211  0.00  0.00    +0.029 C 
ATOM     13  C   LIG    1      -19.935  78.295  36.864  0.00  0.00    +0.021 C 
ATOM     14  C   LIG    1      -20.291  77.414  35.675  0.00  0.00    +0.107 C 
BRANCH  11  15
ATOM     15  C   LIG    1      -21.762  80.389  35.390  0.00  0.00    +0.011 A 
ATOM     16  C   LIG    1      -21.776  81.713  35.855  0.00  0.00    +0.129 A 
ATOM     17  F   LIG    1      -20.627  82.393  35.965  0.00  0.00    -0.205 F 
ATOM     18  C   LIG    1      -22.958  82.356  36.220  0.00  0.00    +0.041 A 
ATOM     19  C   LIG    1      -24.174  81.682  36.111  0.00  0.00    +0.041 A 
ATOM     20  C   LIG    1      -24.182  80.379  35.632  0.00  0.00    +0.124 A 
ATOM     21  F   LIG    1      -25.350  79.729  35.521  0.00  0.00    -0.205 F 
ATOM     22  C   LIG    1      -23.003  79.734  35.270  0.00  0.00    +0.046 A 
ENDBRANCH  11  15
ENDBRANCH   4  10
BRANCH   1  25
ATOM     23  N   LIG    1      -24.463  75.858  31.828  0.00  0.00    -0.304 N 
ATOM     24  H   LIG    1      -23.721  75.552  32.453  0.00  0.00    +0.149 HD
ATOM     25  C   LIG    1      -24.126  76.575  30.708  0.00  0.00    +0.250 C 
ATOM     26  O   LIG    1      -24.968  77.019  29.932  0.00  0.00    -0.270 OA
BRANCH  23  27
ATOM     27  C   LIG    1      -25.847  75.631  32.156  0.00  0.00    +0.179 C 
BRANCH  27  32
ATOM     28  C   LIG    1      -24.922  71.189  30.500  0.00  0.00    +0.086 C 
ATOM     29  C   LIG    1      -25.785  72.201  31.138  0.00  0.00    +0.102 A 
ATOM     30  C   LIG    1      -27.067  72.167  31.643  0.00  0.00    +0.045 A 
ATOM     31  C   LIG    1      -27.341  73.469  32.125  0.00  0.00    +0.046 A 
ATOM     32  C   LIG    1      -26.209  74.220  31.885  0.00  0.00    +0.122 A 
ATOM     33  O   LIG    1      -25.257  73.448  31.285  0.00  0.00    -0.463 OA
ENDBRANCH  27  32
ENDBRANCH  23  27
ENDBRANCH   1  25
TORSDOF 5
ENDMDL
MODEL 5
REMARK VINA RESULT:      -5.5     18.483     22.131
REMARK  Name = pdb/CHEMBL3671133.pdb
REMARK                            x       y       z     vdW  Elec       q    Type
REMARK                         _______ _______ _______ _____ _____    ______ ____
ROOT
ATOM      1  C   LIG    1      -38.126  74.696  25.165  0.00  0.00    +0.100 A 
ATOM      2  C   LIG    1      -39.376  74.872  24.592  0.00  0.00    +0.170 A 
ATOM      3  N   LIG    1      -40.417  74.010  24.354  0.00  0.00    -0.212 NA
ATOM      4  C   LIG    1      -41.456  74.458  23.680  0.00  0.00    +0.126 A 
ATOM      5  C   LIG    1      -41.554  75.899  23.229  0.00  0.00    +0.063 A 
ATOM      6  C   LIG    1      -40.527  76.705  23.519  0.00  0.00    +0.118 A 
ATOM      7  N   LIG    1      -39.426  76.213  24.195  0.00  0.00    -0.221 N 
ATOM      8  N   LIG    1      -38.306  76.891  24.528  0.00  0.00    -0.173 NA
ATOM      9  C   LIG    1      -37.526  75.971  25.092  0.00  0.00    +0.150 A 
ENDROOT
BRANCH   4  10
ATOM     10  N   LIG    1      -42.502  73.599  23.371  0.00  0.00    -0.308 N 
ATOM     11  C   LIG    1      -42.629  72.930  22.062  0.00  0.00    +0.108 C 
ATOM     12  C   LIG    1      -44.131  73.078  21.763  0.00  0.00    +0.029 C 
ATOM     13  C   LIG    1      -44.775  72.937  23.128  0.00  0.00    +0.021 C 
ATOM     14  C   LIG    1      -43.803  73.665  24.045  0.00  0.00    +0.107 C 
BRANCH  11  15
ATOM     15  C   LIG    1      -42.172  71.480  22.132  0.00  0.00    +0.011 A 
ATOM     16  C   LIG    1      -42.032  70.740  20.948  0.00  0.00    +0.129 A 
ATOM     17  F   LIG    1      -42.300  71.314  19.767  0.00  0.00    -0.205 F 
ATOM     18  C   LIG    1      -41.626  69.406  20.954  0.00  0.00    +0.041 A 
ATOM     19  C   LIG    1      -41.331  68.778  22.163  0.00  0.00    +0.041 A 
ATOM     20  C   LIG    1      -41.443  69.501  23.343  0.00  0.00    +0.124 A 
ATOM     21  F   LIG    1      -41.156  68.903  24.508  0.00  0.00    -0.205 F 
ATOM     22  C   LIG    1      -41.851  70.832  23.340  0.00  0.00    +0.046 A 
ENDBRANCH  11  15
ENDBRANCH   4  10
BRANCH   1  25
ATOM     23  N   LIG    1      -37.357  72.452  24.842  0.00  0.00    -0.304 N 
ATOM     24  H   LIG    1      -37.639  72.575  23.872  0.00  0.00    +0.149 HD
ATOM     25  C   LIG    1      -37.511  73.504  25.710  0.00  0.00    +0.250 C 
ATOM     26  O   LIG    1      -37.150  73.448  26.882  0.00  0.00    -0.270 OA
BRANCH  23  27
ATOM     27  C   LIG    1      -36.720  71.236  25.279  0.00  0.00    +0.179 C 
BRANCH  27  32
ATOM     28  C   LIG    1      -37.484  68.933  21.103  0.00  0.00    +0.086 C 
ATOM     29  C   LIG    1      -37.540  69.044  22.574  0.00  0.00    +0.102 A 
ATOM     30  C   LIG    1      -38.000  68.207  23.567  0.00  0.00    +0.045 A 
ATOM     31  C   LIG    1      -37.780  68.882  24.791  0.00  0.00    +0.046 A 
ATOM     32  C   LIG    1      -37.200  70.092  24.471  0.00  0.00    +0.122 A 
ATOM     33  O   LIG    1      -37.050  70.192  23.118  0.00  0.00    -0.463 OA
ENDBRANCH  27  32
ENDBRANCH  23  27
ENDBRANCH   1  25
TORSDOF 5
ENDMDL
MODEL 6
REMARK VINA RESULT:      -5.5     14.619     18.785
REMARK  Name = pdb/CHEMBL3671133.pdb
REMARK                            x       y       z     vdW  Elec       q    Type
REMARK                         _______ _______ _______ _____ _____    ______ ____
ROOT
ATOM      1  C   LIG    1      -35.216  70.385  26.228  0.00  0.00    +0.100 A 
ATOM      2  C   LIG    1      -36.266  70.491  25.330  0.00  0.00    +0.170 A 
ATOM      3  N   LIG    1      -37.353  71.327  25.268  0.00  0.00    -0.212 NA
ATOM      4  C   LIG    1      -38.256  71.108  24.334  0.00  0.00    +0.126 A 
ATOM      5  C   LIG    1      -38.088  70.013  23.304  0.00  0.00    +0.063 A 
ATOM      6  C   LIG    1      -36.993  69.251  23.388  0.00  0.00    +0.118 A 
ATOM      7  N   LIG    1      -36.071  69.467  24.396  0.00  0.00    -0.221 N 
ATOM      8  N   LIG    1      -34.942  68.764  24.630  0.00  0.00    -0.173 NA
ATOM      9  C   LIG    1      -34.445  69.308  25.740  0.00  0.00    +0.150 A 
ENDROOT
BRANCH   4  10
ATOM     10  N   LIG    1      -39.395  71.898  24.276  0.00  0.00    -0.308 N 
ATOM     11  C   LIG    1      -39.742  72.880  25.321  0.00  0.00    +0.108 C 
ATOM     12  C   LIG    1      -41.254  72.655  25.494  0.00  0.00    +0.029 C 
ATOM     13  C   LIG    1      -41.725  72.346  24.086  0.00  0.00    +0.021 C 
ATOM     14  C   LIG    1      -40.589  71.507  23.519  0.00  0.00    +0.107 C 
BRANCH  11  15
ATOM     15  C   LIG    1      -39.393  74.298  24.889  0.00  0.00    +0.011 A 
ATOM     16  C   LIG    1      -38.131  74.826  25.202  0.00  0.00    +0.129 A 
ATOM     17  F   LIG    1      -37.244  74.081  25.876  0.00  0.00    -0.205 F 
ATOM     18  C   LIG    1      -37.761  76.121  24.840  0.00  0.00    +0.041 A 
ATOM     19  C   LIG    1      -38.655  76.922  24.131  0.00  0.00    +0.041 A 
ATOM     20  C   LIG    1      -39.900  76.409  23.793  0.00  0.00    +0.124 A 
ATOM     21  F   LIG    1      -40.760  77.174  23.107  0.00  0.00    -0.205 F 
ATOM     22  C   LIG    1      -40.272  75.118  24.156  0.00  0.00    +0.046 A 
ENDBRANCH  11  15
ENDBRANCH   4  10
BRANCH   1  25
ATOM     23  N   LIG    1      -34.818  72.510  27.256  0.00  0.00    -0.304 N 
ATOM     24  H   LIG    1      -34.977  72.903  26.331  0.00  0.00    +0.149 HD
ATOM     25  C   LIG    1      -34.931  71.153  27.423  0.00  0.00    +0.250 C 
ATOM     26  O   LIG    1      -34.800  70.611  28.517  0.00  0.00    -0.270 OA
BRANCH  23  27
ATOM     27  C   LIG    1      -34.574  73.364  28.391  0.00  0.00    +0.179 C 
BRANCH  27  32
ATOM     28  C   LIG    1      -32.575  77.458  26.788  0.00  0.00    +0.086 C 
ATOM     29  C   LIG    1      -33.718  76.642  27.244  0.00  0.00    +0.102 A 
ATOM     30  C   LIG    1      -35.060  76.905  27.408  0.00  0.00    +0.045 A 
ATOM     31  C   LIG    1      -35.647  75.708  27.882  0.00  0.00    +0.046 A 
ATOM     32  C   LIG    1      -34.626  74.785  27.978  0.00  0.00    +0.122 A 
ATOM     33  O   LIG    1      -33.447  75.353  27.587  0.00  0.00    -0.463 OA
ENDBRANCH  27  32
ENDBRANCH  23  27
ENDBRANCH   1  25
TORSDOF 5
ENDMDL
MODEL 7
REMARK VINA RESULT:      -5.5     18.587     21.936
REMARK  Name = pdb/CHEMBL3671133.pdb
REMARK                            x       y       z     vdW  Elec       q    Type
REMARK                         _______ _______ _______ _____ _____    ______ ____
ROOT
ATOM      1  C   LIG    1      -18.646  82.643  13.939  0.00  0.00    +0.100 A 
ATOM      2  C   LIG    1      -18.961  83.967  13.678  0.00  0.00    +0.170 A 
ATOM      3  N   LIG    1      -20.071  84.728  13.950  0.00  0.00    -0.212 NA
ATOM      4  C   LIG    1      -20.120  85.953  13.469  0.00  0.00    +0.126 A 
ATOM      5  C   LIG    1      -18.967  86.553  12.695  0.00  0.00    +0.063 A 
ATOM      6  C   LIG    1      -17.895  85.781  12.491  0.00  0.00    +0.118 A 
ATOM      7  N   LIG    1      -17.872  84.483  12.968  0.00  0.00    -0.221 N 
ATOM      8  N   LIG    1      -16.881  83.578  12.814  0.00  0.00    -0.173 NA
ATOM      9  C   LIG    1      -17.361  82.473  13.382  0.00  0.00    +0.150 A 
ENDROOT
BRANCH   4  10
ATOM     10  N   LIG    1      -21.251  86.731  13.675  0.00  0.00    -0.308 N 
ATOM     11  C   LIG    1      -21.868  87.545  12.610  0.00  0.00    +0.108 C 
ATOM     12  C   LIG    1      -22.189  88.857  13.345  0.00  0.00    +0.029 C 
ATOM     13  C   LIG    1      -22.586  88.393  14.733  0.00  0.00    +0.021 C 
ATOM     14  C   LIG    1      -21.629  87.240  14.998  0.00  0.00    +0.107 C 
BRANCH  11  15
ATOM     15  C   LIG    1      -23.101  86.863  12.033  0.00  0.00    +0.011 A 
ATOM     16  C   LIG    1      -23.949  87.579  11.174  0.00  0.00    +0.129 A 
ATOM     17  F   LIG    1      -23.668  88.852  10.866  0.00  0.00    -0.205 F 
ATOM     18  C   LIG    1      -25.097  87.007  10.624  0.00  0.00    +0.041 A 
ATOM     19  C   LIG    1      -25.417  85.682  10.916  0.00  0.00    +0.041 A 
ATOM     20  C   LIG    1      -24.578  84.953  11.747  0.00  0.00    +0.124 A 
ATOM     21  F   LIG    1      -24.879  83.676  12.026  0.00  0.00    -0.205 F 
ATOM     22  C   LIG    1      -23.433  85.521  12.299  0.00  0.00    +0.046 A 
ENDBRANCH  11  15
ENDBRANCH   4  10
BRANCH   1  25
ATOM     23  N   LIG    1      -20.284  82.043  15.579  0.00  0.00    -0.304 N 
ATOM     24  H   LIG    1      -20.365  83.042  15.755  0.00  0.00    +0.149 HD
ATOM     25  C   LIG    1      -19.421  81.614  14.603  0.00  0.00    +0.250 C 
ATOM     26  O   LIG    1      -19.304  80.430  14.301  0.00  0.00    -0.270 OA
BRANCH  23  27
ATOM     27  C   LIG    1      -21.126  81.100  16.270  0.00  0.00    +0.179 C 
BRANCH  27  32
ATOM     28  C   LIG    1      -25.425  79.067  15.423  0.00  0.00    +0.086 C 
ATOM     29  C   LIG    1      -24.419  80.133  15.257  0.00  0.00    +0.102 A 
ATOM     30  C   LIG    1      -24.400  81.311  14.542  0.00  0.00    +0.045 A 
ATOM     31  C   LIG    1      -23.139  81.906  14.786  0.00  0.00    +0.046 A 
ATOM     32  C   LIG    1      -22.464  81.055  15.636  0.00  0.00    +0.122 A 
ATOM     33  O   LIG    1      -23.244  79.973  15.926  0.00  0.00    -0.463 OA
ENDBRANCH  27  32
ENDBRANCH  23  27
ENDBRANCH   1  25
TORSDOF 5
ENDMDL
MODEL 8
REMARK VINA RESULT:      -5.5     18.656     22.144
REMARK  Name = pdb/CHEMBL3671133.pdb
REMARK                            x       y       z     vdW  Elec       q    Type
REMARK                         _______ _______ _______ _____ _____    ______ ____
ROOT
ATOM      1  C   LIG    1      -18.803  85.892  13.284  0.00  0.00    +0.100 A 
ATOM      2  C   LIG    1      -19.049  84.547  13.510  0.00  0.00    +0.170 A 
ATOM      3  N   LIG    1      -20.087  83.884  14.118  0.00  0.00    -0.212 NA
ATOM      4  C   LIG    1      -19.983  82.581  14.281  0.00  0.00    +0.126 A 
ATOM      5  C   LIG    1      -18.794  81.804  13.760  0.00  0.00    +0.063 A 
ATOM      6  C   LIG    1      -17.829  82.495  13.144  0.00  0.00    +0.118 A 
ATOM      7  N   LIG    1      -17.933  83.868  13.012  0.00  0.00    -0.221 N 
ATOM      8  N   LIG    1      -17.031  84.701  12.448  0.00  0.00    -0.173 NA
ATOM      9  C   LIG    1      -17.551  85.913  12.632  0.00  0.00    +0.150 A 
ENDROOT
BRANCH   4  10
ATOM     10  N   LIG    1      -20.985  81.886  14.941  0.00  0.00    -0.308 N 
ATOM     11  C   LIG    1      -22.276  82.498  15.309  0.00  0.00    +0.108 C 
ATOM     12  C   LIG    1      -22.499  81.966  16.735  0.00  0.00    +0.029 C 
ATOM     13  C   LIG    1      -21.936  80.559  16.675  0.00  0.00    +0.021 C 
ATOM     14  C   LIG    1      -20.712  80.715  15.783  0.00  0.00    +0.107 C 
BRANCH  11  15
ATOM     15  C   LIG    1      -23.379  82.095  14.340  0.00  0.00    +0.011 A 
ATOM     16  C   LIG    1      -23.567  82.831  13.159  0.00  0.00    +0.129 A 
ATOM     17  F   LIG    1      -22.776  83.879  12.893  0.00  0.00    -0.205 F 
ATOM     18  C   LIG    1      -24.567  82.512  12.241  0.00  0.00    +0.041 A 
ATOM     19  C   LIG    1      -25.404  81.423  12.481  0.00  0.00    +0.041 A 
ATOM     20  C   LIG    1      -25.219  80.670  13.633  0.00  0.00    +0.124 A 
ATOM     21  F   LIG    1      -26.018  79.619  13.865  0.00  0.00    -0.205 F 
ATOM     22  C   LIG    1      -24.223  80.988  14.552  0.00  0.00    +0.046 A 
ENDBRANCH  11  15
ENDBRANCH   4  10
BRANCH   1  25
ATOM     23  N   LIG    1      -20.208  87.702  12.588  0.00  0.00    -0.304 N 
ATOM     24  H   LIG    1      -20.114  87.316  11.652  0.00  0.00    +0.149 HD
ATOM     25  C   LIG    1      -19.593  87.056  13.631  0.00  0.00    +0.250 C 
ATOM     26  O   LIG    1      -19.700  87.433  14.794  0.00  0.00    -0.270 OA
BRANCH  23  27
ATOM     27  C   LIG    1      -21.047  88.846  12.837  0.00  0.00    +0.179 C 
BRANCH  27  32
ATOM     28  C   LIG    1      -24.783  86.142  11.401  0.00  0.00    +0.086 C 
ATOM     29  C   LIG    1      -24.070  87.425  11.554  0.00  0.00    +0.102 A 
ATOM     30  C   LIG    1      -24.372  88.722  11.200  0.00  0.00    +0.045 A 
ATOM     31  C   LIG    1      -23.276  89.515  11.617  0.00  0.00    +0.046 A 
ATOM     32  C   LIG    1      -22.370  88.653  12.200  0.00  0.00    +0.122 A 
ATOM     33  O   LIG    1      -22.854  87.377  12.165  0.00  0.00    -0.463 OA
ENDBRANCH  27  32
ENDBRANCH  23  27
ENDBRANCH   1  25
TORSDOF 5
ENDMDL
MODEL 9
REMARK VINA RESULT:      -5.4      2.386      5.689
REMARK  Name = pdb/CHEMBL3671133.pdb
REMARK                            x       y       z     vdW  Elec       q    Type
REMARK                         _______ _______ _______ _____ _____    ______ ____
ROOT
ATOM      1  C   LIG    1      -25.521  77.313  32.731  0.00  0.00    +0.100 A 
ATOM      2  C   LIG    1      -24.221  77.210  32.264  0.00  0.00    +0.170 A 
ATOM      3  N   LIG    1      -23.002  77.421  32.859  0.00  0.00    -0.212 NA
ATOM      4  C   LIG    1      -21.921  77.346  32.110  0.00  0.00    +0.126 A 
ATOM      5  C   LIG    1      -21.989  76.972  30.646  0.00  0.00    +0.063 A 
ATOM      6  C   LIG    1      -23.199  76.741  30.126  0.00  0.00    +0.118 A 
ATOM      7  N   LIG    1      -24.329  76.859  30.914  0.00  0.00    -0.221 N 
ATOM      8  N   LIG    1      -25.612  76.691  30.526  0.00  0.00    -0.173 NA
ATOM      9  C   LIG    1      -26.320  76.983  31.615  0.00  0.00    +0.150 A 
ENDROOT
BRANCH   4  10
ATOM     10  N   LIG    1      -20.677  77.610  32.666  0.00  0.00    -0.308 N 
ATOM     11  C   LIG    1      -20.348  78.889  33.324  0.00  0.00    +0.108 C 
ATOM     12  C   LIG    1      -18.937  79.182  32.787  0.00  0.00    +0.029 C 
ATOM     13  C   LIG    1      -18.304  77.806  32.696  0.00  0.00    +0.021 C 
ATOM     14  C   LIG    1      -19.455  76.929  32.224  0.00  0.00    +0.107 C 
BRANCH  11  15
ATOM     15  C   LIG    1      -20.398  78.762  34.840  0.00  0.00    +0.011 A 
ATOM     16  C   LIG    1      -20.451  79.920  35.631  0.00  0.00    +0.129 A 
ATOM     17  F   LIG    1      -20.459  81.127  35.048  0.00  0.00    -0.205 F 
ATOM     18  C   LIG    1      -20.489  79.863  37.024  0.00  0.00    +0.041 A 
ATOM     19  C   LIG    1      -20.490  78.626  37.665  0.00  0.00    +0.041 A 
ATOM     20  C   LIG    1      -20.460  77.468  36.899  0.00  0.00    +0.124 A 
ATOM     21  F   LIG    1      -20.466  76.276  37.511  0.00  0.00    -0.205 F 
ATOM     22  C   LIG    1      -20.419  77.523  35.509  0.00  0.00    +0.046 A 
ENDBRANCH  11  15
ENDBRANCH   4  10
BRANCH   1  25
ATOM     23  N   LIG    1      -25.267  78.613  34.725  0.00  0.00    -0.304 N 
ATOM     24  H   LIG    1      -24.446  79.009  34.272  0.00  0.00    +0.149 HD
ATOM     25  C   LIG    1      -26.014  77.689  34.040  0.00  0.00    +0.250 C 
ATOM     26  O   LIG    1      -27.044  77.202  34.501  0.00  0.00    -0.270 OA
BRANCH  23  27
ATOM     27  C   LIG    1      -25.696  79.080  36.019  0.00  0.00    +0.179 C 
BRANCH  27  32
ATOM     28  C   LIG    1      -26.110  83.704  37.351  0.00  0.00    +0.086 C 
ATOM     29  C   LIG    1      -25.342  82.533  36.887  0.00  0.00    +0.102 A 
ATOM     30  C   LIG    1      -24.013  82.335  36.583  0.00  0.00    +0.045 A 
ATOM     31  C   LIG    1      -23.890  80.981  36.188  0.00  0.00    +0.046 A 
ATOM     32  C   LIG    1      -25.154  80.434  36.276  0.00  0.00    +0.122 A 
ATOM     33  O   LIG    1      -26.041  81.379  36.705  0.00  0.00    -0.463 OA
ENDBRANCH  27  32
ENDBRANCH  23  27
ENDBRANCH   1  25
TORSDOF 5
ENDMDL
