MODEL 1
REMARK VINA RESULT:      -6.0      0.000      0.000
REMARK  Name = pdb/CHEMBL3639748.pdb
REMARK                            x       y       z     vdW  Elec       q    Type
REMARK                         _______ _______ _______ _____ _____    ______ ____
ROOT
ATOM      1  C   LIG    1      -20.781  78.130  33.315  0.00  0.00    +0.126 A 
ATOM      2  N   LIG    1      -21.905  77.556  32.925  0.00  0.00    -0.212 NA
ATOM      3  C   LIG    1      -22.049  77.244  31.585  0.00  0.00    +0.170 A 
ATOM      4  C   LIG    1      -23.128  76.848  30.804  0.00  0.00    +0.100 A 
ATOM      5  C   LIG    1      -22.593  76.637  29.517  0.00  0.00    +0.150 A 
ATOM      6  N   LIG    1      -21.292  76.905  29.449  0.00  0.00    -0.173 NA
ATOM      7  N   LIG    1      -20.989  77.373  30.683  0.00  0.00    -0.221 N 
ATOM      8  C   LIG    1      -19.809  77.972  31.076  0.00  0.00    +0.118 A 
ATOM      9  C   LIG    1      -19.664  78.411  32.330  0.00  0.00    +0.063 A 
ENDROOT
BRANCH   1  12
ATOM     10  C   LIG    1      -19.161  76.321  35.062  0.00  0.00    +0.031 C 
ATOM     11  C   LIG    1      -19.880  77.548  35.633  0.00  0.00    +0.031 C 
ATOM     12  N   LIG    1      -20.554  78.449  34.662  0.00  0.00    -0.303 N 
ATOM     13  C   LIG    1      -20.432  79.867  35.129  0.00  0.00    +0.108 C 
ATOM     14  C   LIG    1      -19.497  79.802  36.361  0.00  0.00    +0.029 C 
ATOM     15  C   LIG    1      -18.807  78.461  36.245  0.00  0.00    +0.027 C 
ATOM     16  C   LIG    1      -20.911  77.074  36.673  0.00  0.00    +0.031 C 
BRANCH  13  17
ATOM     17  C   LIG    1      -21.769  80.516  35.502  0.00  0.00    +0.011 A 
ATOM     18  C   LIG    1      -21.800  81.841  35.975  0.00  0.00    +0.129 A 
ATOM     19  F   LIG    1      -20.654  82.519  36.139  0.00  0.00    -0.205 F 
ATOM     20  C   LIG    1      -22.995  82.490  36.316  0.00  0.00    +0.041 A 
ATOM     21  C   LIG    1      -24.204  81.809  36.212  0.00  0.00    +0.041 A 
ATOM     22  C   LIG    1      -24.193  80.492  35.772  0.00  0.00    +0.124 A 
ATOM     23  F   LIG    1      -25.348  79.817  35.707  0.00  0.00    -0.205 F 
ATOM     24  C   LIG    1      -23.003  79.853  35.409  0.00  0.00    +0.046 A 
ENDBRANCH  13  17
ENDBRANCH   1  12
BRANCH   4  25
ATOM     25  C   LIG    1      -24.516  76.670  31.169  0.00  0.00    +0.249 C 
ATOM     26  N   LIG    1      -24.702  76.319  32.486  0.00  0.00    -0.308 N 
ATOM     27  H   LIG    1      -23.871  76.255  33.066  0.00  0.00    +0.149 HD
ATOM     28  O   LIG    1      -25.419  76.783  30.352  0.00  0.00    -0.270 OA
BRANCH  26  29
ATOM     29  C   LIG    1      -25.975  76.013  33.045  0.00  0.00    +0.073 C 
ATOM     30  C   LIG    1      -26.803  77.104  33.659  0.00  0.00    +0.024 C 
ATOM     31  C   LIG    1      -26.166  76.064  34.535  0.00  0.00    +0.024 C 
ENDBRANCH  26  29
ENDBRANCH   4  25
TORSDOF 4
ENDMDL
MODEL 2
REMARK VINA RESULT:      -6.0     14.260     18.613
REMARK  Name = pdb/CHEMBL3639748.pdb
REMARK                            x       y       z     vdW  Elec       q    Type
REMARK                         _______ _______ _______ _____ _____    ______ ____
ROOT
ATOM      1  C   LIG    1      -37.773  76.141  26.543  0.00  0.00    +0.126 A 
ATOM      2  N   LIG    1      -36.618  76.779  26.609  0.00  0.00    -0.212 NA
ATOM      3  C   LIG    1      -35.596  76.206  27.345  0.00  0.00    +0.170 A 
ATOM      4  C   LIG    1      -34.367  76.669  27.799  0.00  0.00    +0.100 A 
ATOM      5  C   LIG    1      -33.775  75.567  28.449  0.00  0.00    +0.150 A 
ATOM      6  N   LIG    1      -34.558  74.490  28.453  0.00  0.00    -0.173 NA
ATOM      7  N   LIG    1      -35.704  74.916  27.873  0.00  0.00    -0.221 N 
ATOM      8  C   LIG    1      -36.905  74.238  27.812  0.00  0.00    +0.118 A 
ATOM      9  C   LIG    1      -37.965  74.801  27.224  0.00  0.00    +0.063 A 
ENDROOT
BRANCH   1  12
ATOM     10  C   LIG    1      -38.861  78.873  27.088  0.00  0.00    +0.031 C 
ATOM     11  C   LIG    1      -39.534  77.933  26.083  0.00  0.00    +0.031 C 
ATOM     12  N   LIG    1      -38.844  76.647  25.793  0.00  0.00    -0.303 N 
ATOM     13  C   LIG    1      -39.041  76.289  24.353  0.00  0.00    +0.108 C 
ATOM     14  C   LIG    1      -39.753  77.514  23.730  0.00  0.00    +0.029 C 
ATOM     15  C   LIG    1      -39.514  78.635  24.717  0.00  0.00    +0.027 C 
ATOM     16  C   LIG    1      -40.963  77.633  26.569  0.00  0.00    +0.031 C 
BRANCH  13  17
ATOM     17  C   LIG    1      -39.869  75.018  24.136  0.00  0.00    +0.011 A 
ATOM     18  C   LIG    1      -39.254  73.754  24.221  0.00  0.00    +0.129 A 
ATOM     19  F   LIG    1      -37.935  73.668  24.451  0.00  0.00    -0.205 F 
ATOM     20  C   LIG    1      -39.965  72.559  24.047  0.00  0.00    +0.041 A 
ATOM     21  C   LIG    1      -41.325  72.601  23.756  0.00  0.00    +0.041 A 
ATOM     22  C   LIG    1      -41.946  73.838  23.641  0.00  0.00    +0.124 A 
ATOM     23  F   LIG    1      -43.245  73.888  23.322  0.00  0.00    -0.205 F 
ATOM     24  C   LIG    1      -41.241  75.030  23.839  0.00  0.00    +0.046 A 
ENDBRANCH  13  17
ENDBRANCH   1  12
BRANCH   4  25
ATOM     25  C   LIG    1      -33.767  77.978  27.668  0.00  0.00    +0.249 C 
ATOM     26  N   LIG    1      -34.663  79.014  27.793  0.00  0.00    -0.308 N 
ATOM     27  H   LIG    1      -35.627  78.764  27.997  0.00  0.00    +0.149 HD
ATOM     28  O   LIG    1      -32.578  78.123  27.421  0.00  0.00    -0.270 OA
BRANCH  26  29
ATOM     29  C   LIG    1      -34.313  80.382  27.619  0.00  0.00    +0.073 C 
ATOM     30  C   LIG    1      -34.595  81.371  28.712  0.00  0.00    +0.024 C 
ATOM     31  C   LIG    1      -35.394  81.411  27.443  0.00  0.00    +0.024 C 
ENDBRANCH  26  29
ENDBRANCH   4  25
TORSDOF 4
ENDMDL
MODEL 3
REMARK VINA RESULT:      -5.9      1.729      3.965
REMARK  Name = pdb/CHEMBL3639748.pdb
REMARK                            x       y       z     vdW  Elec       q    Type
REMARK                         _______ _______ _______ _____ _____    ______ ____
ROOT
ATOM      1  C   LIG    1      -22.847  77.972  35.166  0.00  0.00    +0.126 A 
ATOM      2  N   LIG    1      -23.183  77.963  33.888  0.00  0.00    -0.212 NA
ATOM      3  C   LIG    1      -24.504  77.715  33.561  0.00  0.00    +0.170 A 
ATOM      4  C   LIG    1      -25.158  77.428  32.370  0.00  0.00    +0.100 A 
ATOM      5  C   LIG    1      -26.523  77.337  32.711  0.00  0.00    +0.150 A 
ATOM      6  N   LIG    1      -26.742  77.511  34.011  0.00  0.00    -0.173 NA
ATOM      7  N   LIG    1      -25.501  77.638  34.538  0.00  0.00    -0.221 N 
ATOM      8  C   LIG    1      -25.165  77.643  35.877  0.00  0.00    +0.118 A 
ATOM      9  C   LIG    1      -23.885  77.750  36.248  0.00  0.00    +0.063 A 
ENDROOT
BRANCH   1  12
ATOM     10  C   LIG    1      -20.943  75.743  35.763  0.00  0.00    +0.031 C 
ATOM     11  C   LIG    1      -20.565  77.206  36.019  0.00  0.00    +0.031 C 
ATOM     12  N   LIG    1      -21.534  78.242  35.573  0.00  0.00    -0.303 N 
ATOM     13  C   LIG    1      -20.787  79.446  35.087  0.00  0.00    +0.108 C 
ATOM     14  C   LIG    1      -19.297  79.026  35.104  0.00  0.00    +0.029 C 
ATOM     15  C   LIG    1      -19.329  77.515  35.161  0.00  0.00    +0.027 C 
ATOM     16  C   LIG    1      -20.297  77.388  37.524  0.00  0.00    +0.031 C 
BRANCH  13  17
ATOM     17  C   LIG    1      -21.002  80.698  35.943  0.00  0.00    +0.011 A 
ATOM     18  C   LIG    1      -22.166  81.473  35.777  0.00  0.00    +0.129 A 
ATOM     19  F   LIG    1      -23.064  81.136  34.840  0.00  0.00    -0.205 F 
ATOM     20  C   LIG    1      -22.421  82.619  36.542  0.00  0.00    +0.041 A 
ATOM     21  C   LIG    1      -21.493  83.037  37.490  0.00  0.00    +0.041 A 
ATOM     22  C   LIG    1      -20.326  82.303  37.652  0.00  0.00    +0.124 A 
ATOM     23  F   LIG    1      -19.409  82.721  38.534  0.00  0.00    -0.205 F 
ATOM     24  C   LIG    1      -20.082  81.145  36.906  0.00  0.00    +0.046 A 
ENDBRANCH  13  17
ENDBRANCH   1  12
BRANCH   4  25
ATOM     25  C   LIG    1      -24.619  77.250  31.039  0.00  0.00    +0.249 C 
ATOM     26  N   LIG    1      -23.265  77.479  30.956  0.00  0.00    -0.308 N 
ATOM     27  H   LIG    1      -22.784  77.709  31.820  0.00  0.00    +0.149 HD
ATOM     28  O   LIG    1      -25.329  76.968  30.086  0.00  0.00    -0.270 OA
BRANCH  26  29
ATOM     29  C   LIG    1      -22.536  77.444  29.734  0.00  0.00    +0.073 C 
ATOM     30  C   LIG    1      -21.827  76.186  29.323  0.00  0.00    +0.024 C 
ATOM     31  C   LIG    1      -21.035  77.382  29.763  0.00  0.00    +0.024 C 
ENDBRANCH  26  29
ENDBRANCH   4  25
TORSDOF 4
ENDMDL
MODEL 4
REMARK VINA RESULT:      -5.9     13.178     17.648
REMARK  Name = pdb/CHEMBL3639748.pdb
REMARK                            x       y       z     vdW  Elec       q    Type
REMARK                         _______ _______ _______ _____ _____    ______ ____
ROOT
ATOM      1  C   LIG    1      -36.936  74.863  27.562  0.00  0.00    +0.126 A 
ATOM      2  N   LIG    1      -35.667  75.220  27.647  0.00  0.00    -0.212 NA
ATOM      3  C   LIG    1      -34.836  74.487  28.476  0.00  0.00    +0.170 A 
ATOM      4  C   LIG    1      -33.550  74.688  28.963  0.00  0.00    +0.100 A 
ATOM      5  C   LIG    1      -33.258  73.535  29.718  0.00  0.00    +0.150 A 
ATOM      6  N   LIG    1      -34.271  72.673  29.756  0.00  0.00    -0.173 NA
ATOM      7  N   LIG    1      -35.263  73.304  29.085  0.00  0.00    -0.221 N 
ATOM      8  C   LIG    1      -36.587  72.919  29.006  0.00  0.00    +0.118 A 
ATOM      9  C   LIG    1      -37.463  73.663  28.324  0.00  0.00    +0.063 A 
ENDROOT
BRANCH   1  12
ATOM     10  C   LIG    1      -37.921  77.597  28.270  0.00  0.00    +0.031 C 
ATOM     11  C   LIG    1      -38.474  76.839  27.059  0.00  0.00    +0.031 C 
ATOM     12  N   LIG    1      -37.830  75.541  26.722  0.00  0.00    -0.303 N 
ATOM     13  C   LIG    1      -37.805  75.369  25.235  0.00  0.00    +0.108 C 
ATOM     14  C   LIG    1      -38.320  76.714  24.668  0.00  0.00    +0.029 C 
ATOM     15  C   LIG    1      -38.178  77.690  25.814  0.00  0.00    +0.027 C 
ATOM     16  C   LIG    1      -39.981  76.608  27.269  0.00  0.00    +0.031 C 
BRANCH  13  17
ATOM     17  C   LIG    1      -38.665  74.207  24.729  0.00  0.00    +0.011 A 
ATOM     18  C   LIG    1      -38.181  72.887  24.807  0.00  0.00    +0.129 A 
ATOM     19  F   LIG    1      -36.950  72.655  25.286  0.00  0.00    -0.205 F 
ATOM     20  C   LIG    1      -38.930  71.785  24.374  0.00  0.00    +0.041 A 
ATOM     21  C   LIG    1      -40.192  71.982  23.821  0.00  0.00    +0.041 A 
ATOM     22  C   LIG    1      -40.678  73.278  23.711  0.00  0.00    +0.124 A 
ATOM     23  F   LIG    1      -41.874  73.480  23.144  0.00  0.00    -0.205 F 
ATOM     24  C   LIG    1      -39.940  74.376  24.165  0.00  0.00    +0.046 A 
ENDBRANCH  13  17
ENDBRANCH   1  12
BRANCH   4  25
ATOM     25  C   LIG    1      -32.655  75.808  28.773  0.00  0.00    +0.249 C 
ATOM     26  N   LIG    1      -33.256  76.908  28.206  0.00  0.00    -0.308 N 
ATOM     27  H   LIG    1      -34.252  76.840  28.015  0.00  0.00    +0.149 HD
ATOM     28  O   LIG    1      -31.468  75.742  29.056  0.00  0.00    -0.270 OA
BRANCH  26  29
ATOM     29  C   LIG    1      -32.553  78.093  27.852  0.00  0.00    +0.073 C 
ATOM     30  C   LIG    1      -33.302  79.269  27.297  0.00  0.00    +0.024 C 
ATOM     31  C   LIG    1      -32.402  78.466  26.404  0.00  0.00    +0.024 C 
ENDBRANCH  26  29
ENDBRANCH   4  25
TORSDOF 4
ENDMDL
MODEL 5
REMARK VINA RESULT:      -5.8      2.234      3.608
REMARK  Name = pdb/CHEMBL3639748.pdb
REMARK                            x       y       z     vdW  Elec       q    Type
REMARK                         _______ _______ _______ _____ _____    ______ ____
ROOT
ATOM      1  C   LIG    1      -20.105  76.819  31.921  0.00  0.00    +0.126 A 
ATOM      2  N   LIG    1      -21.371  76.966  32.268  0.00  0.00    -0.212 NA
ATOM      3  C   LIG    1      -22.303  77.176  31.266  0.00  0.00    +0.170 A 
ATOM      4  C   LIG    1      -23.635  77.570  31.265  0.00  0.00    +0.100 A 
ATOM      5  C   LIG    1      -24.027  77.540  29.912  0.00  0.00    +0.150 A 
ATOM      6  N   LIG    1      -23.034  77.195  29.095  0.00  0.00    -0.173 NA
ATOM      7  N   LIG    1      -21.963  77.076  29.914  0.00  0.00    -0.221 N 
ATOM      8  C   LIG    1      -20.644  76.924  29.537  0.00  0.00    +0.118 A 
ATOM      9  C   LIG    1      -19.685  76.847  30.465  0.00  0.00    +0.063 A 
ENDROOT
BRANCH   1  12
ATOM     10  C   LIG    1      -18.750  74.157  32.075  0.00  0.00    +0.031 C 
ATOM     11  C   LIG    1      -18.483  75.249  33.116  0.00  0.00    +0.031 C 
ATOM     12  N   LIG    1      -19.110  76.576  32.879  0.00  0.00    -0.303 N 
ATOM     13  C   LIG    1      -18.186  77.656  33.352  0.00  0.00    +0.108 C 
ATOM     14  C   LIG    1      -16.880  76.921  33.741  0.00  0.00    +0.029 C 
ATOM     15  C   LIG    1      -16.983  75.575  33.059  0.00  0.00    +0.027 C 
ATOM     16  C   LIG    1      -18.920  74.730  34.497  0.00  0.00    +0.031 C 
BRANCH  13  17
ATOM     17  C   LIG    1      -18.726  78.460  34.539  0.00  0.00    +0.011 A 
ATOM     18  C   LIG    1      -19.710  79.445  34.333  0.00  0.00    +0.129 A 
ATOM     19  F   LIG    1      -20.143  79.706  33.091  0.00  0.00    -0.205 F 
ATOM     20  C   LIG    1      -20.250  80.200  35.383  0.00  0.00    +0.041 A 
ATOM     21  C   LIG    1      -19.794  80.000  36.682  0.00  0.00    +0.041 A 
ATOM     22  C   LIG    1      -18.804  79.051  36.904  0.00  0.00    +0.124 A 
ATOM     23  F   LIG    1      -18.331  78.881  38.146  0.00  0.00    -0.205 F 
ATOM     24  C   LIG    1      -18.283  78.281  35.860  0.00  0.00    +0.046 A 
ENDBRANCH  13  17
ENDBRANCH   1  12
BRANCH   4  25
ATOM     25  C   LIG    1      -24.490  77.941  32.371  0.00  0.00    +0.249 C 
ATOM     26  N   LIG    1      -23.829  78.587  33.390  0.00  0.00    -0.308 N 
ATOM     27  H   LIG    1      -22.839  78.768  33.252  0.00  0.00    +0.149 HD
ATOM     28  O   LIG    1      -25.678  77.653  32.395  0.00  0.00    -0.270 OA
BRANCH  26  29
ATOM     29  C   LIG    1      -24.451  78.971  34.611  0.00  0.00    +0.073 C 
ATOM     30  C   LIG    1      -23.976  80.195  35.338  0.00  0.00    +0.024 C 
ATOM     31  C   LIG    1      -23.699  78.834  35.905  0.00  0.00    +0.024 C 
ENDBRANCH  26  29
ENDBRANCH   4  25
TORSDOF 4
ENDMDL
MODEL 6
REMARK VINA RESULT:      -5.8     14.702     19.087
REMARK  Name = pdb/CHEMBL3639748.pdb
REMARK                            x       y       z     vdW  Elec       q    Type
REMARK                         _______ _______ _______ _____ _____    ______ ____
ROOT
ATOM      1  C   LIG    1      -38.741  77.603  26.922  0.00  0.00    +0.126 A 
ATOM      2  N   LIG    1      -37.689  78.398  26.839  0.00  0.00    -0.212 NA
ATOM      3  C   LIG    1      -36.817  78.442  27.912  0.00  0.00    +0.170 A 
ATOM      4  C   LIG    1      -35.766  79.283  28.258  0.00  0.00    +0.100 A 
ATOM      5  C   LIG    1      -35.247  78.750  29.456  0.00  0.00    +0.150 A 
ATOM      6  N   LIG    1      -35.918  77.681  29.877  0.00  0.00    -0.173 NA
ATOM      7  N   LIG    1      -36.934  77.561  28.991  0.00  0.00    -0.221 N 
ATOM      8  C   LIG    1      -38.028  76.725  29.092  0.00  0.00    +0.118 A 
ATOM      9  C   LIG    1      -38.971  76.736  28.144  0.00  0.00    +0.063 A 
ENDROOT
BRANCH   1  12
ATOM     10  C   LIG    1      -40.961  79.581  26.593  0.00  0.00    +0.031 C 
ATOM     11  C   LIG    1      -40.860  78.340  25.701  0.00  0.00    +0.031 C 
ATOM     12  N   LIG    1      -39.653  77.487  25.864  0.00  0.00    -0.303 N 
ATOM     13  C   LIG    1      -39.252  76.932  24.531  0.00  0.00    +0.108 C 
ATOM     14  C   LIG    1      -40.186  77.628  23.511  0.00  0.00    +0.029 C 
ATOM     15  C   LIG    1      -40.729  78.830  24.251  0.00  0.00    +0.027 C 
ATOM     16  C   LIG    1      -42.115  77.475  25.918  0.00  0.00    +0.031 C 
BRANCH  13  17
ATOM     17  C   LIG    1      -39.383  75.409  24.428  0.00  0.00    +0.011 A 
ATOM     18  C   LIG    1      -38.352  74.580  24.912  0.00  0.00    +0.129 A 
ATOM     19  F   LIG    1      -37.240  75.128  25.424  0.00  0.00    -0.205 F 
ATOM     20  C   LIG    1      -38.424  73.182  24.857  0.00  0.00    +0.041 A 
ATOM     21  C   LIG    1      -39.536  72.570  24.287  0.00  0.00    +0.041 A 
ATOM     22  C   LIG    1      -40.552  73.369  23.780  0.00  0.00    +0.124 A 
ATOM     23  F   LIG    1      -41.607  72.789  23.193  0.00  0.00    -0.205 F 
ATOM     24  C   LIG    1      -40.491  74.764  23.856  0.00  0.00    +0.046 A 
ENDBRANCH  13  17
ENDBRANCH   1  12
BRANCH   4  25
ATOM     25  C   LIG    1      -35.263  80.459  27.584  0.00  0.00    +0.249 C 
ATOM     26  N   LIG    1      -36.188  81.472  27.473  0.00  0.00    -0.308 N 
ATOM     27  H   LIG    1      -37.097  81.312  27.897  0.00  0.00    +0.149 HD
ATOM     28  O   LIG    1      -34.133  80.506  27.122  0.00  0.00    -0.270 OA
BRANCH  26  29
ATOM     29  C   LIG    1      -35.941  82.688  26.777  0.00  0.00    +0.073 C 
ATOM     30  C   LIG    1      -36.448  83.986  27.337  0.00  0.00    +0.024 C 
ATOM     31  C   LIG    1      -37.079  83.405  26.105  0.00  0.00    +0.024 C 
ENDBRANCH  26  29
ENDBRANCH   4  25
TORSDOF 4
ENDMDL
MODEL 7
REMARK VINA RESULT:      -5.7      2.214      5.125
REMARK  Name = pdb/CHEMBL3639748.pdb
REMARK                            x       y       z     vdW  Elec       q    Type
REMARK                         _______ _______ _______ _____ _____    ______ ____
ROOT
ATOM      1  C   LIG    1      -24.023  78.745  35.181  0.00  0.00    +0.126 A 
ATOM      2  N   LIG    1      -24.088  78.578  33.872  0.00  0.00    -0.212 NA
ATOM      3  C   LIG    1      -25.186  77.915  33.352  0.00  0.00    +0.170 A 
ATOM      4  C   LIG    1      -25.481  77.387  32.101  0.00  0.00    +0.100 A 
ATOM      5  C   LIG    1      -26.794  76.887  32.213  0.00  0.00    +0.150 A 
ATOM      6  N   LIG    1      -27.301  77.039  33.434  0.00  0.00    -0.173 NA
ATOM      7  N   LIG    1      -26.281  77.570  34.149  0.00  0.00    -0.221 N 
ATOM      8  C   LIG    1      -26.227  77.737  35.518  0.00  0.00    +0.118 A 
ATOM      9  C   LIG    1      -25.134  78.255  36.088  0.00  0.00    +0.063 A 
ENDROOT
BRANCH   1  12
ATOM     10  C   LIG    1      -24.451  81.405  36.481  0.00  0.00    +0.031 C 
ATOM     11  C   LIG    1      -23.047  80.811  36.323  0.00  0.00    +0.031 C 
ATOM     12  N   LIG    1      -22.955  79.431  35.777  0.00  0.00    -0.303 N 
ATOM     13  C   LIG    1      -21.819  78.710  36.435  0.00  0.00    +0.108 C 
ATOM     14  C   LIG    1      -21.321  79.672  37.540  0.00  0.00    +0.029 C 
ATOM     15  C   LIG    1      -22.458  80.651  37.732  0.00  0.00    +0.027 C 
ATOM     16  C   LIG    1      -22.211  81.754  35.440  0.00  0.00    +0.031 C 
BRANCH  13  17
ATOM     17  C   LIG    1      -20.677  78.348  35.481  0.00  0.00    +0.011 A 
ATOM     18  C   LIG    1      -19.810  77.282  35.791  0.00  0.00    +0.129 A 
ATOM     19  F   LIG    1      -19.963  76.613  36.943  0.00  0.00    -0.205 F 
ATOM     20  C   LIG    1      -18.758  76.899  34.949  0.00  0.00    +0.041 A 
ATOM     21  C   LIG    1      -18.529  77.598  33.768  0.00  0.00    +0.041 A 
ATOM     22  C   LIG    1      -19.355  78.670  33.455  0.00  0.00    +0.124 A 
ATOM     23  F   LIG    1      -19.117  79.373  32.341  0.00  0.00    -0.205 F 
ATOM     24  C   LIG    1      -20.420  79.037  34.284  0.00  0.00    +0.046 A 
ENDBRANCH  13  17
ENDBRANCH   1  12
BRANCH   4  25
ATOM     25  C   LIG    1      -24.668  77.331  30.906  0.00  0.00    +0.249 C 
ATOM     26  N   LIG    1      -23.324  77.513  31.142  0.00  0.00    -0.308 N 
ATOM     27  H   LIG    1      -23.040  77.629  32.110  0.00  0.00    +0.149 HD
ATOM     28  O   LIG    1      -25.158  77.182  29.797  0.00  0.00    -0.270 OA
BRANCH  26  29
ATOM     29  C   LIG    1      -22.348  77.580  30.109  0.00  0.00    +0.073 C 
ATOM     30  C   LIG    1      -21.801  76.314  29.515  0.00  0.00    +0.024 C 
ATOM     31  C   LIG    1      -20.932  77.164  30.394  0.00  0.00    +0.024 C 
ENDBRANCH  26  29
ENDBRANCH   4  25
TORSDOF 4
ENDMDL
MODEL 8
REMARK VINA RESULT:      -5.6     13.791     17.203
REMARK  Name = pdb/CHEMBL3639748.pdb
REMARK                            x       y       z     vdW  Elec       q    Type
REMARK                         _______ _______ _______ _____ _____    ______ ____
ROOT
ATOM      1  C   LIG    1      -38.081  77.206  27.074  0.00  0.00    +0.126 A 
ATOM      2  N   LIG    1      -38.397  76.239  26.231  0.00  0.00    -0.212 NA
ATOM      3  C   LIG    1      -39.218  76.549  25.161  0.00  0.00    +0.170 A 
ATOM      4  C   LIG    1      -39.908  75.782  24.230  0.00  0.00    +0.100 A 
ATOM      5  C   LIG    1      -40.518  76.712  23.366  0.00  0.00    +0.150 A 
ATOM      6  N   LIG    1      -40.283  77.974  23.717  0.00  0.00    -0.173 NA
ATOM      7  N   LIG    1      -39.578  77.867  24.868  0.00  0.00    -0.221 N 
ATOM      8  C   LIG    1      -39.256  78.887  25.741  0.00  0.00    +0.118 A 
ATOM      9  C   LIG    1      -38.574  78.623  26.860  0.00  0.00    +0.063 A 
ENDROOT
BRANCH   1  12
ATOM     10  C   LIG    1      -39.200  76.510  29.760  0.00  0.00    +0.031 C 
ATOM     11  C   LIG    1      -37.701  76.756  29.560  0.00  0.00    +0.031 C 
ATOM     12  N   LIG    1      -37.232  76.973  28.165  0.00  0.00    -0.303 N 
ATOM     13  C   LIG    1      -35.875  76.362  27.996  0.00  0.00    +0.108 C 
ATOM     14  C   LIG    1      -35.606  75.610  29.322  0.00  0.00    +0.029 C 
ATOM     15  C   LIG    1      -36.970  75.465  29.960  0.00  0.00    +0.027 C 
ATOM     16  C   LIG    1      -37.281  77.961  30.420  0.00  0.00    +0.031 C 
BRANCH  13  17
ATOM     17  C   LIG    1      -34.765  77.381  27.721  0.00  0.00    +0.011 A 
ATOM     18  C   LIG    1      -33.538  76.956  27.175  0.00  0.00    +0.129 A 
ATOM     19  F   LIG    1      -33.330  75.653  26.936  0.00  0.00    -0.205 F 
ATOM     20  C   LIG    1      -32.494  77.846  26.890  0.00  0.00    +0.041 A 
ATOM     21  C   LIG    1      -32.645  79.201  27.170  0.00  0.00    +0.041 A 
ATOM     22  C   LIG    1      -33.837  79.637  27.733  0.00  0.00    +0.124 A 
ATOM     23  F   LIG    1      -33.976  80.933  28.043  0.00  0.00    -0.205 F 
ATOM     24  C   LIG    1      -34.888  78.753  27.995  0.00  0.00    +0.046 A 
ENDBRANCH  13  17
ENDBRANCH   1  12
BRANCH   4  25
ATOM     25  C   LIG    1      -40.016  74.344  24.116  0.00  0.00    +0.249 C 
ATOM     26  N   LIG    1      -38.926  73.666  24.610  0.00  0.00    -0.308 N 
ATOM     27  H   LIG    1      -38.189  74.225  25.029  0.00  0.00    +0.149 HD
ATOM     28  O   LIG    1      -40.976  73.808  23.582  0.00  0.00    -0.270 OA
BRANCH  26  29
ATOM     29  C   LIG    1      -38.777  72.253  24.529  0.00  0.00    +0.073 C 
ATOM     30  C   LIG    1      -38.381  71.472  25.749  0.00  0.00    +0.024 C 
ATOM     31  C   LIG    1      -37.407  71.642  24.620  0.00  0.00    +0.024 C 
ENDBRANCH  26  29
ENDBRANCH   4  25
TORSDOF 4
ENDMDL
MODEL 9
REMARK VINA RESULT:      -5.6      3.227      6.992
REMARK  Name = pdb/CHEMBL3639748.pdb
REMARK                            x       y       z     vdW  Elec       q    Type
REMARK                         _______ _______ _______ _____ _____    ______ ____
ROOT
ATOM      1  C   LIG    1      -23.530  78.846  34.947  0.00  0.00    +0.126 A 
ATOM      2  N   LIG    1      -22.230  78.740  35.154  0.00  0.00    -0.212 NA
ATOM      3  C   LIG    1      -21.581  79.788  35.783  0.00  0.00    +0.170 A 
ATOM      4  C   LIG    1      -20.243  80.113  35.969  0.00  0.00    +0.100 A 
ATOM      5  C   LIG    1      -20.253  81.289  36.744  0.00  0.00    +0.150 A 
ATOM      6  N   LIG    1      -21.484  81.720  37.012  0.00  0.00    -0.173 NA
ATOM      7  N   LIG    1      -22.284  80.862  36.337  0.00  0.00    -0.221 N 
ATOM      8  C   LIG    1      -23.643  80.986  36.128  0.00  0.00    +0.118 A 
ATOM      9  C   LIG    1      -24.300  80.065  35.414  0.00  0.00    +0.063 A 
ENDROOT
BRANCH   1  12
ATOM     10  C   LIG    1      -25.247  77.023  36.584  0.00  0.00    +0.031 C 
ATOM     11  C   LIG    1      -25.026  76.780  35.087  0.00  0.00    +0.031 C 
ATOM     12  N   LIG    1      -24.258  77.813  34.341  0.00  0.00    -0.303 N 
ATOM     13  C   LIG    1      -24.814  77.942  32.956  0.00  0.00    +0.108 C 
ATOM     14  C   LIG    1      -26.077  77.048  32.947  0.00  0.00    +0.029 C 
ATOM     15  C   LIG    1      -26.403  76.834  34.408  0.00  0.00    +0.027 C 
ATOM     16  C   LIG    1      -24.334  75.417  34.906  0.00  0.00    +0.031 C 
BRANCH  13  17
ATOM     17  C   LIG    1      -23.841  77.512  31.854  0.00  0.00    +0.011 A 
ATOM     18  C   LIG    1      -24.058  77.922  30.524  0.00  0.00    +0.129 A 
ATOM     19  F   LIG    1      -25.140  78.654  30.220  0.00  0.00    -0.205 F 
ATOM     20  C   LIG    1      -23.194  77.571  29.479  0.00  0.00    +0.041 A 
ATOM     21  C   LIG    1      -22.087  76.769  29.738  0.00  0.00    +0.041 A 
ATOM     22  C   LIG    1      -21.868  76.332  31.038  0.00  0.00    +0.124 A 
ATOM     23  F   LIG    1      -20.828  75.527  31.289  0.00  0.00    -0.205 F 
ATOM     24  C   LIG    1      -22.718  76.702  32.086  0.00  0.00    +0.046 A 
ENDBRANCH  13  17
ENDBRANCH   1  12
BRANCH   4  25
ATOM     25  C   LIG    1      -19.054  79.435  35.500  0.00  0.00    +0.249 C 
ATOM     26  N   LIG    1      -19.202  78.849  34.264  0.00  0.00    -0.308 N 
ATOM     27  H   LIG    1      -20.095  78.978  33.799  0.00  0.00    +0.149 HD
ATOM     28  O   LIG    1      -18.040  79.364  36.179  0.00  0.00    -0.270 OA
BRANCH  26  29
ATOM     29  C   LIG    1      -18.193  78.061  33.643  0.00  0.00    +0.073 C 
ATOM     30  C   LIG    1      -17.189  78.712  32.736  0.00  0.00    +0.024 C 
ATOM     31  C   LIG    1      -18.246  77.816  32.161  0.00  0.00    +0.024 C 
ENDBRANCH  26  29
ENDBRANCH   4  25
TORSDOF 4
ENDMDL
