MODEL 1
REMARK VINA RESULT:      -7.2      0.000      0.000
REMARK  Name = pdb/CHEMBL3942627.pdb
REMARK                            x       y       z     vdW  Elec       q    Type
REMARK                         _______ _______ _______ _____ _____    ______ ____
ROOT
ATOM      1  C   LIG    1      -31.568  87.064  30.471  0.00  0.00    +0.149 A 
ATOM      2  N   LIG    1      -32.405  87.842  29.769  0.00  0.00    -0.160 NA
ATOM      3  N   LIG    1      -33.356  87.016  29.275  0.00  0.00    -0.218 N 
ATOM      4  C   LIG    1      -33.121  85.683  29.626  0.00  0.00    +0.129 A 
ATOM      5  C   LIG    1      -31.976  85.704  30.402  0.00  0.00    +0.078 A 
ENDROOT
BRANCH   3   6
ATOM      6  C   LIG    1      -34.401  87.567  28.476  0.00  0.00    +0.067 A 
ATOM      7  C   LIG    1      -34.513  88.940  28.266  0.00  0.00    +0.028 A 
ATOM      8  C   LIG    1      -35.577  89.473  27.532  0.00  0.00    +0.002 A 
ATOM      9  C   LIG    1      -36.515  88.623  26.956  0.00  0.00    +0.000 A 
ATOM     10  C   LIG    1      -36.381  87.244  27.108  0.00  0.00    +0.002 A 
ATOM     11  C   LIG    1      -35.324  86.714  27.856  0.00  0.00    +0.028 A 
ENDBRANCH   3   6
BRANCH   4  12
ATOM     12  N   LIG    1      -33.798  84.535  29.187  0.00  0.00    -0.266 N 
ATOM     13  H   LIG    1      -33.585  84.222  28.228  0.00  0.00    +0.157 HD
ATOM     14  C   LIG    1      -34.761  83.804  29.982  0.00  0.00    +0.251 C 
ATOM     15  O   LIG    1      -35.034  84.138  31.114  0.00  0.00    -0.270 OA
BRANCH  14  16
ATOM     16  C   LIG    1      -35.344  82.568  29.358  0.00  0.00    +0.056 A 
ATOM     17  C   LIG    1      -36.718  82.299  29.200  0.00  0.00    +0.056 A 
ATOM     18 CL   LIG    1      -37.975  83.264  29.842  0.00  0.00    -0.083 Cl
ATOM     19  C   LIG    1      -37.148  81.153  28.543  0.00  0.00    +0.059 A 
ATOM     20  C   LIG    1      -36.230  80.224  28.084  0.00  0.00    +0.134 A 
ATOM     21  F   LIG    1      -36.730  79.137  27.480  0.00  0.00    -0.205 F 
ATOM     22  C   LIG    1      -34.851  80.389  28.286  0.00  0.00    +0.039 A 
ATOM     23  C   LIG    1      -34.433  81.585  28.907  0.00  0.00    +0.027 A 
BRANCH  22  24
ATOM     24  C   LIG    1      -33.900  79.338  27.877  0.00  0.00    +0.109 A 
ATOM     25  C   LIG    1      -33.733  78.139  28.572  0.00  0.00    +0.149 A 
ATOM     26  F   LIG    1      -34.408  77.882  29.702  0.00  0.00    -0.203 F 
ATOM     27  C   LIG    1      -32.866  77.171  28.080  0.00  0.00    +0.042 A 
ATOM     28  C   LIG    1      -32.175  77.415  26.900  0.00  0.00    +0.023 A 
ATOM     29  C   LIG    1      -32.374  78.631  26.270  0.00  0.00    +0.111 A 
ATOM     30  N   LIG    1      -33.205  79.589  26.737  0.00  0.00    -0.252 NA
ENDBRANCH  22  24
ENDBRANCH  14  16
ENDBRANCH   4  12
BRANCH   1  31
ATOM     31  C   LIG    1      -30.381  87.610  31.140  0.00  0.00    +0.236 C 
ATOM     32  N   LIG    1      -30.320  87.612  32.423  0.00  0.00    -0.243 NA
BRANCH  31  33
ATOM     33  O   LIG    1      -29.411  88.064  30.317  0.00  0.00    -0.491 OA
ATOM     34  H   LIG    1      -28.801  88.672  30.764  0.00  0.00    +0.294 HD
ENDBRANCH  31  33
BRANCH  32  35
ATOM     35  C   LIG    1      -29.092  88.045  33.091  0.00  0.00    +0.202 C 
BRANCH  35  36
ATOM     36  C   LIG    1      -28.581  87.055  34.104  0.00  0.00    +0.081 A 
ATOM     37  N   LIG    1      -29.397  86.019  34.441  0.00  0.00    -0.255 NA
ATOM     38  C   LIG    1      -28.884  85.155  35.354  0.00  0.00    +0.131 A 
ATOM     39  C   LIG    1      -27.615  85.300  35.894  0.00  0.00    +0.130 A 
ATOM     40  N   LIG    1      -26.798  86.320  35.554  0.00  0.00    -0.260 NA
ATOM     41  C   LIG    1      -27.305  87.189  34.648  0.00  0.00    +0.135 A 
ENDBRANCH  35  36
ENDBRANCH  32  35
ENDBRANCH   1  31
TORSDOF 8
ENDMDL
MODEL 2
REMARK VINA RESULT:      -7.1     10.893     15.625
REMARK  Name = pdb/CHEMBL3942627.pdb
REMARK                            x       y       z     vdW  Elec       q    Type
REMARK                         _______ _______ _______ _____ _____    ______ ____
ROOT
ATOM      1  C   LIG    1      -36.228  71.791  26.746  0.00  0.00    +0.149 A 
ATOM      2  N   LIG    1      -37.316  72.503  26.417  0.00  0.00    -0.160 NA
ATOM      3  N   LIG    1      -37.751  71.996  25.241  0.00  0.00    -0.218 N 
ATOM      4  C   LIG    1      -36.923  70.970  24.777  0.00  0.00    +0.129 A 
ATOM      5  C   LIG    1      -35.943  70.825  25.743  0.00  0.00    +0.078 A 
ENDROOT
BRANCH   3   6
ATOM      6  C   LIG    1      -38.913  72.559  24.635  0.00  0.00    +0.067 A 
ATOM      7  C   LIG    1      -39.108  73.938  24.572  0.00  0.00    +0.028 A 
ATOM      8  C   LIG    1      -40.280  74.476  24.032  0.00  0.00    +0.002 A 
ATOM      9  C   LIG    1      -41.248  73.633  23.498  0.00  0.00    +0.000 A 
ATOM     10  C   LIG    1      -41.037  72.254  23.499  0.00  0.00    +0.002 A 
ATOM     11  C   LIG    1      -39.871  71.717  24.056  0.00  0.00    +0.028 A 
ENDBRANCH   3   6
BRANCH   4  12
ATOM     12  N   LIG    1      -36.965  70.307  23.542  0.00  0.00    -0.266 N 
ATOM     13  H   LIG    1      -36.653  70.852  22.724  0.00  0.00    +0.157 HD
ATOM     14  C   LIG    1      -37.428  68.948  23.363  0.00  0.00    +0.251 C 
ATOM     15  O   LIG    1      -37.799  68.275  24.298  0.00  0.00    -0.270 OA
BRANCH  14  16
ATOM     16  C   LIG    1      -37.351  68.393  21.968  0.00  0.00    +0.056 A 
ATOM     17  C   LIG    1      -38.328  68.555  20.966  0.00  0.00    +0.056 A 
ATOM     18 CL   LIG    1      -39.858  69.279  21.211  0.00  0.00    -0.083 Cl
ATOM     19  C   LIG    1      -38.124  68.059  19.685  0.00  0.00    +0.059 A 
ATOM     20  C   LIG    1      -36.978  67.341  19.388  0.00  0.00    +0.134 A 
ATOM     21  F   LIG    1      -36.868  66.880  18.135  0.00  0.00    -0.205 F 
ATOM     22  C   LIG    1      -36.005  67.070  20.364  0.00  0.00    +0.039 A 
ATOM     23  C   LIG    1      -36.207  67.629  21.643  0.00  0.00    +0.027 A 
BRANCH  22  24
ATOM     24  C   LIG    1      -34.842  66.219  20.048  0.00  0.00    +0.109 A 
ATOM     25  C   LIG    1      -34.940  64.857  19.757  0.00  0.00    +0.149 A 
ATOM     26  F   LIG    1      -36.118  64.216  19.790  0.00  0.00    -0.203 F 
ATOM     27  C   LIG    1      -33.803  64.142  19.402  0.00  0.00    +0.042 A 
ATOM     28  C   LIG    1      -32.580  64.799  19.345  0.00  0.00    +0.023 A 
ATOM     29  C   LIG    1      -32.549  66.146  19.662  0.00  0.00    +0.111 A 
ATOM     30  N   LIG    1      -33.642  66.856  20.019  0.00  0.00    -0.252 NA
ENDBRANCH  22  24
ENDBRANCH  14  16
ENDBRANCH   4  12
BRANCH   1  31
ATOM     31  C   LIG    1      -35.456  72.073  27.963  0.00  0.00    +0.236 C 
ATOM     32  N   LIG    1      -34.259  72.527  27.865  0.00  0.00    -0.243 NA
BRANCH  31  33
ATOM     33  O   LIG    1      -36.103  71.837  29.125  0.00  0.00    -0.491 OA
ATOM     34  H   LIG    1      -37.062  71.965  29.047  0.00  0.00    +0.294 HD
ENDBRANCH  31  33
BRANCH  32  35
ATOM     35  C   LIG    1      -33.530  72.921  29.072  0.00  0.00    +0.202 C 
BRANCH  35  36
ATOM     36  C   LIG    1      -32.917  74.293  28.980  0.00  0.00    +0.081 A 
ATOM     37  N   LIG    1      -31.748  74.508  29.644  0.00  0.00    -0.255 NA
ATOM     38  C   LIG    1      -31.238  75.760  29.521  0.00  0.00    +0.131 A 
ATOM     39  C   LIG    1      -31.846  76.748  28.761  0.00  0.00    +0.130 A 
ATOM     40  N   LIG    1      -32.999  76.535  28.091  0.00  0.00    -0.260 NA
ATOM     41  C   LIG    1      -33.517  75.290  28.214  0.00  0.00    +0.135 A 
ENDBRANCH  35  36
ENDBRANCH  32  35
ENDBRANCH   1  31
TORSDOF 8
ENDMDL
MODEL 3
REMARK VINA RESULT:      -7.1     18.058     19.829
REMARK  Name = pdb/CHEMBL3942627.pdb
REMARK                            x       y       z     vdW  Elec       q    Type
REMARK                         _______ _______ _______ _____ _____    ______ ____
ROOT
ATOM      1  C   LIG    1      -22.842  82.958  15.393  0.00  0.00    +0.149 A 
ATOM      2  N   LIG    1      -23.901  82.397  14.791  0.00  0.00    -0.160 NA
ATOM      3  N   LIG    1      -23.759  81.062  14.954  0.00  0.00    -0.218 N 
ATOM      4  C   LIG    1      -22.580  80.743  15.637  0.00  0.00    +0.129 A 
ATOM      5  C   LIG    1      -21.986  81.958  15.930  0.00  0.00    +0.078 A 
ENDROOT
BRANCH   3   6
ATOM      6  C   LIG    1      -24.750  80.191  14.414  0.00  0.00    +0.067 A 
ATOM      7  C   LIG    1      -25.361  79.209  15.191  0.00  0.00    +0.028 A 
ATOM      8  C   LIG    1      -26.286  78.321  14.633  0.00  0.00    +0.002 A 
ATOM      9  C   LIG    1      -26.647  78.445  13.297  0.00  0.00    +0.000 A 
ATOM     10  C   LIG    1      -26.089  79.462  12.524  0.00  0.00    +0.002 A 
ATOM     11  C   LIG    1      -25.151  80.340  13.079  0.00  0.00    +0.028 A 
ENDBRANCH   3   6
BRANCH   4  12
ATOM     12  N   LIG    1      -22.023  79.477  15.867  0.00  0.00    -0.266 N 
ATOM     13  H   LIG    1      -22.044  79.142  16.841  0.00  0.00    +0.157 HD
ATOM     14  C   LIG    1      -21.421  78.654  14.840  0.00  0.00    +0.251 C 
ATOM     15  O   LIG    1      -21.379  79.011  13.683  0.00  0.00    -0.270 OA
BRANCH  14  16
ATOM     16  C   LIG    1      -20.921  77.304  15.271  0.00  0.00    +0.056 A 
ATOM     17  C   LIG    1      -19.588  76.990  15.602  0.00  0.00    +0.056 A 
ATOM     18 CL   LIG    1      -18.265  78.057  15.413  0.00  0.00    -0.083 Cl
ATOM     19  C   LIG    1      -19.247  75.724  16.057  0.00  0.00    +0.059 A 
ATOM     20  C   LIG    1      -20.205  74.727  16.137  0.00  0.00    +0.134 A 
ATOM     21  F   LIG    1      -19.788  73.529  16.567  0.00  0.00    -0.205 F 
ATOM     22  C   LIG    1      -21.533  74.950  15.740  0.00  0.00    +0.039 A 
ATOM     23  C   LIG    1      -21.870  76.257  15.332  0.00  0.00    +0.027 A 
BRANCH  22  24
ATOM     24  C   LIG    1      -22.512  73.846  15.740  0.00  0.00    +0.109 A 
ATOM     25  C   LIG    1      -23.205  73.430  16.879  0.00  0.00    +0.149 A 
ATOM     26  F   LIG    1      -22.986  73.992  18.077  0.00  0.00    -0.203 F 
ATOM     27  C   LIG    1      -24.161  72.428  16.779  0.00  0.00    +0.042 A 
ATOM     28  C   LIG    1      -24.412  71.851  15.540  0.00  0.00    +0.023 A 
ATOM     29  C   LIG    1      -23.679  72.297  14.454  0.00  0.00    +0.111 A 
ATOM     30  N   LIG    1      -22.737  73.264  14.533  0.00  0.00    -0.252 NA
ENDBRANCH  22  24
ENDBRANCH  14  16
ENDBRANCH   4  12
BRANCH   1  31
ATOM     31  C   LIG    1      -22.635  84.412  15.400  0.00  0.00    +0.236 C 
ATOM     32  N   LIG    1      -22.482  85.037  14.289  0.00  0.00    -0.243 NA
BRANCH  31  33
ATOM     33  O   LIG    1      -22.639  84.990  16.621  0.00  0.00    -0.491 OA
ATOM     34  H   LIG    1      -23.344  84.644  17.191  0.00  0.00    +0.294 HD
ENDBRANCH  31  33
BRANCH  32  35
ATOM     35  C   LIG    1      -22.394  86.498  14.284  0.00  0.00    +0.202 C 
BRANCH  35  36
ATOM     36  C   LIG    1      -21.156  87.021  13.603  0.00  0.00    +0.081 A 
ATOM     37  N   LIG    1      -21.324  87.882  12.563  0.00  0.00    -0.255 NA
ATOM     38  C   LIG    1      -20.176  88.325  11.991  0.00  0.00    +0.131 A 
ATOM     39  C   LIG    1      -18.919  87.948  12.440  0.00  0.00    +0.130 A 
ATOM     40  N   LIG    1      -18.748  87.102  13.480  0.00  0.00    -0.260 NA
ATOM     41  C   LIG    1      -19.890  86.652  14.051  0.00  0.00    +0.135 A 
ENDBRANCH  35  36
ENDBRANCH  32  35
ENDBRANCH   1  31
TORSDOF 8
ENDMDL
MODEL 4
REMARK VINA RESULT:      -7.0     17.957     19.628
REMARK  Name = pdb/CHEMBL3942627.pdb
REMARK                            x       y       z     vdW  Elec       q    Type
REMARK                         _______ _______ _______ _____ _____    ______ ____
ROOT
ATOM      1  C   LIG    1      -22.949  81.490  15.247  0.00  0.00    +0.149 A 
ATOM      2  N   LIG    1      -22.197  80.387  15.378  0.00  0.00    -0.160 NA
ATOM      3  N   LIG    1      -22.850  79.408  14.711  0.00  0.00    -0.218 N 
ATOM      4  C   LIG    1      -24.057  79.863  14.171  0.00  0.00    +0.129 A 
ATOM      5  C   LIG    1      -24.127  81.204  14.505  0.00  0.00    +0.078 A 
ENDROOT
BRANCH   3   6
ATOM      6  C   LIG    1      -22.281  78.102  14.672  0.00  0.00    +0.067 A 
ATOM      7  C   LIG    1      -21.098  77.842  13.982  0.00  0.00    +0.028 A 
ATOM      8  C   LIG    1      -20.583  76.544  13.899  0.00  0.00    +0.002 A 
ATOM      9  C   LIG    1      -21.225  75.500  14.555  0.00  0.00    +0.000 A 
ATOM     10  C   LIG    1      -22.375  75.758  15.299  0.00  0.00    +0.002 A 
ATOM     11  C   LIG    1      -22.898  77.054  15.367  0.00  0.00    +0.028 A 
ENDBRANCH   3   6
BRANCH   4  12
ATOM     12  N   LIG    1      -25.066  79.117  13.544  0.00  0.00    -0.266 N 
ATOM     13  H   LIG    1      -25.066  79.130  12.513  0.00  0.00    +0.157 HD
ATOM     14  C   LIG    1      -26.084  78.370  14.251  0.00  0.00    +0.251 C 
ATOM     15  O   LIG    1      -26.116  78.327  15.461  0.00  0.00    -0.270 OA
BRANCH  14  16
ATOM     16  C   LIG    1      -27.051  77.590  13.405  0.00  0.00    +0.056 A 
ATOM     17  C   LIG    1      -27.048  76.192  13.233  0.00  0.00    +0.056 A 
ATOM     18 CL   LIG    1      -25.836  75.144  13.833  0.00  0.00    -0.083 Cl
ATOM     19  C   LIG    1      -28.033  75.564  12.482  0.00  0.00    +0.059 A 
ATOM     20  C   LIG    1      -29.003  76.312  11.838  0.00  0.00    +0.134 A 
ATOM     21  F   LIG    1      -29.905  75.630  11.118  0.00  0.00    -0.205 F 
ATOM     22  C   LIG    1      -29.012  77.715  11.897  0.00  0.00    +0.039 A 
ATOM     23  C   LIG    1      -28.035  78.328  12.708  0.00  0.00    +0.027 A 
BRANCH  22  24
ATOM     24  C   LIG    1      -29.996  78.493  11.120  0.00  0.00    +0.109 A 
ATOM     25  C   LIG    1      -29.990  78.570   9.726  0.00  0.00    +0.149 A 
ATOM     26  F   LIG    1      -29.044  77.963   8.994  0.00  0.00    -0.203 F 
ATOM     27  C   LIG    1      -30.994  79.269   9.068  0.00  0.00    +0.042 A 
ATOM     28  C   LIG    1      -31.992  79.884   9.814  0.00  0.00    +0.023 A 
ATOM     29  C   LIG    1      -31.930  79.784  11.192  0.00  0.00    +0.111 A 
ATOM     30  N   LIG    1      -30.956  79.118  11.852  0.00  0.00    -0.252 NA
ENDBRANCH  22  24
ENDBRANCH  14  16
ENDBRANCH   4  12
BRANCH   1  31
ATOM     31  C   LIG    1      -22.570  82.765  15.869  0.00  0.00    +0.236 C 
ATOM     32  N   LIG    1      -22.731  83.861  15.218  0.00  0.00    -0.243 NA
BRANCH  31  33
ATOM     33  O   LIG    1      -22.082  82.673  17.125  0.00  0.00    -0.491 OA
ATOM     34  H   LIG    1      -22.502  83.303  17.732  0.00  0.00    +0.294 HD
ENDBRANCH  31  33
BRANCH  32  35
ATOM     35  C   LIG    1      -22.466  85.141  15.876  0.00  0.00    +0.202 C 
BRANCH  35  36
ATOM     36  C   LIG    1      -22.545  86.321  14.943  0.00  0.00    +0.081 A 
ATOM     37  N   LIG    1      -22.274  87.552  15.458  0.00  0.00    -0.255 NA
ATOM     38  C   LIG    1      -22.355  88.577  14.572  0.00  0.00    +0.131 A 
ATOM     39  C   LIG    1      -22.671  88.390  13.235  0.00  0.00    +0.130 A 
ATOM     40  N   LIG    1      -22.929  87.169  12.718  0.00  0.00    -0.260 NA
ATOM     41  C   LIG    1      -22.856  86.143  13.597  0.00  0.00    +0.135 A 
ENDBRANCH  35  36
ENDBRANCH  32  35
ENDBRANCH   1  31
TORSDOF 8
ENDMDL
MODEL 5
REMARK VINA RESULT:      -6.9     17.996     19.478
REMARK  Name = pdb/CHEMBL3942627.pdb
REMARK                            x       y       z     vdW  Elec       q    Type
REMARK                         _______ _______ _______ _____ _____    ______ ____
ROOT
ATOM      1  C   LIG    1      -23.334  81.717  15.579  0.00  0.00    +0.149 A 
ATOM      2  N   LIG    1      -24.206  81.608  14.565  0.00  0.00    -0.160 NA
ATOM      3  N   LIG    1      -24.505  80.292  14.471  0.00  0.00    -0.218 N 
ATOM      4  C   LIG    1      -23.797  79.529  15.405  0.00  0.00    +0.129 A 
ATOM      5  C   LIG    1      -23.045  80.438  16.128  0.00  0.00    +0.078 A 
ENDROOT
BRANCH   3   6
ATOM      6  C   LIG    1      -25.424  79.864  13.468  0.00  0.00    +0.067 A 
ATOM      7  C   LIG    1      -25.408  80.406  12.184  0.00  0.00    +0.028 A 
ATOM      8  C   LIG    1      -26.355  80.022  11.229  0.00  0.00    +0.002 A 
ATOM      9  C   LIG    1      -27.297  79.048  11.539  0.00  0.00    +0.000 A 
ATOM     10  C   LIG    1      -27.285  78.454  12.800  0.00  0.00    +0.002 A 
ATOM     11  C   LIG    1      -26.347  78.851  13.760  0.00  0.00    +0.028 A 
ENDBRANCH   3   6
BRANCH   4  12
ATOM     12  N   LIG    1      -23.732  78.133  15.518  0.00  0.00    -0.266 N 
ATOM     13  H   LIG    1      -24.253  77.716  16.304  0.00  0.00    +0.157 HD
ATOM     14  C   LIG    1      -22.979  77.278  14.626  0.00  0.00    +0.251 C 
ATOM     15  O   LIG    1      -22.356  77.728  13.690  0.00  0.00    -0.270 OA
BRANCH  14  16
ATOM     16  C   LIG    1      -23.072  75.799  14.878  0.00  0.00    +0.056 A 
ATOM     17  C   LIG    1      -23.999  74.922  14.280  0.00  0.00    +0.056 A 
ATOM     18 CL   LIG    1      -25.293  75.416  13.278  0.00  0.00    -0.083 Cl
ATOM     19  C   LIG    1      -23.953  73.557  14.531  0.00  0.00    +0.059 A 
ATOM     20  C   LIG    1      -23.029  73.042  15.425  0.00  0.00    +0.134 A 
ATOM     21  F   LIG    1      -23.064  71.718  15.626  0.00  0.00    -0.205 F 
ATOM     22  C   LIG    1      -22.134  73.872  16.120  0.00  0.00    +0.039 A 
ATOM     23  C   LIG    1      -22.162  75.247  15.809  0.00  0.00    +0.027 A 
BRANCH  22  24
ATOM     24  C   LIG    1      -21.228  73.311  17.140  0.00  0.00    +0.109 A 
ATOM     25  C   LIG    1      -21.647  72.926  18.415  0.00  0.00    +0.149 A 
ATOM     26  F   LIG    1      -22.918  73.086  18.814  0.00  0.00    -0.203 F 
ATOM     27  C   LIG    1      -20.743  72.342  19.293  0.00  0.00    +0.042 A 
ATOM     28  C   LIG    1      -19.428  72.152  18.885  0.00  0.00    +0.023 A 
ATOM     29  C   LIG    1      -19.074  72.571  17.615  0.00  0.00    +0.111 A 
ATOM     30  N   LIG    1      -19.936  73.151  16.750  0.00  0.00    -0.252 NA
ENDBRANCH  22  24
ENDBRANCH  14  16
ENDBRANCH   4  12
BRANCH   1  31
ATOM     31  C   LIG    1      -22.755  83.009  15.967  0.00  0.00    +0.236 C 
ATOM     32  N   LIG    1      -22.821  84.004  15.157  0.00  0.00    -0.243 NA
BRANCH  31  33
ATOM     33  O   LIG    1      -22.196  83.046  17.197  0.00  0.00    -0.491 OA
ATOM     34  H   LIG    1      -21.479  83.696  17.257  0.00  0.00    +0.294 HD
ENDBRANCH  31  33
BRANCH  32  35
ATOM     35  C   LIG    1      -22.352  85.323  15.587  0.00  0.00    +0.202 C 
BRANCH  35  36
ATOM     36  C   LIG    1      -22.030  86.245  14.441  0.00  0.00    +0.081 A 
ATOM     37  N   LIG    1      -23.036  86.555  13.577  0.00  0.00    -0.255 NA
ATOM     38  C   LIG    1      -22.691  87.394  12.568  0.00  0.00    +0.131 A 
ATOM     39  C   LIG    1      -21.414  87.917  12.430  0.00  0.00    +0.130 A 
ATOM     40  N   LIG    1      -20.416  87.622  13.292  0.00  0.00    -0.260 NA
ATOM     41  C   LIG    1      -20.752  86.781  14.298  0.00  0.00    +0.135 A 
ENDBRANCH  35  36
ENDBRANCH  32  35
ENDBRANCH   1  31
TORSDOF 8
ENDMDL
MODEL 6
REMARK VINA RESULT:      -6.8      8.401     10.794
REMARK  Name = pdb/CHEMBL3942627.pdb
REMARK                            x       y       z     vdW  Elec       q    Type
REMARK                         _______ _______ _______ _____ _____    ______ ____
ROOT
ATOM      1  C   LIG    1      -31.957  74.126  29.513  0.00  0.00    +0.149 A 
ATOM      2  N   LIG    1      -31.891  75.454  29.341  0.00  0.00    -0.160 NA
ATOM      3  N   LIG    1      -32.971  75.788  28.598  0.00  0.00    -0.218 N 
ATOM      4  C   LIG    1      -33.731  74.667  28.250  0.00  0.00    +0.129 A 
ATOM      5  C   LIG    1      -33.090  73.592  28.841  0.00  0.00    +0.078 A 
ENDROOT
BRANCH   3   6
ATOM      6  C   LIG    1      -33.173  77.156  28.252  0.00  0.00    +0.067 A 
ATOM      7  C   LIG    1      -34.141  77.934  28.885  0.00  0.00    +0.028 A 
ATOM      8  C   LIG    1      -34.372  79.257  28.493  0.00  0.00    +0.002 A 
ATOM      9  C   LIG    1      -33.594  79.829  27.493  0.00  0.00    +0.000 A 
ATOM     10  C   LIG    1      -32.582  79.081  26.894  0.00  0.00    +0.002 A 
ATOM     11  C   LIG    1      -32.363  77.753  27.277  0.00  0.00    +0.028 A 
ENDBRANCH   3   6
BRANCH   4  12
ATOM     12  N   LIG    1      -34.827  74.595  27.379  0.00  0.00    -0.266 N 
ATOM     13  H   LIG    1      -34.604  74.493  26.377  0.00  0.00    +0.157 HD
ATOM     14  C   LIG    1      -36.209  74.672  27.801  0.00  0.00    +0.251 C 
ATOM     15  O   LIG    1      -36.511  74.789  28.967  0.00  0.00    -0.270 OA
BRANCH  14  16
ATOM     16  C   LIG    1      -37.247  74.524  26.724  0.00  0.00    +0.056 A 
ATOM     17  C   LIG    1      -37.579  73.324  26.065  0.00  0.00    +0.056 A 
ATOM     18 CL   LIG    1      -36.742  71.846  26.262  0.00  0.00    -0.083 Cl
ATOM     19  C   LIG    1      -38.606  73.285  25.131  0.00  0.00    +0.059 A 
ATOM     20  C   LIG    1      -39.283  74.443  24.788  0.00  0.00    +0.134 A 
ATOM     21  F   LIG    1      -40.247  74.322  23.864  0.00  0.00    -0.205 F 
ATOM     22  C   LIG    1      -38.943  75.687  25.343  0.00  0.00    +0.039 A 
ATOM     23  C   LIG    1      -37.934  75.695  26.328  0.00  0.00    +0.027 A 
BRANCH  22  24
ATOM     24  C   LIG    1      -39.611  76.921  24.887  0.00  0.00    +0.109 A 
ATOM     25  C   LIG    1      -40.884  77.309  25.310  0.00  0.00    +0.149 A 
ATOM     26  F   LIG    1      -41.610  76.547  26.141  0.00  0.00    -0.203 F 
ATOM     27  C   LIG    1      -41.413  78.522  24.887  0.00  0.00    +0.042 A 
ATOM     28  C   LIG    1      -40.663  79.331  24.042  0.00  0.00    +0.023 A 
ATOM     29  C   LIG    1      -39.417  78.879  23.646  0.00  0.00    +0.111 A 
ATOM     30  N   LIG    1      -38.888  77.699  24.039  0.00  0.00    -0.252 NA
ENDBRANCH  22  24
ENDBRANCH  14  16
ENDBRANCH   4  12
BRANCH   1  31
ATOM     31  C   LIG    1      -30.928  73.388  30.256  0.00  0.00    +0.236 C 
ATOM     32  N   LIG    1      -30.583  73.785  31.428  0.00  0.00    -0.243 NA
BRANCH  31  33
ATOM     33  O   LIG    1      -30.424  72.305  29.625  0.00  0.00    -0.491 OA
ATOM     34  H   LIG    1      -29.784  72.543  28.936  0.00  0.00    +0.294 HD
ENDBRANCH  31  33
BRANCH  32  35
ATOM     35  C   LIG    1      -29.646  72.987  32.219  0.00  0.00    +0.202 C 
BRANCH  35  36
ATOM     36  C   LIG    1      -28.205  73.366  32.001  0.00  0.00    +0.081 A 
ATOM     37  N   LIG    1      -27.860  74.670  32.188  0.00  0.00    -0.255 NA
ATOM     38  C   LIG    1      -26.548  74.954  31.983  0.00  0.00    +0.131 A 
ATOM     39  C   LIG    1      -25.618  73.989  31.627  0.00  0.00    +0.130 A 
ATOM     40  N   LIG    1      -25.954  72.692  31.452  0.00  0.00    -0.260 NA
ATOM     41  C   LIG    1      -27.262  72.403  31.649  0.00  0.00    +0.135 A 
ENDBRANCH  35  36
ENDBRANCH  32  35
ENDBRANCH   1  31
TORSDOF 8
ENDMDL
MODEL 7
REMARK VINA RESULT:      -6.8      9.173     11.895
REMARK  Name = pdb/CHEMBL3942627.pdb
REMARK                            x       y       z     vdW  Elec       q    Type
REMARK                         _______ _______ _______ _____ _____    ______ ____
ROOT
ATOM      1  C   LIG    1      -29.879  75.573  31.167  0.00  0.00    +0.149 A 
ATOM      2  N   LIG    1      -30.801  76.082  30.336  0.00  0.00    -0.160 NA
ATOM      3  N   LIG    1      -31.611  75.052  30.002  0.00  0.00    -0.218 N 
ATOM      4  C   LIG    1      -31.197  73.852  30.589  0.00  0.00    +0.129 A 
ATOM      5  C   LIG    1      -30.086  74.179  31.347  0.00  0.00    +0.078 A 
ENDROOT
BRANCH   3   6
ATOM      6  C   LIG    1      -32.704  75.292  29.118  0.00  0.00    +0.067 A 
ATOM      7  C   LIG    1      -33.791  74.423  29.048  0.00  0.00    +0.028 A 
ATOM      8  C   LIG    1      -34.827  74.636  28.133  0.00  0.00    +0.002 A 
ATOM      9  C   LIG    1      -34.806  75.758  27.312  0.00  0.00    +0.000 A 
ATOM     10  C   LIG    1      -33.754  76.667  27.414  0.00  0.00    +0.002 A 
ATOM     11  C   LIG    1      -32.711  76.444  28.320  0.00  0.00    +0.028 A 
ENDBRANCH   3   6
BRANCH   4  12
ATOM     12  N   LIG    1      -31.691  72.559  30.368  0.00  0.00    -0.266 N 
ATOM     13  H   LIG    1      -32.636  72.365  30.733  0.00  0.00    +0.157 HD
ATOM     14  C   LIG    1      -30.957  71.511  29.692  0.00  0.00    +0.251 C 
ATOM     15  O   LIG    1      -29.847  71.700  29.247  0.00  0.00    -0.270 OA
BRANCH  14  16
ATOM     16  C   LIG    1      -31.675  70.204  29.505  0.00  0.00    +0.056 A 
ATOM     17  C   LIG    1      -31.417  69.018  30.221  0.00  0.00    +0.056 A 
ATOM     18 CL   LIG    1      -30.126  68.811  31.323  0.00  0.00    -0.083 Cl
ATOM     19  C   LIG    1      -32.189  67.882  30.017  0.00  0.00    +0.059 A 
ATOM     20  C   LIG    1      -33.190  67.878  29.060  0.00  0.00    +0.134 A 
ATOM     21  F   LIG    1      -33.874  66.736  28.913  0.00  0.00    -0.205 F 
ATOM     22  C   LIG    1      -33.440  68.999  28.252  0.00  0.00    +0.039 A 
ATOM     23  C   LIG    1      -32.681  70.159  28.513  0.00  0.00    +0.027 A 
BRANCH  22  24
ATOM     24  C   LIG    1      -34.443  68.938  27.172  0.00  0.00    +0.109 A 
ATOM     25  C   LIG    1      -35.683  69.576  27.236  0.00  0.00    +0.149 A 
ATOM     26  F   LIG    1      -36.064  70.263  28.324  0.00  0.00    -0.203 F 
ATOM     27  C   LIG    1      -36.544  69.526  26.147  0.00  0.00    +0.042 A 
ATOM     28  C   LIG    1      -36.153  68.836  25.006  0.00  0.00    +0.023 A 
ATOM     29  C   LIG    1      -34.918  68.211  25.014  0.00  0.00    +0.111 A 
ATOM     30  N   LIG    1      -34.072  68.240  26.067  0.00  0.00    -0.252 NA
ENDBRANCH  22  24
ENDBRANCH  14  16
ENDBRANCH   4  12
BRANCH   1  31
ATOM     31  C   LIG    1      -28.799  76.397  31.724  0.00  0.00    +0.236 C 
ATOM     32  N   LIG    1      -27.845  75.837  32.377  0.00  0.00    -0.243 NA
BRANCH  31  33
ATOM     33  O   LIG    1      -28.897  77.722  31.478  0.00  0.00    -0.491 OA
ATOM     34  H   LIG    1      -29.499  77.918  30.742  0.00  0.00    +0.294 HD
ENDBRANCH  31  33
BRANCH  32  35
ATOM     35  C   LIG    1      -26.708  76.639  32.831  0.00  0.00    +0.202 C 
BRANCH  35  36
ATOM     36  C   LIG    1      -25.660  76.845  31.770  0.00  0.00    +0.081 A 
ATOM     37  N   LIG    1      -25.658  78.034  31.107  0.00  0.00    -0.255 NA
ATOM     38  C   LIG    1      -24.689  78.168  30.166  0.00  0.00    +0.131 A 
ATOM     39  C   LIG    1      -23.754  77.177  29.905  0.00  0.00    +0.130 A 
ATOM     40  N   LIG    1      -23.745  76.001  30.568  0.00  0.00    -0.260 NA
ATOM     41  C   LIG    1      -24.713  75.858  31.505  0.00  0.00    +0.135 A 
ENDBRANCH  35  36
ENDBRANCH  32  35
ENDBRANCH   1  31
TORSDOF 8
ENDMDL
MODEL 8
REMARK VINA RESULT:      -6.8     18.678     20.501
REMARK  Name = pdb/CHEMBL3942627.pdb
REMARK                            x       y       z     vdW  Elec       q    Type
REMARK                         _______ _______ _______ _____ _____    ______ ____
ROOT
ATOM      1  C   LIG    1      -19.860  81.652  14.624  0.00  0.00    +0.149 A 
ATOM      2  N   LIG    1      -21.120  81.282  14.350  0.00  0.00    -0.160 NA
ATOM      3  N   LIG    1      -21.296  80.085  14.956  0.00  0.00    -0.218 N 
ATOM      4  C   LIG    1      -20.134  79.651  15.600  0.00  0.00    +0.129 A 
ATOM      5  C   LIG    1      -19.205  80.656  15.399  0.00  0.00    +0.078 A 
ENDROOT
BRANCH   3   6
ATOM      6  C   LIG    1      -22.560  79.434  14.841  0.00  0.00    +0.067 A 
ATOM      7  C   LIG    1      -23.630  79.765  15.671  0.00  0.00    +0.028 A 
ATOM      8  C   LIG    1      -24.844  79.076  15.591  0.00  0.00    +0.002 A 
ATOM      9  C   LIG    1      -25.014  78.080  14.636  0.00  0.00    +0.000 A 
ATOM     10  C   LIG    1      -23.971  77.781  13.760  0.00  0.00    +0.002 A 
ATOM     11  C   LIG    1      -22.752  78.460  13.852  0.00  0.00    +0.028 A 
ENDBRANCH   3   6
BRANCH   4  12
ATOM     12  N   LIG    1      -19.886  78.411  16.207  0.00  0.00    -0.266 N 
ATOM     13  H   LIG    1      -19.916  78.396  17.237  0.00  0.00    +0.157 HD
ATOM     14  C   LIG    1      -19.581  77.196  15.481  0.00  0.00    +0.251 C 
ATOM     15  O   LIG    1      -19.540  77.173  14.272  0.00  0.00    -0.270 OA
BRANCH  14  16
ATOM     16  C   LIG    1      -19.396  75.953  16.305  0.00  0.00    +0.056 A 
ATOM     17  C   LIG    1      -18.288  75.674  17.130  0.00  0.00    +0.056 A 
ATOM     18 CL   LIG    1      -16.875  76.634  17.213  0.00  0.00    -0.083 Cl
ATOM     19  C   LIG    1      -18.249  74.523  17.906  0.00  0.00    +0.059 A 
ATOM     20  C   LIG    1      -19.277  73.598  17.835  0.00  0.00    +0.134 A 
ATOM     21  F   LIG    1      -19.153  72.505  18.600  0.00  0.00    -0.205 F 
ATOM     22  C   LIG    1      -20.368  73.773  16.968  0.00  0.00    +0.039 A 
ATOM     23  C   LIG    1      -20.413  74.975  16.230  0.00  0.00    +0.027 A 
BRANCH  22  24
ATOM     24  C   LIG    1      -21.400  72.727  16.837  0.00  0.00    +0.109 A 
ATOM     25  C   LIG    1      -22.481  72.598  17.710  0.00  0.00    +0.149 A 
ATOM     26  F   LIG    1      -22.629  73.409  18.769  0.00  0.00    -0.203 F 
ATOM     27  C   LIG    1      -23.447  71.627  17.476  0.00  0.00    +0.042 A 
ATOM     28  C   LIG    1      -23.317  70.794  16.372  0.00  0.00    +0.023 A 
ATOM     29  C   LIG    1      -22.212  70.963  15.556  0.00  0.00    +0.111 A 
ATOM     30  N   LIG    1      -21.257  71.895  15.772  0.00  0.00    -0.252 NA
ENDBRANCH  22  24
ENDBRANCH  14  16
ENDBRANCH   4  12
BRANCH   1  31
ATOM     31  C   LIG    1      -19.290  82.902  14.107  0.00  0.00    +0.236 C 
ATOM     32  N   LIG    1      -20.073  83.843  13.716  0.00  0.00    -0.243 NA
BRANCH  31  33
ATOM     33  O   LIG    1      -17.941  82.963  14.101  0.00  0.00    -0.491 OA
ATOM     34  H   LIG    1      -17.558  82.753  14.967  0.00  0.00    +0.294 HD
ENDBRANCH  31  33
BRANCH  32  35
ATOM     35  C   LIG    1      -19.511  85.133  13.311  0.00  0.00    +0.202 C 
BRANCH  35  36
ATOM     36  C   LIG    1      -20.395  86.304  13.654  0.00  0.00    +0.081 A 
ATOM     37  N   LIG    1      -21.584  86.040  14.263  0.00  0.00    -0.255 NA
ATOM     38  C   LIG    1      -22.336  87.132  14.554  0.00  0.00    +0.131 A 
ATOM     39  C   LIG    1      -21.923  88.425  14.271  0.00  0.00    +0.130 A 
ATOM     40  N   LIG    1      -20.740  88.691  13.678  0.00  0.00    -0.260 NA
ATOM     41  C   LIG    1      -19.987  87.607  13.379  0.00  0.00    +0.135 A 
ENDBRANCH  35  36
ENDBRANCH  32  35
ENDBRANCH   1  31
TORSDOF 8
ENDMDL
MODEL 9
REMARK VINA RESULT:      -6.7     11.609     13.253
REMARK  Name = pdb/CHEMBL3942627.pdb
REMARK                            x       y       z     vdW  Elec       q    Type
REMARK                         _______ _______ _______ _____ _____    ______ ____
ROOT
ATOM      1  C   LIG    1      -24.318  78.760  34.325  0.00  0.00    +0.149 A 
ATOM      2  N   LIG    1      -23.309  78.769  33.441  0.00  0.00    -0.160 NA
ATOM      3  N   LIG    1      -23.406  77.610  32.752  0.00  0.00    -0.218 N 
ATOM      4  C   LIG    1      -24.463  76.817  33.212  0.00  0.00    +0.129 A 
ATOM      5  C   LIG    1      -25.061  77.553  34.220  0.00  0.00    +0.078 A 
ENDROOT
BRANCH   3   6
ATOM      6  C   LIG    1      -22.455  77.336  31.725  0.00  0.00    +0.067 A 
ATOM      7  C   LIG    1      -22.844  77.159  30.399  0.00  0.00    +0.028 A 
ATOM      8  C   LIG    1      -21.910  76.829  29.412  0.00  0.00    +0.002 A 
ATOM      9  C   LIG    1      -20.563  76.725  29.740  0.00  0.00    +0.000 A 
ATOM     10  C   LIG    1      -20.153  76.960  31.052  0.00  0.00    +0.002 A 
ATOM     11  C   LIG    1      -21.092  77.274  32.041  0.00  0.00    +0.028 A 
ENDBRANCH   3   6
BRANCH   4  12
ATOM     12  N   LIG    1      -24.787  75.502  32.849  0.00  0.00    -0.266 N 
ATOM     13  H   LIG    1      -24.412  74.759  33.456  0.00  0.00    +0.157 HD
ATOM     14  C   LIG    1      -25.580  75.149  31.691  0.00  0.00    +0.251 C 
ATOM     15  O   LIG    1      -26.041  75.993  30.955  0.00  0.00    -0.270 OA
BRANCH  14  16
ATOM     16  C   LIG    1      -25.864  73.686  31.495  0.00  0.00    +0.056 A 
ATOM     17  C   LIG    1      -27.079  73.039  31.794  0.00  0.00    +0.056 A 
ATOM     18 CL   LIG    1      -28.401  73.778  32.588  0.00  0.00    -0.083 Cl
ATOM     19  C   LIG    1      -27.259  71.693  31.508  0.00  0.00    +0.059 A 
ATOM     20  C   LIG    1      -26.220  70.946  30.977  0.00  0.00    +0.134 A 
ATOM     21  F   LIG    1      -26.470  69.650  30.749  0.00  0.00    -0.205 F 
ATOM     22  C   LIG    1      -24.956  71.509  30.737  0.00  0.00    +0.039 A 
ATOM     23  C   LIG    1      -24.813  72.891  30.984  0.00  0.00    +0.027 A 
BRANCH  22  24
ATOM     24  C   LIG    1      -23.838  70.671  30.265  0.00  0.00    +0.109 A 
ATOM     25  C   LIG    1      -23.765  70.138  28.976  0.00  0.00    +0.149 A 
ATOM     26  F   LIG    1      -24.749  70.323  28.083  0.00  0.00    -0.203 F 
ATOM     27  C   LIG    1      -22.643  69.416  28.590  0.00  0.00    +0.042 A 
ATOM     28  C   LIG    1      -21.608  69.233  29.498  0.00  0.00    +0.023 A 
ATOM     29  C   LIG    1      -21.751  69.773  30.764  0.00  0.00    +0.111 A 
ATOM     30  N   LIG    1      -22.838  70.470  31.163  0.00  0.00    -0.252 NA
ENDBRANCH  22  24
ENDBRANCH  14  16
ENDBRANCH   4  12
BRANCH   1  31
ATOM     31  C   LIG    1      -24.523  79.857  35.279  0.00  0.00    +0.236 C 
ATOM     32  N   LIG    1      -23.575  80.696  35.495  0.00  0.00    -0.243 NA
BRANCH  31  33
ATOM     33  O   LIG    1      -25.743  79.899  35.858  0.00  0.00    -0.491 OA
ATOM     34  H   LIG    1      -26.461  79.879  35.206  0.00  0.00    +0.294 HD
ENDBRANCH  31  33
BRANCH  32  35
ATOM     35  C   LIG    1      -23.814  81.858  36.354  0.00  0.00    +0.202 C 
BRANCH  35  36
ATOM     36  C   LIG    1      -22.589  82.310  37.103  0.00  0.00    +0.081 A 
ATOM     37  N   LIG    1      -21.378  81.894  36.643  0.00  0.00    -0.255 NA
ATOM     38  C   LIG    1      -20.309  82.336  37.353  0.00  0.00    +0.131 A 
ATOM     39  C   LIG    1      -20.432  83.166  38.457  0.00  0.00    +0.130 A 
ATOM     40  N   LIG    1      -21.631  83.591  38.909  0.00  0.00    -0.260 NA
ATOM     41  C   LIG    1      -22.702  83.149  38.209  0.00  0.00    +0.135 A 
ENDBRANCH  35  36
ENDBRANCH  32  35
ENDBRANCH   1  31
TORSDOF 8
ENDMDL
