MODEL 1
REMARK VINA RESULT:      -6.4      0.000      0.000
REMARK  Name = pdb/CHEMBL3661627.pdb
REMARK                            x       y       z     vdW  Elec       q    Type
REMARK                         _______ _______ _______ _____ _____    ______ ____
ROOT
ATOM      1  C   LIG    1      -33.005  73.576  29.025  0.00  0.00    +0.042 A 
ATOM      2  C   LIG    1      -33.868  73.370  27.934  0.00  0.00    +0.038 A 
ATOM      3  C   LIG    1      -34.449  72.113  27.722  0.00  0.00    +0.052 A 
ATOM      4  C   LIG    1      -34.151  71.117  28.651  0.00  0.00    +0.134 A 
ATOM      5  N   LIG    1      -33.354  71.297  29.736  0.00  0.00    -0.261 NA
ATOM      6  C   LIG    1      -32.810  72.522  29.904  0.00  0.00    +0.122 A 
ENDROOT
BRANCH   3   7
ATOM      7  N   LIG    1      -35.272  71.932  26.584  0.00  0.00    -0.284 N 
ATOM      8  H   LIG    1      -34.804  71.905  25.685  0.00  0.00    +0.155 HD
ATOM      9  C   LIG    1      -36.654  71.761  26.595  0.00  0.00    +0.222 C 
ATOM     10  O   LIG    1      -37.351  71.774  27.600  0.00  0.00    -0.275 OA
BRANCH   9  11
ATOM     11  C   LIG    1      -37.233  71.529  25.201  0.00  0.00    +0.131 C 
BRANCH  11  12
ATOM     12  C   LIG    1      -38.299  72.531  24.815  0.00  0.00    -0.038 A 
ATOM     13  C   LIG    1      -38.048  73.907  24.923  0.00  0.00    +0.016 A 
ATOM     14  C   LIG    1      -39.006  74.856  24.524  0.00  0.00    +0.055 A 
ATOM     15  C   LIG    1      -40.230  74.407  24.008  0.00  0.00    +0.012 A 
ATOM     16  C   LIG    1      -40.487  73.041  23.892  0.00  0.00    +0.001 A 
ATOM     17  C   LIG    1      -39.527  72.108  24.289  0.00  0.00    +0.004 A 
BRANCH  14  18
ATOM     18  C   LIG    1      -38.700  76.327  24.651  0.00  0.00    +0.417 C 
ATOM     19  F   LIG    1      -39.296  77.074  23.681  0.00  0.00    -0.166 F 
ATOM     20  F   LIG    1      -37.366  76.587  24.551  0.00  0.00    -0.166 F 
ATOM     21  F   LIG    1      -39.095  76.871  25.837  0.00  0.00    -0.166 F 
ENDBRANCH  14  18
ENDBRANCH  11  12
ENDBRANCH   9  11
ENDBRANCH   3   7
BRANCH   1  22
ATOM     22  C   LIG    1      -32.364  74.896  29.235  0.00  0.00    +0.197 C 
ATOM     23  O   LIG    1      -31.150  74.921  29.462  0.00  0.00    -0.287 OA
BRANCH  22  31
ATOM     24  N   LIG    1      -34.601  77.761  29.831  0.00  0.00    -0.321 N 
ATOM     25  C   LIG    1      -33.944  78.206  28.698  0.00  0.00    +0.145 A 
ATOM     26  N   LIG    1      -34.136  79.386  28.078  0.00  0.00    -0.218 NA
ATOM     27  C   LIG    1      -33.362  79.515  26.983  0.00  0.00    +0.223 A 
ATOM     28  N   LIG    1      -32.455  78.647  26.497  0.00  0.00    -0.243 NA
ATOM     29  C   LIG    1      -32.279  77.486  27.168  0.00  0.00    +0.124 A 
ATOM     30  C   LIG    1      -33.041  77.219  28.306  0.00  0.00    +0.048 A 
ATOM     31  C   LIG    1      -33.155  76.126  29.217  0.00  0.00    +0.051 A 
ATOM     32  C   LIG    1      -34.148  76.485  30.110  0.00  0.00    +0.100 A 
BRANCH  24  34
ATOM     33  C   LIG    1      -36.173  77.634  31.787  0.00  0.00    +0.039 C 
ATOM     34  C   LIG    1      -35.623  78.501  30.617  0.00  0.00    +0.090 C 
BRANCH  34  35
ATOM     35  C   LIG    1      -35.000  79.776  31.253  0.00  0.00    +0.186 C 
BRANCH  35  36
ATOM     36  O   LIG    1      -34.189  79.447  32.386  0.00  0.00    -0.393 OA
ATOM     37  H   LIG    1      -33.317  79.169  32.053  0.00  0.00    +0.209 HD
ENDBRANCH  35  36
ENDBRANCH  34  35
BRANCH  34  38
ATOM     38  C   LIG    1      -36.820  78.903  29.721  0.00  0.00    +0.186 C 
BRANCH  38  39
ATOM     39  O   LIG    1      -36.778  80.291  29.381  0.00  0.00    -0.393 OA
ATOM     40  H   LIG    1      -37.361  80.406  28.611  0.00  0.00    +0.209 HD
ENDBRANCH  38  39
ENDBRANCH  34  38
ENDBRANCH  24  34
ENDBRANCH  22  31
ENDBRANCH   1  22
TORSDOF 11
ENDMDL
MODEL 2
REMARK VINA RESULT:      -6.1      1.612      2.173
REMARK  Name = pdb/CHEMBL3661627.pdb
REMARK                            x       y       z     vdW  Elec       q    Type
REMARK                         _______ _______ _______ _____ _____    ______ ____
ROOT
ATOM      1  C   LIG    1      -34.353  74.469  29.722  0.00  0.00    +0.042 A 
ATOM      2  C   LIG    1      -34.988  74.373  28.472  0.00  0.00    +0.038 A 
ATOM      3  C   LIG    1      -35.643  73.191  28.102  0.00  0.00    +0.052 A 
ATOM      4  C   LIG    1      -35.652  72.157  29.037  0.00  0.00    +0.134 A 
ATOM      5  N   LIG    1      -35.082  72.234  30.267  0.00  0.00    -0.261 NA
ATOM      6  C   LIG    1      -34.457  73.389  30.585  0.00  0.00    +0.122 A 
ENDROOT
BRANCH   3   7
ATOM      7  N   LIG    1      -36.228  73.117  26.814  0.00  0.00    -0.284 N 
ATOM      8  H   LIG    1      -35.590  73.081  26.027  0.00  0.00    +0.155 HD
ATOM      9  C   LIG    1      -37.592  73.060  26.539  0.00  0.00    +0.222 C 
ATOM     10  O   LIG    1      -38.476  73.096  27.383  0.00  0.00    -0.275 OA
BRANCH   9  11
ATOM     11  C   LIG    1      -37.890  72.923  25.048  0.00  0.00    +0.131 C 
BRANCH  11  12
ATOM     12  C   LIG    1      -39.036  73.792  24.578  0.00  0.00    -0.038 A 
ATOM     13  C   LIG    1      -38.925  75.190  24.619  0.00  0.00    +0.016 A 
ATOM     14  C   LIG    1      -39.958  76.017  24.143  0.00  0.00    +0.055 A 
ATOM     15  C   LIG    1      -41.114  75.422  23.617  0.00  0.00    +0.012 A 
ATOM     16  C   LIG    1      -41.231  74.033  23.566  0.00  0.00    +0.001 A 
ATOM     17  C   LIG    1      -40.198  73.223  24.040  0.00  0.00    +0.004 A 
BRANCH  14  18
ATOM     18  C   LIG    1      -39.804  77.516  24.200  0.00  0.00    +0.417 C 
ATOM     19  F   LIG    1      -38.630  77.903  24.771  0.00  0.00    -0.166 F 
ATOM     20  F   LIG    1      -40.787  78.108  24.935  0.00  0.00    -0.166 F 
ATOM     21  F   LIG    1      -39.842  78.119  22.978  0.00  0.00    -0.166 F 
ENDBRANCH  14  18
ENDBRANCH  11  12
ENDBRANCH   9  11
ENDBRANCH   3   7
BRANCH   1  22
ATOM     22  C   LIG    1      -33.632  75.707  30.104  0.00  0.00    +0.197 C 
ATOM     23  O   LIG    1      -32.847  75.649  31.056  0.00  0.00    -0.287 OA
BRANCH  22  31
ATOM     24  N   LIG    1      -34.662  79.037  28.914  0.00  0.00    -0.321 N 
ATOM     25  C   LIG    1      -33.723  78.721  27.949  0.00  0.00    +0.145 A 
ATOM     26  N   LIG    1      -33.353  79.498  26.914  0.00  0.00    -0.218 NA
ATOM     27  C   LIG    1      -32.434  78.898  26.132  0.00  0.00    +0.223 A 
ATOM     28  N   LIG    1      -31.867  77.688  26.292  0.00  0.00    -0.243 NA
ATOM     29  C   LIG    1      -32.252  76.954  27.361  0.00  0.00    +0.124 A 
ATOM     30  C   LIG    1      -33.220  77.453  28.234  0.00  0.00    +0.048 A 
ATOM     31  C   LIG    1      -33.879  76.966  29.403  0.00  0.00    +0.051 A 
ATOM     32  C   LIG    1      -34.780  77.951  29.762  0.00  0.00    +0.100 A 
BRANCH  24  34
ATOM     33  C   LIG    1      -34.533  81.457  29.574  0.00  0.00    +0.039 C 
ATOM     34  C   LIG    1      -35.427  80.306  29.032  0.00  0.00    +0.090 C 
BRANCH  34  35
ATOM     35  C   LIG    1      -35.951  80.756  27.639  0.00  0.00    +0.186 C 
BRANCH  35  36
ATOM     36  O   LIG    1      -35.129  81.792  27.088  0.00  0.00    -0.393 OA
ATOM     37  H   LIG    1      -34.680  81.427  26.305  0.00  0.00    +0.209 HD
ENDBRANCH  35  36
ENDBRANCH  34  35
BRANCH  34  38
ATOM     38  C   LIG    1      -36.624  80.137  30.001  0.00  0.00    +0.186 C 
BRANCH  38  39
ATOM     39  O   LIG    1      -37.832  79.841  29.298  0.00  0.00    -0.393 OA
ATOM     40  H   LIG    1      -37.919  78.872  29.293  0.00  0.00    +0.209 HD
ENDBRANCH  38  39
ENDBRANCH  34  38
ENDBRANCH  24  34
ENDBRANCH  22  31
ENDBRANCH   1  22
TORSDOF 11
ENDMDL
MODEL 3
REMARK VINA RESULT:      -6.0     12.105     15.954
REMARK  Name = pdb/CHEMBL3661627.pdb
REMARK                            x       y       z     vdW  Elec       q    Type
REMARK                         _______ _______ _______ _____ _____    ______ ____
ROOT
ATOM      1  C   LIG    1      -20.324  76.893  30.575  0.00  0.00    +0.042 A 
ATOM      2  C   LIG    1      -20.386  77.777  31.666  0.00  0.00    +0.038 A 
ATOM      3  C   LIG    1      -19.207  78.235  32.270  0.00  0.00    +0.052 A 
ATOM      4  C   LIG    1      -18.005  77.796  31.718  0.00  0.00    +0.134 A 
ATOM      5  N   LIG    1      -17.913  76.975  30.640  0.00  0.00    -0.261 NA
ATOM      6  C   LIG    1      -19.072  76.553  30.088  0.00  0.00    +0.122 A 
ENDROOT
BRANCH   3   7
ATOM      7  N   LIG    1      -19.312  79.085  33.399  0.00  0.00    -0.284 N 
ATOM      8  H   LIG    1      -19.541  80.055  33.216  0.00  0.00    +0.155 HD
ATOM      9  C   LIG    1      -19.157  78.699  34.728  0.00  0.00    +0.222 C 
ATOM     10  O   LIG    1      -18.877  77.567  35.097  0.00  0.00    -0.275 OA
BRANCH   9  11
ATOM     11  C   LIG    1      -19.394  79.845  35.708  0.00  0.00    +0.131 C 
BRANCH  11  12
ATOM     12  C   LIG    1      -20.814  80.369  35.694  0.00  0.00    -0.038 A 
ATOM     13  C   LIG    1      -21.863  79.553  35.243  0.00  0.00    +0.016 A 
ATOM     14  C   LIG    1      -23.195  80.002  35.266  0.00  0.00    +0.055 A 
ATOM     15  C   LIG    1      -23.469  81.288  35.753  0.00  0.00    +0.012 A 
ATOM     16  C   LIG    1      -22.433  82.104  36.209  0.00  0.00    +0.001 A 
ATOM     17  C   LIG    1      -21.115  81.647  36.183  0.00  0.00    +0.004 A 
BRANCH  14  18
ATOM     18  C   LIG    1      -24.299  79.097  34.778  0.00  0.00    +0.417 C 
ATOM     19  F   LIG    1      -24.132  77.804  35.169  0.00  0.00    -0.166 F 
ATOM     20  F   LIG    1      -24.375  79.066  33.417  0.00  0.00    -0.166 F 
ATOM     21  F   LIG    1      -25.539  79.461  35.209  0.00  0.00    -0.166 F 
ENDBRANCH  14  18
ENDBRANCH  11  12
ENDBRANCH   9  11
ENDBRANCH   3   7
BRANCH   1  22
ATOM     22  C   LIG    1      -21.569  76.383  29.953  0.00  0.00    +0.197 C 
ATOM     23  O   LIG    1      -21.662  76.426  28.722  0.00  0.00    -0.287 OA
BRANCH  22  31
ATOM     24  N   LIG    1      -23.848  74.661  32.279  0.00  0.00    -0.321 N 
ATOM     25  C   LIG    1      -24.665  75.701  31.874  0.00  0.00    +0.145 A 
ATOM     26  N   LIG    1      -25.923  75.935  32.293  0.00  0.00    -0.218 NA
ATOM     27  C   LIG    1      -26.466  77.012  31.693  0.00  0.00    +0.223 A 
ATOM     28  N   LIG    1      -25.898  77.839  30.795  0.00  0.00    -0.243 NA
ATOM     29  C   LIG    1      -24.624  77.579  30.425  0.00  0.00    +0.124 A 
ATOM     30  C   LIG    1      -23.958  76.474  30.954  0.00  0.00    +0.048 A 
ATOM     31  C   LIG    1      -22.670  75.885  30.776  0.00  0.00    +0.051 A 
ATOM     32  C   LIG    1      -22.660  74.756  31.576  0.00  0.00    +0.100 A 
BRANCH  24  34
ATOM     33  C   LIG    1      -22.991  72.612  33.452  0.00  0.00    +0.039 C 
ATOM     34  C   LIG    1      -24.171  73.612  33.281  0.00  0.00    +0.090 C 
BRANCH  34  35
ATOM     35  C   LIG    1      -24.428  74.252  34.675  0.00  0.00    +0.186 C 
BRANCH  35  36
ATOM     36  O   LIG    1      -23.217  74.343  35.434  0.00  0.00    -0.393 OA
ATOM     37  H   LIG    1      -23.464  74.483  36.366  0.00  0.00    +0.209 HD
ENDBRANCH  35  36
ENDBRANCH  34  35
BRANCH  34  38
ATOM     38  C   LIG    1      -25.419  72.804  32.847  0.00  0.00    +0.186 C 
BRANCH  38  39
ATOM     39  O   LIG    1      -25.071  71.734  31.965  0.00  0.00    -0.393 OA
ATOM     40  H   LIG    1      -25.760  71.704  31.279  0.00  0.00    +0.209 HD
ENDBRANCH  38  39
ENDBRANCH  34  38
ENDBRANCH  24  34
ENDBRANCH  22  31
ENDBRANCH   1  22
TORSDOF 11
ENDMDL
MODEL 4
REMARK VINA RESULT:      -6.0      2.270      4.140
REMARK  Name = pdb/CHEMBL3661627.pdb
REMARK                            x       y       z     vdW  Elec       q    Type
REMARK                         _______ _______ _______ _____ _____    ______ ____
ROOT
ATOM      1  C   LIG    1      -35.727  70.717  26.948  0.00  0.00    +0.042 A 
ATOM      2  C   LIG    1      -36.849  71.154  26.223  0.00  0.00    +0.038 A 
ATOM      3  C   LIG    1      -37.131  70.608  24.964  0.00  0.00    +0.052 A 
ATOM      4  C   LIG    1      -36.272  69.612  24.502  0.00  0.00    +0.134 A 
ATOM      5  N   LIG    1      -35.205  69.140  25.197  0.00  0.00    -0.261 NA
ATOM      6  C   LIG    1      -34.964  69.694  26.406  0.00  0.00    +0.122 A 
ENDROOT
BRANCH   3   7
ATOM      7  N   LIG    1      -38.241  71.111  24.242  0.00  0.00    -0.284 N 
ATOM      8  H   LIG    1      -38.047  71.510  23.330  0.00  0.00    +0.155 HD
ATOM      9  C   LIG    1      -39.569  71.080  24.660  0.00  0.00    +0.222 C 
ATOM     10  O   LIG    1      -39.952  70.633  25.733  0.00  0.00    -0.275 OA
BRANCH   9  11
ATOM     11  C   LIG    1      -40.531  71.649  23.621  0.00  0.00    +0.131 C 
BRANCH  11  12
ATOM     12  C   LIG    1      -40.688  73.152  23.702  0.00  0.00    -0.038 A 
ATOM     13  C   LIG    1      -39.639  73.947  24.187  0.00  0.00    +0.016 A 
ATOM     14  C   LIG    1      -39.745  75.348  24.225  0.00  0.00    +0.055 A 
ATOM     15  C   LIG    1      -40.924  75.952  23.765  0.00  0.00    +0.012 A 
ATOM     16  C   LIG    1      -41.970  75.170  23.275  0.00  0.00    +0.001 A 
ATOM     17  C   LIG    1      -41.853  73.780  23.239  0.00  0.00    +0.004 A 
BRANCH  14  18
ATOM     18  C   LIG    1      -38.596  76.172  24.750  0.00  0.00    +0.417 C 
ATOM     19  F   LIG    1      -38.747  76.512  26.060  0.00  0.00    -0.166 F 
ATOM     20  F   LIG    1      -38.454  77.348  24.077  0.00  0.00    -0.166 F 
ATOM     21  F   LIG    1      -37.387  75.548  24.663  0.00  0.00    -0.166 F 
ENDBRANCH  14  18
ENDBRANCH  11  12
ENDBRANCH   9  11
ENDBRANCH   3   7
BRANCH   1  22
ATOM     22  C   LIG    1      -35.408  71.314  28.267  0.00  0.00    +0.197 C 
ATOM     23  O   LIG    1      -35.816  70.734  29.279  0.00  0.00    -0.287 OA
BRANCH  22  31
ATOM     24  N   LIG    1      -34.175  74.784  28.283  0.00  0.00    -0.321 N 
ATOM     25  C   LIG    1      -33.100  74.149  28.876  0.00  0.00    +0.145 A 
ATOM     26  N   LIG    1      -31.971  74.737  29.316  0.00  0.00    -0.218 NA
ATOM     27  C   LIG    1      -31.097  73.844  29.822  0.00  0.00    +0.223 A 
ATOM     28  N   LIG    1      -31.247  72.512  29.948  0.00  0.00    -0.243 NA
ATOM     29  C   LIG    1      -32.408  71.971  29.515  0.00  0.00    +0.124 A 
ATOM     30  C   LIG    1      -33.386  72.787  28.944  0.00  0.00    +0.048 A 
ATOM     31  C   LIG    1      -34.672  72.573  28.363  0.00  0.00    +0.051 A 
ATOM     32  C   LIG    1      -35.101  73.817  27.937  0.00  0.00    +0.100 A 
BRANCH  24  34
ATOM     33  C   LIG    1      -35.664  76.560  27.313  0.00  0.00    +0.039 C 
ATOM     34  C   LIG    1      -34.326  76.243  28.042  0.00  0.00    +0.090 C 
BRANCH  34  35
ATOM     35  C   LIG    1      -34.350  77.018  29.390  0.00  0.00    +0.186 C 
BRANCH  35  36
ATOM     36  O   LIG    1      -33.072  77.596  29.678  0.00  0.00    -0.393 OA
ATOM     37  H   LIG    1      -33.155  78.560  29.573  0.00  0.00    +0.209 HD
ENDBRANCH  35  36
ENDBRANCH  34  35
BRANCH  34  38
ATOM     38  C   LIG    1      -33.168  76.777  27.162  0.00  0.00    +0.186 C 
BRANCH  38  39
ATOM     39  O   LIG    1      -33.399  78.127  26.754  0.00  0.00    -0.393 OA
ATOM     40  H   LIG    1      -32.541  78.477  26.455  0.00  0.00    +0.209 HD
ENDBRANCH  38  39
ENDBRANCH  34  38
ENDBRANCH  24  34
ENDBRANCH  22  31
ENDBRANCH   1  22
TORSDOF 11
ENDMDL
MODEL 5
REMARK VINA RESULT:      -6.0      2.221      3.464
REMARK  Name = pdb/CHEMBL3661627.pdb
REMARK                            x       y       z     vdW  Elec       q    Type
REMARK                         _______ _______ _______ _____ _____    ______ ____
ROOT
ATOM      1  C   LIG    1      -34.640  71.101  28.418  0.00  0.00    +0.042 A 
ATOM      2  C   LIG    1      -35.875  71.140  27.748  0.00  0.00    +0.038 A 
ATOM      3  C   LIG    1      -36.109  70.302  26.650  0.00  0.00    +0.052 A 
ATOM      4  C   LIG    1      -35.080  69.431  26.293  0.00  0.00    +0.134 A 
ATOM      5  N   LIG    1      -33.892  69.342  26.945  0.00  0.00    -0.261 NA
ATOM      6  C   LIG    1      -33.705  70.169  27.996  0.00  0.00    +0.122 A 
ENDROOT
BRANCH   3   7
ATOM      7  N   LIG    1      -37.347  70.406  25.970  0.00  0.00    -0.284 N 
ATOM      8  H   LIG    1      -38.167  70.079  26.469  0.00  0.00    +0.155 HD
ATOM      9  C   LIG    1      -37.538  70.942  24.699  0.00  0.00    +0.222 C 
ATOM     10  O   LIG    1      -36.645  71.371  23.982  0.00  0.00    -0.275 OA
BRANCH   9  11
ATOM     11  C   LIG    1      -39.006  70.964  24.280  0.00  0.00    +0.131 C 
BRANCH  11  12
ATOM     12  C   LIG    1      -39.587  72.358  24.185  0.00  0.00    -0.038 A 
ATOM     13  C   LIG    1      -38.832  73.467  24.599  0.00  0.00    +0.016 A 
ATOM     14  C   LIG    1      -39.333  74.775  24.474  0.00  0.00    +0.055 A 
ATOM     15  C   LIG    1      -40.608  74.963  23.922  0.00  0.00    +0.012 A 
ATOM     16  C   LIG    1      -41.363  73.867  23.503  0.00  0.00    +0.001 A 
ATOM     17  C   LIG    1      -40.855  72.574  23.629  0.00  0.00    +0.004 A 
BRANCH  14  18
ATOM     18  C   LIG    1      -38.494  75.944  24.926  0.00  0.00    +0.417 C 
ATOM     19  F   LIG    1      -38.674  77.051  24.154  0.00  0.00    -0.166 F 
ATOM     20  F   LIG    1      -37.160  75.671  24.875  0.00  0.00    -0.166 F 
ATOM     21  F   LIG    1      -38.743  76.337  26.207  0.00  0.00    -0.166 F 
ENDBRANCH  14  18
ENDBRANCH  11  12
ENDBRANCH   9  11
ENDBRANCH   3   7
BRANCH   1  22
ATOM     22  C   LIG    1      -34.378  72.008  29.561  0.00  0.00    +0.197 C 
ATOM     23  O   LIG    1      -34.694  71.622  30.691  0.00  0.00    -0.287 OA
BRANCH  22  31
ATOM     24  N   LIG    1      -33.563  75.494  28.693  0.00  0.00    -0.321 N 
ATOM     25  C   LIG    1      -32.483  75.193  29.501  0.00  0.00    +0.145 A 
ATOM     26  N   LIG    1      -31.476  76.026  29.828  0.00  0.00    -0.218 NA
ATOM     27  C   LIG    1      -30.558  75.429  30.612  0.00  0.00    +0.223 A 
ATOM     28  N   LIG    1      -30.563  74.170  31.091  0.00  0.00    -0.243 NA
ATOM     29  C   LIG    1      -31.607  73.379  30.756  0.00  0.00    +0.124 A 
ATOM     30  C   LIG    1      -32.614  73.872  29.925  0.00  0.00    +0.048 A 
ATOM     31  C   LIG    1      -33.806  73.337  29.349  0.00  0.00    +0.051 A 
ATOM     32  C   LIG    1      -34.334  74.352  28.572  0.00  0.00    +0.100 A 
BRANCH  24  34
ATOM     33  C   LIG    1      -32.726  77.218  27.068  0.00  0.00    +0.039 C 
ATOM     34  C   LIG    1      -33.859  76.801  28.049  0.00  0.00    +0.090 C 
BRANCH  34  35
ATOM     35  C   LIG    1      -35.169  76.713  27.217  0.00  0.00    +0.186 C 
BRANCH  35  36
ATOM     36  O   LIG    1      -35.867  77.964  27.216  0.00  0.00    -0.393 OA
ATOM     37  H   LIG    1      -36.820  77.769  27.261  0.00  0.00    +0.209 HD
ENDBRANCH  35  36
ENDBRANCH  34  35
BRANCH  34  38
ATOM     38  C   LIG    1      -34.000  77.918  29.114  0.00  0.00    +0.186 C 
BRANCH  38  39
ATOM     39  O   LIG    1      -33.361  79.126  28.695  0.00  0.00    -0.393 OA
ATOM     40  H   LIG    1      -33.373  79.123  27.722  0.00  0.00    +0.209 HD
ENDBRANCH  38  39
ENDBRANCH  34  38
ENDBRANCH  24  34
ENDBRANCH  22  31
ENDBRANCH   1  22
TORSDOF 11
ENDMDL
MODEL 6
REMARK VINA RESULT:      -5.9     18.508     21.077
REMARK  Name = pdb/CHEMBL3661627.pdb
REMARK                            x       y       z     vdW  Elec       q    Type
REMARK                         _______ _______ _______ _____ _____    ______ ____
ROOT
ATOM      1  C   LIG    1      -23.366  81.600  15.346  0.00  0.00    +0.042 A 
ATOM      2  C   LIG    1      -24.187  81.790  14.221  0.00  0.00    +0.038 A 
ATOM      3  C   LIG    1      -24.927  80.721  13.700  0.00  0.00    +0.052 A 
ATOM      4  C   LIG    1      -24.826  79.501  14.367  0.00  0.00    +0.134 A 
ATOM      5  N   LIG    1      -24.074  79.297  15.479  0.00  0.00    -0.261 NA
ATOM      6  C   LIG    1      -23.372  80.352  15.948  0.00  0.00    +0.122 A 
ENDROOT
BRANCH   3   7
ATOM      7  N   LIG    1      -25.703  80.940  12.535  0.00  0.00    -0.284 N 
ATOM      8  H   LIG    1      -26.686  81.147  12.676  0.00  0.00    +0.155 HD
ATOM      9  C   LIG    1      -25.231  80.924  11.225  0.00  0.00    +0.222 C 
ATOM     10  O   LIG    1      -24.075  80.686  10.903  0.00  0.00    -0.275 OA
BRANCH   9  11
ATOM     11  C   LIG    1      -26.313  81.259  10.202  0.00  0.00    +0.131 C 
BRANCH  11  12
ATOM     12  C   LIG    1      -26.719  82.717  10.206  0.00  0.00    -0.038 A 
ATOM     13  C   LIG    1      -25.801  83.704  10.598  0.00  0.00    +0.016 A 
ATOM     14  C   LIG    1      -26.141  85.068  10.564  0.00  0.00    +0.055 A 
ATOM     15  C   LIG    1      -27.421  85.437  10.126  0.00  0.00    +0.012 A 
ATOM     16  C   LIG    1      -28.338  84.463   9.728  0.00  0.00    +0.001 A 
ATOM     17  C   LIG    1      -27.988  83.112   9.764  0.00  0.00    +0.004 A 
BRANCH  14  18
ATOM     18  C   LIG    1      -25.130  86.102  10.989  0.00  0.00    +0.417 C 
ATOM     19  F   LIG    1      -24.645  85.882  12.242  0.00  0.00    -0.166 F 
ATOM     20  F   LIG    1      -25.655  87.359  11.011  0.00  0.00    -0.166 F 
ATOM     21  F   LIG    1      -24.039  86.172  10.174  0.00  0.00    -0.166 F 
ENDBRANCH  14  18
ENDBRANCH  11  12
ENDBRANCH   9  11
ENDBRANCH   3   7
BRANCH   1  22
ATOM     22  C   LIG    1      -22.557  82.722  15.882  0.00  0.00    +0.197 C 
ATOM     23  O   LIG    1      -22.436  82.815  17.108  0.00  0.00    -0.287 OA
BRANCH  22  31
ATOM     24  N   LIG    1      -21.473  85.683  13.979  0.00  0.00    -0.321 N 
ATOM     25  C   LIG    1      -20.579  84.748  13.490  0.00  0.00    +0.145 A 
ATOM     26  N   LIG    1      -19.609  84.972  12.584  0.00  0.00    -0.218 NA
ATOM     27  C   LIG    1      -18.920  83.852  12.291  0.00  0.00    +0.223 A 
ATOM     28  N   LIG    1      -19.078  82.618  12.806  0.00  0.00    -0.243 NA
ATOM     29  C   LIG    1      -20.049  82.448  13.732  0.00  0.00    +0.124 A 
ATOM     30  C   LIG    1      -20.853  83.527  14.103  0.00  0.00    +0.048 A 
ATOM     31  C   LIG    1      -21.959  83.710  14.986  0.00  0.00    +0.051 A 
ATOM     32  C   LIG    1      -22.331  85.036  14.849  0.00  0.00    +0.100 A 
BRANCH  24  34
ATOM     33  C   LIG    1      -21.707  87.341  12.106  0.00  0.00    +0.039 C 
ATOM     34  C   LIG    1      -21.528  87.129  13.637  0.00  0.00    +0.090 C 
BRANCH  34  35
ATOM     35  C   LIG    1      -22.741  87.807  14.333  0.00  0.00    +0.186 C 
BRANCH  35  36
ATOM     36  O   LIG    1      -22.315  88.652  15.408  0.00  0.00    -0.393 OA
ATOM     37  H   LIG    1      -21.776  89.366  15.025  0.00  0.00    +0.209 HD
ENDBRANCH  35  36
ENDBRANCH  34  35
BRANCH  34  38
ATOM     38  C   LIG    1      -20.222  87.844  14.065  0.00  0.00    +0.186 C 
BRANCH  38  39
ATOM     39  O   LIG    1      -19.858  87.513  15.407  0.00  0.00    -0.393 OA
ATOM     40  H   LIG    1      -19.836  86.541  15.456  0.00  0.00    +0.209 HD
ENDBRANCH  38  39
ENDBRANCH  34  38
ENDBRANCH  24  34
ENDBRANCH  22  31
ENDBRANCH   1  22
TORSDOF 11
ENDMDL
MODEL 7
REMARK VINA RESULT:      -5.9      2.730      5.586
REMARK  Name = pdb/CHEMBL3661627.pdb
REMARK                            x       y       z     vdW  Elec       q    Type
REMARK                         _______ _______ _______ _____ _____    ______ ____
ROOT
ATOM      1  C   LIG    1      -36.774  80.096  29.275  0.00  0.00    +0.042 A 
ATOM      2  C   LIG    1      -37.051  79.457  28.054  0.00  0.00    +0.038 A 
ATOM      3  C   LIG    1      -38.309  79.598  27.454  0.00  0.00    +0.052 A 
ATOM      4  C   LIG    1      -39.232  80.414  28.108  0.00  0.00    +0.134 A 
ATOM      5  N   LIG    1      -38.980  81.076  29.267  0.00  0.00    -0.261 NA
ATOM      6  C   LIG    1      -37.756  80.911  29.816  0.00  0.00    +0.122 A 
ENDROOT
BRANCH   3   7
ATOM      7  N   LIG    1      -38.566  78.898  26.249  0.00  0.00    -0.284 N 
ATOM      8  H   LIG    1      -38.181  79.297  25.401  0.00  0.00    +0.155 HD
ATOM      9  C   LIG    1      -39.272  77.703  26.135  0.00  0.00    +0.222 C 
ATOM     10  O   LIG    1      -39.794  77.109  27.068  0.00  0.00    -0.275 OA
BRANCH   9  11
ATOM     11  C   LIG    1      -39.317  77.177  24.702  0.00  0.00    +0.131 C 
BRANCH  11  12
ATOM     12  C   LIG    1      -39.300  75.666  24.612  0.00  0.00    -0.038 A 
ATOM     13  C   LIG    1      -40.396  74.979  24.068  0.00  0.00    +0.016 A 
ATOM     14  C   LIG    1      -40.381  73.579  23.930  0.00  0.00    +0.055 A 
ATOM     15  C   LIG    1      -39.245  72.869  24.345  0.00  0.00    +0.012 A 
ATOM     16  C   LIG    1      -38.149  73.545  24.881  0.00  0.00    +0.001 A 
ATOM     17  C   LIG    1      -38.174  74.935  25.011  0.00  0.00    +0.004 A 
BRANCH  14  18
ATOM     18  C   LIG    1      -41.574  72.873  23.338  0.00  0.00    +0.417 C 
ATOM     19  F   LIG    1      -41.232  71.757  22.637  0.00  0.00    -0.166 F 
ATOM     20  F   LIG    1      -42.259  73.663  22.464  0.00  0.00    -0.166 F 
ATOM     21  F   LIG    1      -42.488  72.467  24.264  0.00  0.00    -0.166 F 
ENDBRANCH  14  18
ENDBRANCH  11  12
ENDBRANCH   9  11
ENDBRANCH   3   7
BRANCH   1  22
ATOM     22  C   LIG    1      -35.455  79.924  29.929  0.00  0.00    +0.197 C 
ATOM     23  O   LIG    1      -35.130  80.737  30.800  0.00  0.00    -0.287 OA
BRANCH  22  31
ATOM     24  N   LIG    1      -33.467  76.859  29.460  0.00  0.00    -0.321 N 
ATOM     25  C   LIG    1      -33.106  77.551  28.320  0.00  0.00    +0.145 A 
ATOM     26  N   LIG    1      -32.264  77.122  27.360  0.00  0.00    -0.218 NA
ATOM     27  C   LIG    1      -32.093  78.038  26.388  0.00  0.00    +0.223 A 
ATOM     28  N   LIG    1      -32.667  79.251  26.276  0.00  0.00    -0.243 NA
ATOM     29  C   LIG    1      -33.524  79.628  27.251  0.00  0.00    +0.124 A 
ATOM     30  C   LIG    1      -33.767  78.778  28.331  0.00  0.00    +0.048 A 
ATOM     31  C   LIG    1      -34.550  78.850  29.522  0.00  0.00    +0.051 A 
ATOM     32  C   LIG    1      -34.306  77.670  30.202  0.00  0.00    +0.100 A 
BRANCH  24  34
ATOM     33  C   LIG    1      -33.526  74.431  28.817  0.00  0.00    +0.039 C 
ATOM     34  C   LIG    1      -33.036  75.489  29.847  0.00  0.00    +0.090 C 
BRANCH  34  35
ATOM     35  C   LIG    1      -31.484  75.399  29.885  0.00  0.00    +0.186 C 
BRANCH  35  36
ATOM     36  O   LIG    1      -30.906  76.623  30.354  0.00  0.00    -0.393 OA
ATOM     37  H   LIG    1      -31.465  76.953  31.081  0.00  0.00    +0.209 HD
ENDBRANCH  35  36
ENDBRANCH  34  35
BRANCH  34  38
ATOM     38  C   LIG    1      -33.609  75.104  31.233  0.00  0.00    +0.186 C 
BRANCH  38  39
ATOM     39  O   LIG    1      -32.575  74.977  32.212  0.00  0.00    -0.393 OA
ATOM     40  H   LIG    1      -32.972  75.214  33.068  0.00  0.00    +0.209 HD
ENDBRANCH  38  39
ENDBRANCH  34  38
ENDBRANCH  24  34
ENDBRANCH  22  31
ENDBRANCH   1  22
TORSDOF 11
ENDMDL
MODEL 8
REMARK VINA RESULT:      -5.8      4.239      9.387
REMARK  Name = pdb/CHEMBL3661627.pdb
REMARK                            x       y       z     vdW  Elec       q    Type
REMARK                         _______ _______ _______ _____ _____    ______ ____
ROOT
ATOM      1  C   LIG    1      -39.328  72.746  24.283  0.00  0.00    +0.042 A 
ATOM      2  C   LIG    1      -38.210  73.319  24.914  0.00  0.00    +0.038 A 
ATOM      3  C   LIG    1      -38.125  74.709  25.071  0.00  0.00    +0.052 A 
ATOM      4  C   LIG    1      -39.200  75.463  24.602  0.00  0.00    +0.134 A 
ATOM      5  N   LIG    1      -40.311  74.934  24.025  0.00  0.00    -0.261 NA
ATOM      6  C   LIG    1      -40.353  73.591  23.889  0.00  0.00    +0.122 A 
ENDROOT
BRANCH   3   7
ATOM      7  N   LIG    1      -36.960  75.253  25.666  0.00  0.00    -0.284 N 
ATOM      8  H   LIG    1      -36.191  75.469  25.043  0.00  0.00    +0.155 HD
ATOM      9  C   LIG    1      -36.793  75.540  27.019  0.00  0.00    +0.222 C 
ATOM     10  O   LIG    1      -37.631  75.330  27.885  0.00  0.00    -0.275 OA
BRANCH   9  11
ATOM     11  C   LIG    1      -35.440  76.176  27.326  0.00  0.00    +0.131 C 
BRANCH  11  12
ATOM     12  C   LIG    1      -34.456  75.223  27.968  0.00  0.00    -0.038 A 
ATOM     13  C   LIG    1      -33.373  75.719  28.711  0.00  0.00    +0.016 A 
ATOM     14  C   LIG    1      -32.475  74.852  29.356  0.00  0.00    +0.055 A 
ATOM     15  C   LIG    1      -32.675  73.468  29.252  0.00  0.00    +0.012 A 
ATOM     16  C   LIG    1      -33.752  72.965  28.521  0.00  0.00    +0.001 A 
ATOM     17  C   LIG    1      -34.639  73.836  27.886  0.00  0.00    +0.004 A 
BRANCH  14  18
ATOM     18  C   LIG    1      -31.324  75.420  30.148  0.00  0.00    +0.417 C 
ATOM     19  F   LIG    1      -30.422  74.471  30.523  0.00  0.00    -0.166 F 
ATOM     20  F   LIG    1      -31.737  76.014  31.303  0.00  0.00    -0.166 F 
ATOM     21  F   LIG    1      -30.611  76.369  29.478  0.00  0.00    -0.166 F 
ENDBRANCH  14  18
ENDBRANCH  11  12
ENDBRANCH   9  11
ENDBRANCH   3   7
BRANCH   1  22
ATOM     22  C   LIG    1      -39.407  71.278  24.088  0.00  0.00    +0.197 C 
ATOM     23  O   LIG    1      -40.499  70.794  23.773  0.00  0.00    -0.287 OA
BRANCH  22  31
ATOM     24  N   LIG    1      -36.561  69.302  25.336  0.00  0.00    -0.321 N 
ATOM     25  C   LIG    1      -36.564  68.902  24.013  0.00  0.00    +0.145 A 
ATOM     26  N   LIG    1      -35.723  68.014  23.447  0.00  0.00    -0.218 NA
ATOM     27  C   LIG    1      -35.964  67.855  22.131  0.00  0.00    +0.223 A 
ATOM     28  N   LIG    1      -36.920  68.438  21.383  0.00  0.00    -0.243 NA
ATOM     29  C   LIG    1      -37.756  69.302  22.001  0.00  0.00    +0.124 A 
ATOM     30  C   LIG    1      -37.594  69.575  23.360  0.00  0.00    +0.048 A 
ATOM     31  C   LIG    1      -38.238  70.428  24.306  0.00  0.00    +0.051 A 
ATOM     32  C   LIG    1      -37.548  70.257  25.493  0.00  0.00    +0.100 A 
BRANCH  24  34
ATOM     33  C   LIG    1      -36.275  69.061  27.821  0.00  0.00    +0.039 C 
ATOM     34  C   LIG    1      -35.659  68.814  26.414  0.00  0.00    +0.090 C 
BRANCH  34  35
ATOM     35  C   LIG    1      -35.434  67.281  26.280  0.00  0.00    +0.186 C 
BRANCH  35  36
ATOM     36  O   LIG    1      -34.136  66.994  25.748  0.00  0.00    -0.393 OA
ATOM     37  H   LIG    1      -33.914  67.700  25.115  0.00  0.00    +0.209 HD
ENDBRANCH  35  36
ENDBRANCH  34  35
BRANCH  34  38
ATOM     38  C   LIG    1      -34.293  69.543  26.358  0.00  0.00    +0.186 C 
BRANCH  38  39
ATOM     39  O   LIG    1      -33.917  69.852  25.015  0.00  0.00    -0.393 OA
ATOM     40  H   LIG    1      -33.340  69.129  24.714  0.00  0.00    +0.209 HD
ENDBRANCH  38  39
ENDBRANCH  34  38
ENDBRANCH  24  34
ENDBRANCH  22  31
ENDBRANCH   1  22
TORSDOF 11
ENDMDL
MODEL 9
REMARK VINA RESULT:      -5.8     19.612     22.670
REMARK  Name = pdb/CHEMBL3661627.pdb
REMARK                            x       y       z     vdW  Elec       q    Type
REMARK                         _______ _______ _______ _____ _____    ______ ____
ROOT
ATOM      1  C   LIG    1      -20.871  87.102  13.296  0.00  0.00    +0.042 A 
ATOM      2  C   LIG    1      -20.364  85.860  13.718  0.00  0.00    +0.038 A 
ATOM      3  C   LIG    1      -19.003  85.565  13.563  0.00  0.00    +0.052 A 
ATOM      4  C   LIG    1      -18.201  86.562  13.010  0.00  0.00    +0.134 A 
ATOM      5  N   LIG    1      -18.654  87.785  12.630  0.00  0.00    -0.261 NA
ATOM      6  C   LIG    1      -19.973  88.030  12.793  0.00  0.00    +0.122 A 
ENDROOT
BRANCH   3   7
ATOM      7  N   LIG    1      -18.541  84.284  13.954  0.00  0.00    -0.284 N 
ATOM      8  H   LIG    1      -18.175  84.202  14.896  0.00  0.00    +0.155 HD
ATOM      9  C   LIG    1      -18.571  83.132  13.173  0.00  0.00    +0.222 C 
ATOM     10  O   LIG    1      -18.979  83.081  12.021  0.00  0.00    -0.275 OA
BRANCH   9  11
ATOM     11  C   LIG    1      -18.053  81.901  13.912  0.00  0.00    +0.131 C 
BRANCH  11  12
ATOM     12  C   LIG    1      -19.073  81.281  14.842  0.00  0.00    -0.038 A 
ATOM     13  C   LIG    1      -20.264  81.962  15.140  0.00  0.00    +0.016 A 
ATOM     14  C   LIG    1      -21.246  81.383  15.962  0.00  0.00    +0.055 A 
ATOM     15  C   LIG    1      -21.024  80.102  16.486  0.00  0.00    +0.012 A 
ATOM     16  C   LIG    1      -19.847  79.414  16.190  0.00  0.00    +0.001 A 
ATOM     17  C   LIG    1      -18.879  79.997  15.371  0.00  0.00    +0.004 A 
BRANCH  14  18
ATOM     18  C   LIG    1      -22.515  82.142  16.259  0.00  0.00    +0.417 C 
ATOM     19  F   LIG    1      -22.523  83.390  15.715  0.00  0.00    -0.166 F 
ATOM     20  F   LIG    1      -22.708  82.321  17.596  0.00  0.00    -0.166 F 
ATOM     21  F   LIG    1      -23.643  81.528  15.802  0.00  0.00    -0.166 F 
ENDBRANCH  14  18
ENDBRANCH  11  12
ENDBRANCH   9  11
ENDBRANCH   3   7
BRANCH   1  22
ATOM     22  C   LIG    1      -22.316  87.406  13.430  0.00  0.00    +0.197 C 
ATOM     23  O   LIG    1      -22.669  88.142  14.357  0.00  0.00    -0.287 OA
BRANCH  22  31
ATOM     24  N   LIG    1      -24.646  85.309  11.497  0.00  0.00    -0.321 N 
ATOM     25  C   LIG    1      -24.968  86.553  10.986  0.00  0.00    +0.145 A 
ATOM     26  N   LIG    1      -25.905  86.813  10.054  0.00  0.00    -0.218 NA
ATOM     27  C   LIG    1      -25.962  88.123   9.744  0.00  0.00    +0.223 A 
ATOM     28  N   LIG    1      -25.241  89.134  10.264  0.00  0.00    -0.243 NA
ATOM     29  C   LIG    1      -24.331  88.827  11.215  0.00  0.00    +0.124 A 
ATOM     30  C   LIG    1      -24.154  87.500  11.606  0.00  0.00    +0.048 A 
ATOM     31  C   LIG    1      -23.294  86.817  12.518  0.00  0.00    +0.051 A 
ATOM     32  C   LIG    1      -23.603  85.475  12.390  0.00  0.00    +0.100 A 
BRANCH  24  34
ATOM     33  C   LIG    1      -24.984  83.603   9.684  0.00  0.00    +0.039 C 
ATOM     34  C   LIG    1      -25.286  84.012  11.155  0.00  0.00    +0.090 C 
BRANCH  34  35
ATOM     35  C   LIG    1      -24.734  82.877  12.064  0.00  0.00    +0.186 C 
BRANCH  35  36
ATOM     36  O   LIG    1      -25.677  82.526  13.083  0.00  0.00    -0.393 OA
ATOM     37  H   LIG    1      -26.567  82.585  12.693  0.00  0.00    +0.209 HD
ENDBRANCH  35  36
ENDBRANCH  34  35
BRANCH  34  38
ATOM     38  C   LIG    1      -26.825  84.099  11.316  0.00  0.00    +0.186 C 
BRANCH  38  39
ATOM     39  O   LIG    1      -27.188  84.699  12.561  0.00  0.00    -0.393 OA
ATOM     40  H   LIG    1      -26.552  84.375  13.222  0.00  0.00    +0.209 HD
ENDBRANCH  38  39
ENDBRANCH  34  38
ENDBRANCH  24  34
ENDBRANCH  22  31
ENDBRANCH   1  22
TORSDOF 11
ENDMDL
