MODEL 1
REMARK VINA RESULT:      -5.7      0.000      0.000
REMARK  Name = pdb/CHEMBL3676058.pdb
REMARK                            x       y       z     vdW  Elec       q    Type
REMARK                         _______ _______ _______ _____ _____    ______ ____
ROOT
ATOM      1  C   LIG    1      -23.937  79.726  35.209  0.00  0.00    +0.126 A 
ATOM      2  N   LIG    1      -24.189  79.016  34.128  0.00  0.00    -0.212 NA
ATOM      3  C   LIG    1      -25.356  78.284  34.089  0.00  0.00    +0.170 A 
ATOM      4  C   LIG    1      -25.871  77.383  33.167  0.00  0.00    +0.100 A 
ATOM      5  C   LIG    1      -27.103  76.975  33.717  0.00  0.00    +0.150 A 
ATOM      6  N   LIG    1      -27.372  77.548  34.887  0.00  0.00    -0.173 NA
ATOM      7  N   LIG    1      -26.289  78.320  35.130  0.00  0.00    -0.221 N 
ATOM      8  C   LIG    1      -26.042  79.062  36.267  0.00  0.00    +0.118 A 
ATOM      9  C   LIG    1      -24.909  79.758  36.377  0.00  0.00    +0.063 A 
ENDROOT
BRANCH   1  11
ATOM     10  C   LIG    1      -21.476  79.926  35.827  0.00  0.00    +0.107 C 
ATOM     11  N   LIG    1      -22.762  80.470  35.315  0.00  0.00    -0.308 N 
ATOM     12  C   LIG    1      -22.809  81.925  35.524  0.00  0.00    +0.107 C 
ATOM     13  C   LIG    1      -21.664  82.222  36.475  0.00  0.00    +0.021 C 
ATOM     14  C   LIG    1      -20.629  81.192  36.067  0.00  0.00    +0.029 C 
BRANCH  10  17
ATOM     15  C   LIG    1      -21.749  76.857  35.993  0.00  0.00    +0.066 C 
ATOM     16  C   LIG    1      -20.932  77.562  34.949  0.00  0.00    +0.043 A 
ATOM     17  C   LIG    1      -20.768  78.962  34.886  0.00  0.00    -0.003 A 
ATOM     18  C   LIG    1      -19.873  79.445  33.913  0.00  0.00    +0.047 A 
ATOM     19  C   LIG    1      -19.247  78.570  33.035  0.00  0.00    +0.142 A 
ATOM     20  F   LIG    1      -18.416  79.033  32.095  0.00  0.00    -0.204 F 
ATOM     21  C   LIG    1      -19.497  77.222  33.149  0.00  0.00    +0.149 A 
ATOM     22  N   LIG    1      -20.306  76.701  34.096  0.00  0.00    -0.257 NA
ENDBRANCH  10  17
ENDBRANCH   1  11
BRANCH   4  23
ATOM     23  C   LIG    1      -25.302  76.917  31.923  0.00  0.00    +0.250 C 
ATOM     24  N   LIG    1      -23.929  76.846  31.900  0.00  0.00    -0.306 N 
ATOM     25  H   LIG    1      -23.437  77.129  32.746  0.00  0.00    +0.150 HD
ATOM     26  O   LIG    1      -26.022  76.604  30.970  0.00  0.00    -0.270 OA
BRANCH  24  27
ATOM     27  C   LIG    1      -23.171  76.397  30.767  0.00  0.00    +0.032 C 
ATOM     28  C   LIG    1      -21.943  77.203  30.397  0.00  0.00    +0.027 C 
ATOM     29  C   LIG    1      -23.139  77.220  29.497  0.00  0.00    +0.027 C 
ATOM     30  C   LIG    1      -23.129  74.899  30.595  0.00  0.00    +0.031 C 
ENDBRANCH  24  27
ENDBRANCH   4  23
TORSDOF 4
ENDMDL
MODEL 2
REMARK VINA RESULT:      -5.4     18.407     21.863
REMARK  Name = pdb/CHEMBL3676058.pdb
REMARK                            x       y       z     vdW  Elec       q    Type
REMARK                         _______ _______ _______ _____ _____    ______ ____
ROOT
ATOM      1  C   LIG    1      -20.104  81.701  14.299  0.00  0.00    +0.126 A 
ATOM      2  N   LIG    1      -20.126  83.012  14.166  0.00  0.00    -0.212 NA
ATOM      3  C   LIG    1      -19.012  83.629  13.637  0.00  0.00    +0.170 A 
ATOM      4  C   LIG    1      -18.676  84.962  13.449  0.00  0.00    +0.100 A 
ATOM      5  C   LIG    1      -17.391  84.928  12.869  0.00  0.00    +0.150 A 
ATOM      6  N   LIG    1      -16.926  83.694  12.696  0.00  0.00    -0.173 NA
ATOM      7  N   LIG    1      -17.901  82.903  13.196  0.00  0.00    -0.221 N 
ATOM      8  C   LIG    1      -17.865  81.529  13.326  0.00  0.00    +0.118 A 
ATOM      9  C   LIG    1      -18.899  80.882  13.868  0.00  0.00    +0.063 A 
ENDROOT
BRANCH   1  11
ATOM     10  C   LIG    1      -22.613  81.376  14.578  0.00  0.00    +0.107 C 
ATOM     11  N   LIG    1      -21.193  81.023  14.847  0.00  0.00    -0.308 N 
ATOM     12  C   LIG    1      -21.083  80.346  16.147  0.00  0.00    +0.107 C 
ATOM     13  C   LIG    1      -22.418  80.583  16.828  0.00  0.00    +0.021 C 
ATOM     14  C   LIG    1      -23.382  80.586  15.658  0.00  0.00    +0.029 C 
BRANCH  10  17
ATOM     15  C   LIG    1      -23.268  83.475  12.414  0.00  0.00    +0.066 C 
ATOM     16  C   LIG    1      -23.368  81.993  12.190  0.00  0.00    +0.043 A 
ATOM     17  C   LIG    1      -23.110  81.024  13.184  0.00  0.00    -0.003 A 
ATOM     18  C   LIG    1      -23.366  79.685  12.834  0.00  0.00    +0.047 A 
ATOM     19  C   LIG    1      -23.791  79.360  11.554  0.00  0.00    +0.142 A 
ATOM     20  F   LIG    1      -24.012  78.084  11.217  0.00  0.00    -0.204 F 
ATOM     21  C   LIG    1      -23.982  80.370  10.640  0.00  0.00    +0.149 A 
ATOM     22  N   LIG    1      -23.800  81.674  10.936  0.00  0.00    -0.257 NA
ENDBRANCH  10  17
ENDBRANCH   1  11
BRANCH   4  23
ATOM     23  C   LIG    1      -19.427  86.153  13.777  0.00  0.00    +0.250 C 
ATOM     24  N   LIG    1      -20.752  85.943  14.075  0.00  0.00    -0.306 N 
ATOM     25  H   LIG    1      -21.089  84.982  14.035  0.00  0.00    +0.150 HD
ATOM     26  O   LIG    1      -18.887  87.264  13.789  0.00  0.00    -0.270 OA
BRANCH  24  27
ATOM     27  C   LIG    1      -21.665  86.989  14.439  0.00  0.00    +0.032 C 
ATOM     28  C   LIG    1      -22.963  87.071  13.664  0.00  0.00    +0.027 C 
ATOM     29  C   LIG    1      -21.927  88.136  13.487  0.00  0.00    +0.027 C 
ATOM     30  C   LIG    1      -21.682  87.323  15.910  0.00  0.00    +0.031 C 
ENDBRANCH  24  27
ENDBRANCH   4  23
TORSDOF 4
ENDMDL
MODEL 3
REMARK VINA RESULT:      -5.3      6.476     10.446
REMARK  Name = pdb/CHEMBL3676058.pdb
REMARK                            x       y       z     vdW  Elec       q    Type
REMARK                         _______ _______ _______ _____ _____    ______ ____
ROOT
ATOM      1  C   LIG    1      -31.507  75.749  31.149  0.00  0.00    +0.126 A 
ATOM      2  N   LIG    1      -30.209  75.911  31.312  0.00  0.00    -0.212 NA
ATOM      3  C   LIG    1      -29.769  76.477  32.489  0.00  0.00    +0.170 A 
ATOM      4  C   LIG    1      -28.513  76.863  32.934  0.00  0.00    +0.100 A 
ATOM      5  C   LIG    1      -28.737  77.385  34.225  0.00  0.00    +0.150 A 
ATOM      6  N   LIG    1      -30.015  77.350  34.591  0.00  0.00    -0.173 NA
ATOM      7  N   LIG    1      -30.649  76.828  33.518  0.00  0.00    -0.221 N 
ATOM      8  C   LIG    1      -32.011  76.661  33.364  0.00  0.00    +0.118 A 
ATOM      9  C   LIG    1      -32.496  76.154  32.229  0.00  0.00    +0.063 A 
ENDROOT
BRANCH   1  11
ATOM     10  C   LIG    1      -33.320  75.581  29.370  0.00  0.00    +0.107 C 
ATOM     11  N   LIG    1      -32.014  75.200  29.971  0.00  0.00    -0.308 N 
ATOM     12  C   LIG    1      -31.653  73.835  29.559  0.00  0.00    +0.107 C 
ATOM     13  C   LIG    1      -32.922  73.258  28.959  0.00  0.00    +0.021 C 
ATOM     14  C   LIG    1      -33.562  74.475  28.322  0.00  0.00    +0.029 C 
BRANCH  10  17
ATOM     15  C   LIG    1      -34.944  77.953  30.491  0.00  0.00    +0.066 C 
ATOM     16  C   LIG    1      -34.071  78.047  29.274  0.00  0.00    +0.043 A 
ATOM     17  C   LIG    1      -33.354  76.961  28.729  0.00  0.00    -0.003 A 
ATOM     18  C   LIG    1      -32.679  77.200  27.517  0.00  0.00    +0.047 A 
ATOM     19  C   LIG    1      -32.684  78.465  26.946  0.00  0.00    +0.142 A 
ATOM     20  F   LIG    1      -32.022  78.696  25.807  0.00  0.00    -0.204 F 
ATOM     21  C   LIG    1      -33.381  79.474  27.569  0.00  0.00    +0.149 A 
ATOM     22  N   LIG    1      -34.087  79.287  28.704  0.00  0.00    -0.257 NA
ENDBRANCH  10  17
ENDBRANCH   1  11
BRANCH   4  23
ATOM     23  C   LIG    1      -27.237  76.789  32.259  0.00  0.00    +0.250 C 
ATOM     24  N   LIG    1      -26.152  77.148  33.023  0.00  0.00    -0.306 N 
ATOM     25  H   LIG    1      -26.336  77.436  33.983  0.00  0.00    +0.150 HD
ATOM     26  O   LIG    1      -27.158  76.419  31.083  0.00  0.00    -0.270 OA
BRANCH  24  27
ATOM     27  C   LIG    1      -24.798  77.132  32.545  0.00  0.00    +0.032 C 
ATOM     28  C   LIG    1      -23.946  78.346  32.849  0.00  0.00    +0.027 C 
ATOM     29  C   LIG    1      -24.369  78.072  31.440  0.00  0.00    +0.027 C 
ATOM     30  C   LIG    1      -24.146  75.771  32.558  0.00  0.00    +0.031 C 
ENDBRANCH  24  27
ENDBRANCH   4  23
TORSDOF 4
ENDMDL
MODEL 4
REMARK VINA RESULT:      -5.2     13.383     17.267
REMARK  Name = pdb/CHEMBL3676058.pdb
REMARK                            x       y       z     vdW  Elec       q    Type
REMARK                         _______ _______ _______ _____ _____    ______ ____
ROOT
ATOM      1  C   LIG    1      -37.060  76.132  26.560  0.00  0.00    +0.126 A 
ATOM      2  N   LIG    1      -36.496  77.309  26.744  0.00  0.00    -0.212 NA
ATOM      3  C   LIG    1      -35.590  77.440  27.776  0.00  0.00    +0.170 A 
ATOM      4  C   LIG    1      -34.901  78.530  28.288  0.00  0.00    +0.100 A 
ATOM      5  C   LIG    1      -34.138  78.002  29.350  0.00  0.00    +0.150 A 
ATOM      6  N   LIG    1      -34.310  76.694  29.521  0.00  0.00    -0.173 NA
ATOM      7  N   LIG    1      -35.223  76.359  28.582  0.00  0.00    -0.221 N 
ATOM      8  C   LIG    1      -35.802  75.119  28.400  0.00  0.00    +0.118 A 
ATOM      9  C   LIG    1      -36.715  74.943  27.442  0.00  0.00    +0.063 A 
ENDROOT
BRANCH   1  11
ATOM     10  C   LIG    1      -39.370  76.518  25.565  0.00  0.00    +0.107 C 
ATOM     11  N   LIG    1      -37.999  75.943  25.546  0.00  0.00    -0.308 N 
ATOM     12  C   LIG    1      -37.976  74.730  24.715  0.00  0.00    +0.107 C 
ATOM     13  C   LIG    1      -39.435  74.383  24.488  0.00  0.00    +0.021 C 
ATOM     14  C   LIG    1      -40.090  75.749  24.438  0.00  0.00    +0.029 C 
BRANCH  10  17
ATOM     15  C   LIG    1      -39.731  78.585  27.827  0.00  0.00    +0.066 C 
ATOM     16  C   LIG    1      -39.565  78.957  26.382  0.00  0.00    +0.043 A 
ATOM     17  C   LIG    1      -39.439  78.021  25.333  0.00  0.00    -0.003 A 
ATOM     18  C   LIG    1      -39.410  78.543  24.027  0.00  0.00    +0.047 A 
ATOM     19  C   LIG    1      -39.444  79.914  23.814  0.00  0.00    +0.142 A 
ATOM     20  F   LIG    1      -39.392  80.409  22.573  0.00  0.00    -0.204 F 
ATOM     21  C   LIG    1      -39.531  80.753  24.901  0.00  0.00    +0.149 A 
ATOM     22  N   LIG    1      -39.613  80.305  26.172  0.00  0.00    -0.257 NA
ENDBRANCH  10  17
ENDBRANCH   1  11
BRANCH   4  23
ATOM     23  C   LIG    1      -34.940  79.916  27.879  0.00  0.00    +0.250 C 
ATOM     24  N   LIG    1      -35.904  80.679  28.494  0.00  0.00    -0.306 N 
ATOM     25  H   LIG    1      -36.503  80.209  29.172  0.00  0.00    +0.150 HD
ATOM     26  O   LIG    1      -34.146  80.356  27.042  0.00  0.00    -0.270 OA
BRANCH  24  27
ATOM     27  C   LIG    1      -36.100  82.078  28.239  0.00  0.00    +0.032 C 
ATOM     28  C   LIG    1      -37.521  82.542  28.002  0.00  0.00    +0.027 C 
ATOM     29  C   LIG    1      -36.542  82.546  26.870  0.00  0.00    +0.027 C 
ATOM     30  C   LIG    1      -35.158  82.989  28.987  0.00  0.00    +0.031 C 
ENDBRANCH  24  27
ENDBRANCH   4  23
TORSDOF 4
ENDMDL
MODEL 5
REMARK VINA RESULT:      -5.2      2.162      5.046
REMARK  Name = pdb/CHEMBL3676058.pdb
REMARK                            x       y       z     vdW  Elec       q    Type
REMARK                         _______ _______ _______ _____ _____    ______ ____
ROOT
ATOM      1  C   LIG    1      -20.597  77.864  32.660  0.00  0.00    +0.126 A 
ATOM      2  N   LIG    1      -21.890  77.622  32.742  0.00  0.00    -0.212 NA
ATOM      3  C   LIG    1      -22.601  77.490  31.568  0.00  0.00    +0.170 A 
ATOM      4  C   LIG    1      -23.954  77.328  31.302  0.00  0.00    +0.100 A 
ATOM      5  C   LIG    1      -24.035  77.267  29.895  0.00  0.00    +0.150 A 
ATOM      6  N   LIG    1      -22.854  77.382  29.295  0.00  0.00    -0.173 NA
ATOM      7  N   LIG    1      -21.983  77.553  30.315  0.00  0.00    -0.221 N 
ATOM      8  C   LIG    1      -20.630  77.803  30.213  0.00  0.00    +0.118 A 
ATOM      9  C   LIG    1      -19.898  77.978  31.315  0.00  0.00    +0.063 A 
ENDROOT
BRANCH   1  11
ATOM     10  C   LIG    1      -19.947  79.188  34.734  0.00  0.00    +0.107 C 
ATOM     11  N   LIG    1      -19.828  78.027  33.812  0.00  0.00    -0.308 N 
ATOM     12  C   LIG    1      -18.479  77.449  33.906  0.00  0.00    +0.107 C 
ATOM     13  C   LIG    1      -17.662  78.481  34.661  0.00  0.00    +0.021 C 
ATOM     14  C   LIG    1      -18.684  79.071  35.612  0.00  0.00    +0.029 C 
BRANCH  10  17
ATOM     15  C   LIG    1      -21.482  81.762  35.468  0.00  0.00    +0.066 C 
ATOM     16  C   LIG    1      -21.922  80.387  35.881  0.00  0.00    +0.043 A 
ATOM     17  C   LIG    1      -21.208  79.206  35.585  0.00  0.00    -0.003 A 
ATOM     18  C   LIG    1      -21.703  78.016  36.151  0.00  0.00    +0.047 A 
ATOM     19  C   LIG    1      -22.868  78.025  36.904  0.00  0.00    +0.142 A 
ATOM     20  F   LIG    1      -23.350  76.890  37.421  0.00  0.00    -0.204 F 
ATOM     21  C   LIG    1      -23.518  79.221  37.110  0.00  0.00    +0.149 A 
ATOM     22  N   LIG    1      -23.060  80.398  36.634  0.00  0.00    -0.257 NA
ENDBRANCH  10  17
ENDBRANCH   1  11
BRANCH   4  23
ATOM     23  C   LIG    1      -25.068  77.255  32.220  0.00  0.00    +0.250 C 
ATOM     24  N   LIG    1      -24.752  76.824  33.486  0.00  0.00    -0.306 N 
ATOM     25  H   LIG    1      -23.777  76.590  33.666  0.00  0.00    +0.150 HD
ATOM     26  O   LIG    1      -26.208  77.572  31.866  0.00  0.00    -0.270 OA
BRANCH  24  27
ATOM     27  C   LIG    1      -25.709  76.694  34.548  0.00  0.00    +0.032 C 
ATOM     28  C   LIG    1      -25.560  75.500  35.468  0.00  0.00    +0.027 C 
ATOM     29  C   LIG    1      -26.722  75.569  34.527  0.00  0.00    +0.027 C 
ATOM     30  C   LIG    1      -26.175  78.003  35.136  0.00  0.00    +0.031 C 
ENDBRANCH  24  27
ENDBRANCH   4  23
TORSDOF 4
ENDMDL
MODEL 6
REMARK VINA RESULT:      -5.0     19.474     22.006
REMARK  Name = pdb/CHEMBL3676058.pdb
REMARK                            x       y       z     vdW  Elec       q    Type
REMARK                         _______ _______ _______ _____ _____    ______ ____
ROOT
ATOM      1  C   LIG    1      -32.158  68.154  16.391  0.00  0.00    +0.126 A 
ATOM      2  N   LIG    1      -33.310  67.872  16.965  0.00  0.00    -0.212 NA
ATOM      3  C   LIG    1      -34.191  67.058  16.285  0.00  0.00    +0.170 A 
ATOM      4  C   LIG    1      -35.489  66.648  16.553  0.00  0.00    +0.100 A 
ATOM      5  C   LIG    1      -35.837  65.827  15.460  0.00  0.00    +0.150 A 
ATOM      6  N   LIG    1      -34.864  65.711  14.560  0.00  0.00    -0.173 NA
ATOM      7  N   LIG    1      -33.873  66.491  15.047  0.00  0.00    -0.221 N 
ATOM      8  C   LIG    1      -32.668  66.774  14.435  0.00  0.00    +0.118 A 
ATOM      9  C   LIG    1      -31.793  67.588  15.029  0.00  0.00    +0.063 A 
ENDROOT
BRANCH   1  11
ATOM     10  C   LIG    1      -30.791  68.825  18.430  0.00  0.00    +0.107 C 
ATOM     11  N   LIG    1      -31.234  68.989  17.020  0.00  0.00    -0.308 N 
ATOM     12  C   LIG    1      -31.084  70.393  16.608  0.00  0.00    +0.107 C 
ATOM     13  C   LIG    1      -30.849  71.157  17.898  0.00  0.00    +0.021 C 
ATOM     14  C   LIG    1      -30.073  70.157  18.731  0.00  0.00    +0.029 C 
BRANCH  10  17
ATOM     15  C   LIG    1      -31.739  66.149  19.639  0.00  0.00    +0.066 C 
ATOM     16  C   LIG    1      -30.327  66.406  19.198  0.00  0.00    +0.043 A 
ATOM     17  C   LIG    1      -29.872  67.638  18.681  0.00  0.00    -0.003 A 
ATOM     18  C   LIG    1      -28.491  67.739  18.428  0.00  0.00    +0.047 A 
ATOM     19  C   LIG    1      -27.656  66.649  18.629  0.00  0.00    +0.142 A 
ATOM     20  F   LIG    1      -26.348  66.741  18.365  0.00  0.00    -0.204 F 
ATOM     21  C   LIG    1      -28.196  65.476  19.102  0.00  0.00    +0.149 A 
ATOM     22  N   LIG    1      -29.503  65.339  19.409  0.00  0.00    -0.257 NA
ENDBRANCH  10  17
ENDBRANCH   1  11
BRANCH   4  23
ATOM     23  C   LIG    1      -36.344  66.977  17.671  0.00  0.00    +0.250 C 
ATOM     24  N   LIG    1      -35.721  66.991  18.897  0.00  0.00    -0.306 N 
ATOM     25  H   LIG    1      -34.727  66.767  18.913  0.00  0.00    +0.150 HD
ATOM     26  O   LIG    1      -37.541  67.232  17.506  0.00  0.00    -0.270 OA
BRANCH  24  27
ATOM     27  C   LIG    1      -36.387  67.306  20.129  0.00  0.00    +0.032 C 
ATOM     28  C   LIG    1      -35.714  66.860  21.409  0.00  0.00    +0.027 C 
ATOM     29  C   LIG    1      -36.986  66.203  20.974  0.00  0.00    +0.027 C 
ATOM     30  C   LIG    1      -37.126  68.622  20.122  0.00  0.00    +0.031 C 
ENDBRANCH  24  27
ENDBRANCH   4  23
TORSDOF 4
ENDMDL
MODEL 7
REMARK VINA RESULT:      -5.0      1.980      5.198
REMARK  Name = pdb/CHEMBL3676058.pdb
REMARK                            x       y       z     vdW  Elec       q    Type
REMARK                         _______ _______ _______ _____ _____    ______ ____
ROOT
ATOM      1  C   LIG    1      -21.156  76.990  31.140  0.00  0.00    +0.126 A 
ATOM      2  N   LIG    1      -22.059  77.186  32.080  0.00  0.00    -0.212 NA
ATOM      3  C   LIG    1      -23.382  77.267  31.702  0.00  0.00    +0.170 A 
ATOM      4  C   LIG    1      -24.545  77.549  32.406  0.00  0.00    +0.100 A 
ATOM      5  C   LIG    1      -25.570  77.486  31.439  0.00  0.00    +0.150 A 
ATOM      6  N   LIG    1      -25.125  77.195  30.220  0.00  0.00    -0.173 NA
ATOM      7  N   LIG    1      -23.786  77.095  30.375  0.00  0.00    -0.221 N 
ATOM      8  C   LIG    1      -22.853  76.886  29.379  0.00  0.00    +0.118 A 
ATOM      9  C   LIG    1      -21.554  76.838  29.682  0.00  0.00    +0.063 A 
ENDROOT
BRANCH   1  11
ATOM     10  C   LIG    1      -19.026  78.040  32.057  0.00  0.00    +0.107 C 
ATOM     11  N   LIG    1      -19.800  76.919  31.458  0.00  0.00    -0.308 N 
ATOM     12  C   LIG    1      -18.897  76.028  30.715  0.00  0.00    +0.107 C 
ATOM     13  C   LIG    1      -17.598  76.803  30.589  0.00  0.00    +0.021 C 
ATOM     14  C   LIG    1      -17.561  77.588  31.885  0.00  0.00    +0.029 C 
BRANCH  10  17
ATOM     15  C   LIG    1      -18.711  75.972  34.324  0.00  0.00    +0.066 C 
ATOM     16  C   LIG    1      -19.157  77.388  34.549  0.00  0.00    +0.043 A 
ATOM     17  C   LIG    1      -19.343  78.332  33.516  0.00  0.00    -0.003 A 
ATOM     18  C   LIG    1      -19.877  79.577  33.894  0.00  0.00    +0.047 A 
ATOM     19  C   LIG    1      -20.139  79.856  35.229  0.00  0.00    +0.142 A 
ATOM     20  F   LIG    1      -20.625  81.049  35.589  0.00  0.00    -0.204 F 
ATOM     21  C   LIG    1      -19.892  78.885  36.172  0.00  0.00    +0.149 A 
ATOM     22  N   LIG    1      -19.428  77.657  35.859  0.00  0.00    -0.257 NA
ENDBRANCH  10  17
ENDBRANCH   1  11
BRANCH   4  23
ATOM     23  C   LIG    1      -24.717  77.866  33.805  0.00  0.00    +0.250 C 
ATOM     24  N   LIG    1      -23.913  78.875  34.278  0.00  0.00    -0.306 N 
ATOM     25  H   LIG    1      -23.270  79.304  33.613  0.00  0.00    +0.150 HD
ATOM     26  O   LIG    1      -25.541  77.262  34.499  0.00  0.00    -0.270 OA
BRANCH  24  27
ATOM     27  C   LIG    1      -23.938  79.350  35.632  0.00  0.00    +0.032 C 
ATOM     28  C   LIG    1      -25.125  80.195  36.044  0.00  0.00    +0.027 C 
ATOM     29  C   LIG    1      -23.773  80.825  35.925  0.00  0.00    +0.027 C 
ATOM     30  C   LIG    1      -23.346  78.397  36.641  0.00  0.00    +0.031 C 
ENDBRANCH  24  27
ENDBRANCH   4  23
TORSDOF 4
ENDMDL
MODEL 8
REMARK VINA RESULT:      -4.9     18.538     21.636
REMARK  Name = pdb/CHEMBL3676058.pdb
REMARK                            x       y       z     vdW  Elec       q    Type
REMARK                         _______ _______ _______ _____ _____    ______ ____
ROOT
ATOM      1  C   LIG    1      -38.477  72.157  24.747  0.00  0.00    +0.126 A 
ATOM      2  N   LIG    1      -39.621  72.287  24.106  0.00  0.00    -0.212 NA
ATOM      3  C   LIG    1      -40.140  73.556  23.956  0.00  0.00    +0.170 A 
ATOM      4  C   LIG    1      -41.335  74.026  23.429  0.00  0.00    +0.100 A 
ATOM      5  C   LIG    1      -41.264  75.427  23.578  0.00  0.00    +0.150 A 
ATOM      6  N   LIG    1      -40.135  75.837  24.151  0.00  0.00    -0.173 NA
ATOM      7  N   LIG    1      -39.466  74.692  24.413  0.00  0.00    -0.221 N 
ATOM      8  C   LIG    1      -38.265  74.573  25.082  0.00  0.00    +0.118 A 
ATOM      9  C   LIG    1      -37.734  73.366  25.291  0.00  0.00    +0.063 A 
ENDROOT
BRANCH   1  11
ATOM     10  C   LIG    1      -38.680  69.625  24.899  0.00  0.00    +0.107 C 
ATOM     11  N   LIG    1      -37.912  70.898  24.947  0.00  0.00    -0.308 N 
ATOM     12  C   LIG    1      -36.721  70.732  25.794  0.00  0.00    +0.107 C 
ATOM     13  C   LIG    1      -36.945  69.427  26.535  0.00  0.00    +0.021 C 
ATOM     14  C   LIG    1      -37.704  68.601  25.515  0.00  0.00    +0.029 C 
BRANCH  10  17
ATOM     15  C   LIG    1      -41.433  68.375  24.284  0.00  0.00    +0.066 C 
ATOM     16  C   LIG    1      -40.398  68.659  23.234  0.00  0.00    +0.043 A 
ATOM     17  C   LIG    1      -39.121  69.194  23.507  0.00  0.00    -0.003 A 
ATOM     18  C   LIG    1      -38.234  69.285  22.418  0.00  0.00    +0.047 A 
ATOM     19  C   LIG    1      -38.643  68.920  21.143  0.00  0.00    +0.142 A 
ATOM     20  F   LIG    1      -37.806  69.030  20.106  0.00  0.00    -0.204 F 
ATOM     21  C   LIG    1      -39.921  68.442  20.966  0.00  0.00    +0.149 A 
ATOM     22  N   LIG    1      -40.795  68.286  21.983  0.00  0.00    -0.257 NA
ENDBRANCH  10  17
ENDBRANCH   1  11
BRANCH   4  23
ATOM     23  C   LIG    1      -42.443  73.289  22.864  0.00  0.00    +0.250 C 
ATOM     24  N   LIG    1      -42.091  72.192  22.115  0.00  0.00    -0.306 N 
ATOM     25  H   LIG    1      -41.096  71.997  22.018  0.00  0.00    +0.150 HD
ATOM     26  O   LIG    1      -43.610  73.639  23.065  0.00  0.00    -0.270 OA
BRANCH  24  27
ATOM     27  C   LIG    1      -43.039  71.320  21.480  0.00  0.00    +0.032 C 
ATOM     28  C   LIG    1      -42.679  70.796  20.106  0.00  0.00    +0.027 C 
ATOM     29  C   LIG    1      -43.795  71.782  20.254  0.00  0.00    +0.027 C 
ATOM     30  C   LIG    1      -43.787  70.413  22.426  0.00  0.00    +0.031 C 
ENDBRANCH  24  27
ENDBRANCH   4  23
TORSDOF 4
ENDMDL
MODEL 9
REMARK VINA RESULT:      -4.9     18.961     22.134
REMARK  Name = pdb/CHEMBL3676058.pdb
REMARK                            x       y       z     vdW  Elec       q    Type
REMARK                         _______ _______ _______ _____ _____    ______ ____
ROOT
ATOM      1  C   LIG    1      -20.555  85.069  13.355  0.00  0.00    +0.126 A 
ATOM      2  N   LIG    1      -21.663  85.302  12.680  0.00  0.00    -0.212 NA
ATOM      3  C   LIG    1      -22.163  86.587  12.678  0.00  0.00    +0.170 A 
ATOM      4  C   LIG    1      -23.325  87.142  12.160  0.00  0.00    +0.100 A 
ATOM      5  C   LIG    1      -23.250  88.508  12.502  0.00  0.00    +0.150 A 
ATOM      6  N   LIG    1      -22.150  88.820  13.181  0.00  0.00    -0.173 NA
ATOM      7  N   LIG    1      -21.504  87.640  13.318  0.00  0.00    -0.221 N 
ATOM      8  C   LIG    1      -20.341  87.414  14.025  0.00  0.00    +0.118 A 
ATOM      9  C   LIG    1      -19.832  86.182  14.095  0.00  0.00    +0.063 A 
ENDROOT
BRANCH   1  11
ATOM     10  C   LIG    1      -20.353  82.783  14.456  0.00  0.00    +0.107 C 
ATOM     11  N   LIG    1      -20.012  83.786  13.411  0.00  0.00    -0.308 N 
ATOM     12  C   LIG    1      -18.672  83.510  12.871  0.00  0.00    +0.107 C 
ATOM     13  C   LIG    1      -18.057  82.514  13.837  0.00  0.00    +0.021 C 
ATOM     14  C   LIG    1      -19.261  81.708  14.281  0.00  0.00    +0.029 C 
BRANCH  10  17
ATOM     15  C   LIG    1      -22.500  82.970  16.663  0.00  0.00    +0.066 C 
ATOM     16  C   LIG    1      -22.729  82.304  15.337  0.00  0.00    +0.043 A 
ATOM     17  C   LIG    1      -21.744  82.178  14.335  0.00  0.00    -0.003 A 
ATOM     18  C   LIG    1      -22.096  81.421  13.202  0.00  0.00    +0.047 A 
ATOM     19  C   LIG    1      -23.373  80.892  13.076  0.00  0.00    +0.142 A 
ATOM     20  F   LIG    1      -23.713  80.194  11.987  0.00  0.00    -0.204 F 
ATOM     21  C   LIG    1      -24.280  81.098  14.090  0.00  0.00    +0.149 A 
ATOM     22  N   LIG    1      -23.980  81.772  15.220  0.00  0.00    -0.257 NA
ENDBRANCH  10  17
ENDBRANCH   1  11
BRANCH   4  23
ATOM     23  C   LIG    1      -24.408  86.505  11.445  0.00  0.00    +0.250 C 
ATOM     24  N   LIG    1      -24.702  85.226  11.853  0.00  0.00    -0.306 N 
ATOM     25  H   LIG    1      -24.138  84.839  12.608  0.00  0.00    +0.150 HD
ATOM     26  O   LIG    1      -25.012  87.095  10.544  0.00  0.00    -0.270 OA
BRANCH  24  27
ATOM     27  C   LIG    1      -25.749  84.426  11.282  0.00  0.00    +0.032 C 
ATOM     28  C   LIG    1      -25.439  82.965  11.030  0.00  0.00    +0.027 C 
ATOM     29  C   LIG    1      -25.617  83.895   9.871  0.00  0.00    +0.027 C 
ATOM     30  C   LIG    1      -27.140  84.802  11.730  0.00  0.00    +0.031 C 
ENDBRANCH  24  27
ENDBRANCH   4  23
TORSDOF 4
ENDMDL
