MODEL 1
REMARK VINA RESULT:      -6.5      0.000      0.000
REMARK  Name = pdb/CHEMBL3969718.pdb
REMARK                            x       y       z     vdW  Elec       q    Type
REMARK                         _______ _______ _______ _____ _____    ______ ____
ROOT
ATOM      1  C   LIG    1      -23.568  81.156  15.072  0.00  0.00    +0.042 A 
ATOM      2  C   LIG    1      -23.571  79.767  15.330  0.00  0.00    +0.042 A 
ATOM      3  C   LIG    1      -24.535  78.940  14.720  0.00  0.00    +0.086 A 
ATOM      4  C   LIG    1      -25.489  79.585  13.938  0.00  0.00    +0.138 A 
ATOM      5  N   LIG    1      -25.496  80.902  13.633  0.00  0.00    -0.260 NA
ATOM      6  C   LIG    1      -24.510  81.636  14.184  0.00  0.00    +0.122 A 
ENDROOT
BRANCH   1   7
ATOM      7  C   LIG    1      -22.549  82.006  15.730  0.00  0.00    +0.197 C 
ATOM      8  O   LIG    1      -22.361  81.814  16.911  0.00  0.00    -0.287 OA
BRANCH   7  17
ATOM      9  N   LIG    1      -21.221  85.079  14.091  0.00  0.00    -0.336 N 
ATOM     10  C   LIG    1      -20.198  84.182  13.805  0.00  0.00    +0.089 A 
ATOM     11  C   LIG    1      -18.985  84.283  13.112  0.00  0.00    +0.165 A 
ATOM     12  F   LIG    1      -18.612  85.394  12.469  0.00  0.00    -0.202 F 
ATOM     13  C   LIG    1      -18.161  83.165  13.102  0.00  0.00    +0.151 A 
ATOM     14  N   LIG    1      -18.443  81.992  13.704  0.00  0.00    -0.260 NA
ATOM     15  C   LIG    1      -19.626  81.875  14.346  0.00  0.00    +0.121 A 
ATOM     16  C   LIG    1      -20.535  82.947  14.408  0.00  0.00    +0.032 A 
ATOM     17  C   LIG    1      -21.833  83.081  15.004  0.00  0.00    +0.049 A 
ATOM     18  C   LIG    1      -22.195  84.379  14.780  0.00  0.00    +0.099 A 
BRANCH   9  20
ATOM     19  C   LIG    1      -21.402  86.861  12.373  0.00  0.00    +0.036 C 
ATOM     20  C   LIG    1      -21.279  86.555  13.879  0.00  0.00    +0.063 C 
ATOM     21  C   LIG    1      -19.971  87.268  14.357  0.00  0.00    +0.036 C 
BRANCH  20  22
ATOM     22  C   LIG    1      -22.437  87.248  14.642  0.00  0.00    +0.183 C 
BRANCH  22  23
ATOM     23  O   LIG    1      -22.011  87.840  15.866  0.00  0.00    -0.393 OA
ATOM     24  H   LIG    1      -22.810  88.081  16.366  0.00  0.00    +0.209 HD
ENDBRANCH  22  23
ENDBRANCH  20  22
ENDBRANCH   9  20
ENDBRANCH   7  17
ENDBRANCH   1   7
BRANCH   3  25
ATOM     25  N   LIG    1      -24.520  77.551  14.979  0.00  0.00    -0.214 NA
ATOM     26  C   LIG    1      -23.979  76.729  14.131  0.00  0.00    +0.210 C 
BRANCH  26  27
ATOM     27  O   LIG    1      -23.362  77.134  12.998  0.00  0.00    -0.494 OA
ATOM     28  H   LIG    1      -23.969  77.548  12.358  0.00  0.00    +0.293 HD
ENDBRANCH  26  27
BRANCH  26  29
ATOM     29  C   LIG    1      -23.988  75.243  14.321  0.00  0.00    +0.238 C 
BRANCH  29  30
ATOM     30  N   LIG    1      -22.993  74.843  15.297  0.00  0.00    -0.262 N 
ATOM     31  N   LIG    1      -23.349  74.058  16.337  0.00  0.00    -0.167 NA
ATOM     32  C   LIG    1      -22.190  73.839  17.000  0.00  0.00    +0.165 A 
ATOM     33  C   LIG    1      -21.112  74.512  16.361  0.00  0.00    +0.053 A 
ATOM     34  C   LIG    1      -21.666  75.146  15.275  0.00  0.00    +0.109 A 
BRANCH  32  35
ATOM     35  C   LIG    1      -22.096  72.999  18.251  0.00  0.00    +0.436 C 
ATOM     36  F   LIG    1      -22.292  71.676  18.007  0.00  0.00    -0.164 F 
ATOM     37  F   LIG    1      -23.004  73.369  19.192  0.00  0.00    -0.164 F 
ATOM     38  F   LIG    1      -20.870  73.101  18.839  0.00  0.00    -0.164 F 
ENDBRANCH  32  35
ENDBRANCH  29  30
ENDBRANCH  26  29
ENDBRANCH   3  25
TORSDOF 10
ENDMDL
MODEL 2
REMARK VINA RESULT:      -6.4      1.935      2.438
REMARK  Name = pdb/CHEMBL3969718.pdb
REMARK                            x       y       z     vdW  Elec       q    Type
REMARK                         _______ _______ _______ _____ _____    ______ ____
ROOT
ATOM      1  C   LIG    1      -23.394  81.304  15.368  0.00  0.00    +0.042 A 
ATOM      2  C   LIG    1      -23.205  79.954  15.743  0.00  0.00    +0.042 A 
ATOM      3  C   LIG    1      -24.072  78.960  15.251  0.00  0.00    +0.086 A 
ATOM      4  C   LIG    1      -25.130  79.404  14.461  0.00  0.00    +0.138 A 
ATOM      5  N   LIG    1      -25.320  80.677  14.047  0.00  0.00    -0.260 NA
ATOM      6  C   LIG    1      -24.421  81.577  14.488  0.00  0.00    +0.122 A 
ENDROOT
BRANCH   1   7
ATOM      7  C   LIG    1      -22.473  82.333  15.905  0.00  0.00    +0.197 C 
ATOM      8  O   LIG    1      -22.335  82.365  17.108  0.00  0.00    -0.287 OA
BRANCH   7  17
ATOM      9  N   LIG    1      -21.247  85.194  13.856  0.00  0.00    -0.336 N 
ATOM     10  C   LIG    1      -20.219  84.281  13.649  0.00  0.00    +0.089 A 
ATOM     11  C   LIG    1      -19.028  84.309  12.911  0.00  0.00    +0.165 A 
ATOM     12  F   LIG    1      -18.694  85.336  12.123  0.00  0.00    -0.202 F 
ATOM     13  C   LIG    1      -18.188  83.209  13.012  0.00  0.00    +0.151 A 
ATOM     14  N   LIG    1      -18.432  82.117  13.764  0.00  0.00    -0.260 NA
ATOM     15  C   LIG    1      -19.592  82.067  14.453  0.00  0.00    +0.121 A 
ATOM     16  C   LIG    1      -20.516  83.126  14.412  0.00  0.00    +0.032 A 
ATOM     17  C   LIG    1      -21.797  83.318  15.029  0.00  0.00    +0.049 A 
ATOM     18  C   LIG    1      -22.187  84.573  14.658  0.00  0.00    +0.099 A 
BRANCH   9  20
ATOM     19  C   LIG    1      -22.626  87.250  14.038  0.00  0.00    +0.036 C 
ATOM     20  C   LIG    1      -21.335  86.631  13.464  0.00  0.00    +0.063 C 
ATOM     21  C   LIG    1      -21.425  86.811  11.912  0.00  0.00    +0.036 C 
BRANCH  20  22
ATOM     22  C   LIG    1      -20.114  87.474  13.913  0.00  0.00    +0.183 C 
BRANCH  22  23
ATOM     23  O   LIG    1      -19.928  87.459  15.326  0.00  0.00    -0.393 OA
ATOM     24  H   LIG    1      -19.674  88.360  15.595  0.00  0.00    +0.209 HD
ENDBRANCH  22  23
ENDBRANCH  20  22
ENDBRANCH   9  20
ENDBRANCH   7  17
ENDBRANCH   1   7
BRANCH   3  25
ATOM     25  N   LIG    1      -23.865  77.612  15.624  0.00  0.00    -0.214 NA
ATOM     26  C   LIG    1      -23.148  76.825  14.881  0.00  0.00    +0.210 C 
BRANCH  26  27
ATOM     27  O   LIG    1      -22.521  77.237  13.756  0.00  0.00    -0.494 OA
ATOM     28  H   LIG    1      -21.694  77.721  13.933  0.00  0.00    +0.293 HD
ENDBRANCH  26  27
BRANCH  26  29
ATOM     29  C   LIG    1      -22.946  75.374  15.194  0.00  0.00    +0.238 C 
BRANCH  29  30
ATOM     30  N   LIG    1      -21.613  75.141  15.714  0.00  0.00    -0.262 N 
ATOM     31  N   LIG    1      -20.668  76.099  15.595  0.00  0.00    -0.167 NA
ATOM     32  C   LIG    1      -19.589  75.581  16.224  0.00  0.00    +0.165 A 
ATOM     33  C   LIG    1      -19.875  74.280  16.723  0.00  0.00    +0.053 A 
ATOM     34  C   LIG    1      -21.180  74.032  16.375  0.00  0.00    +0.109 A 
BRANCH  32  35
ATOM     35  C   LIG    1      -18.272  76.309  16.348  0.00  0.00    +0.436 C 
ATOM     36  F   LIG    1      -17.794  76.732  15.148  0.00  0.00    -0.164 F 
ATOM     37  F   LIG    1      -17.305  75.537  16.911  0.00  0.00    -0.164 F 
ATOM     38  F   LIG    1      -18.378  77.421  17.130  0.00  0.00    -0.164 F 
ENDBRANCH  32  35
ENDBRANCH  29  30
ENDBRANCH  26  29
ENDBRANCH   3  25
TORSDOF 10
ENDMDL
MODEL 3
REMARK VINA RESULT:      -6.3     16.730     20.093
REMARK  Name = pdb/CHEMBL3969718.pdb
REMARK                            x       y       z     vdW  Elec       q    Type
REMARK                         _______ _______ _______ _____ _____    ______ ____
ROOT
ATOM      1  C   LIG    1      -20.504  76.854  30.563  0.00  0.00    +0.042 A 
ATOM      2  C   LIG    1      -20.670  77.826  31.576  0.00  0.00    +0.042 A 
ATOM      3  C   LIG    1      -19.544  78.360  32.231  0.00  0.00    +0.086 A 
ATOM      4  C   LIG    1      -18.312  77.821  31.869  0.00  0.00    +0.138 A 
ATOM      5  N   LIG    1      -18.106  76.923  30.879  0.00  0.00    -0.260 NA
ATOM      6  C   LIG    1      -19.211  76.499  30.236  0.00  0.00    +0.122 A 
ENDROOT
BRANCH   1   7
ATOM      7  C   LIG    1      -21.704  76.302  29.894  0.00  0.00    +0.197 C 
ATOM      8  O   LIG    1      -21.775  76.452  28.694  0.00  0.00    -0.287 OA
BRANCH   7  17
ATOM      9  N   LIG    1      -24.037  74.209  31.910  0.00  0.00    -0.336 N 
ATOM     10  C   LIG    1      -24.847  75.310  31.656  0.00  0.00    +0.089 A 
ATOM     11  C   LIG    1      -26.163  75.647  31.998  0.00  0.00    +0.165 A 
ATOM     12  F   LIG    1      -26.977  74.808  32.647  0.00  0.00    -0.202 F 
ATOM     13  C   LIG    1      -26.617  76.905  31.625  0.00  0.00    +0.151 A 
ATOM     14  N   LIG    1      -25.889  77.823  30.958  0.00  0.00    -0.260 NA
ATOM     15  C   LIG    1      -24.630  77.495  30.596  0.00  0.00    +0.121 A 
ATOM     16  C   LIG    1      -24.078  76.242  30.918  0.00  0.00    +0.032 A 
ATOM     17  C   LIG    1      -22.798  75.651  30.651  0.00  0.00    +0.049 A 
ATOM     18  C   LIG    1      -22.833  74.433  31.267  0.00  0.00    +0.099 A 
BRANCH   9  20
ATOM     19  C   LIG    1      -24.493  73.537  34.255  0.00  0.00    +0.036 C 
ATOM     20  C   LIG    1      -24.273  73.043  32.812  0.00  0.00    +0.063 C 
ATOM     21  C   LIG    1      -23.035  72.087  32.869  0.00  0.00    +0.036 C 
BRANCH  20  22
ATOM     22  C   LIG    1      -25.469  72.156  32.381  0.00  0.00    +0.183 C 
BRANCH  22  23
ATOM     23  O   LIG    1      -25.458  71.860  30.987  0.00  0.00    -0.393 OA
ATOM     24  H   LIG    1      -25.944  72.572  30.535  0.00  0.00    +0.209 HD
ENDBRANCH  22  23
ENDBRANCH  20  22
ENDBRANCH   9  20
ENDBRANCH   7  17
ENDBRANCH   1   7
BRANCH   3  25
ATOM     25  N   LIG    1      -19.724  79.339  33.234  0.00  0.00    -0.214 NA
ATOM     26  C   LIG    1      -19.944  78.989  34.465  0.00  0.00    +0.210 C 
BRANCH  26  27
ATOM     27  O   LIG    1      -19.965  77.700  34.875  0.00  0.00    -0.494 OA
ATOM     28  H   LIG    1      -20.674  77.514  35.519  0.00  0.00    +0.293 HD
ENDBRANCH  26  27
BRANCH  26  29
ATOM     29  C   LIG    1      -20.204  79.980  35.558  0.00  0.00    +0.238 C 
BRANCH  29  30
ATOM     30  N   LIG    1      -21.616  80.296  35.640  0.00  0.00    -0.262 N 
ATOM     31  N   LIG    1      -22.533  79.310  35.529  0.00  0.00    -0.167 NA
ATOM     32  C   LIG    1      -23.719  79.938  35.705  0.00  0.00    +0.165 A 
ATOM     33  C   LIG    1      -23.522  81.332  35.914  0.00  0.00    +0.053 A 
ATOM     34  C   LIG    1      -22.163  81.523  35.863  0.00  0.00    +0.109 A 
BRANCH  32  35
ATOM     35  C   LIG    1      -25.049  79.225  35.666  0.00  0.00    +0.436 C 
ATOM     36  F   LIG    1      -26.061  79.980  36.172  0.00  0.00    -0.164 F 
ATOM     37  F   LIG    1      -25.033  78.061  36.367  0.00  0.00    -0.164 F 
ATOM     38  F   LIG    1      -25.414  78.901  34.393  0.00  0.00    -0.164 F 
ENDBRANCH  32  35
ENDBRANCH  29  30
ENDBRANCH  26  29
ENDBRANCH   3  25
TORSDOF 10
ENDMDL
MODEL 4
REMARK VINA RESULT:      -6.3     17.613     20.748
REMARK  Name = pdb/CHEMBL3969718.pdb
REMARK                            x       y       z     vdW  Elec       q    Type
REMARK                         _______ _______ _______ _____ _____    ______ ____
ROOT
ATOM      1  C   LIG    1      -35.508  82.016  28.541  0.00  0.00    +0.042 A 
ATOM      2  C   LIG    1      -35.477  83.389  28.876  0.00  0.00    +0.042 A 
ATOM      3  C   LIG    1      -36.033  84.339  27.998  0.00  0.00    +0.086 A 
ATOM      4  C   LIG    1      -36.524  83.846  26.791  0.00  0.00    +0.138 A 
ATOM      5  N   LIG    1      -36.610  82.541  26.452  0.00  0.00    -0.260 NA
ATOM      6  C   LIG    1      -36.129  81.668  27.360  0.00  0.00    +0.122 A 
ENDROOT
BRANCH   1   7
ATOM      7  C   LIG    1      -34.911  81.036  29.477  0.00  0.00    +0.197 C 
ATOM      8  O   LIG    1      -34.450  81.478  30.507  0.00  0.00    -0.287 OA
BRANCH   7  17
ATOM      9  N   LIG    1      -35.161  77.340  29.070  0.00  0.00    -0.336 N 
ATOM     10  C   LIG    1      -34.161  77.625  28.147  0.00  0.00    +0.089 A 
ATOM     11  C   LIG    1      -33.397  76.843  27.271  0.00  0.00    +0.165 A 
ATOM     12  F   LIG    1      -33.474  75.508  27.242  0.00  0.00    -0.202 F 
ATOM     13  C   LIG    1      -32.526  77.507  26.418  0.00  0.00    +0.151 A 
ATOM     14  N   LIG    1      -32.358  78.844  26.373  0.00  0.00    -0.260 NA
ATOM     15  C   LIG    1      -33.066  79.603  27.236  0.00  0.00    +0.121 A 
ATOM     16  C   LIG    1      -33.970  79.027  28.147  0.00  0.00    +0.032 A 
ATOM     17  C   LIG    1      -34.821  79.593  29.155  0.00  0.00    +0.049 A 
ATOM     18  C   LIG    1      -35.508  78.534  29.676  0.00  0.00    +0.099 A 
BRANCH   9  20
ATOM     19  C   LIG    1      -37.008  76.291  30.354  0.00  0.00    +0.036 C 
ATOM     20  C   LIG    1      -35.890  76.061  29.319  0.00  0.00    +0.063 C 
ATOM     21  C   LIG    1      -34.957  74.964  29.930  0.00  0.00    +0.036 C 
BRANCH  20  22
ATOM     22  C   LIG    1      -36.494  75.432  28.037  0.00  0.00    +0.183 C 
BRANCH  22  23
ATOM     23  O   LIG    1      -37.784  75.952  27.727  0.00  0.00    -0.393 OA
ATOM     24  H   LIG    1      -38.137  75.428  26.986  0.00  0.00    +0.209 HD
ENDBRANCH  22  23
ENDBRANCH  20  22
ENDBRANCH   9  20
ENDBRANCH   7  17
ENDBRANCH   1   7
BRANCH   3  25
ATOM     25  N   LIG    1      -36.006  85.708  28.350  0.00  0.00    -0.214 NA
ATOM     26  C   LIG    1      -35.027  86.469  27.963  0.00  0.00    +0.210 C 
BRANCH  26  27
ATOM     27  O   LIG    1      -34.018  86.033  27.175  0.00  0.00    -0.494 OA
ATOM     28  H   LIG    1      -34.125  85.107  26.891  0.00  0.00    +0.293 HD
ENDBRANCH  26  27
BRANCH  26  29
ATOM     29  C   LIG    1      -34.913  87.910  28.357  0.00  0.00    +0.238 C 
BRANCH  29  30
ATOM     30  N   LIG    1      -33.651  88.162  29.024  0.00  0.00    -0.262 N 
ATOM     31  N   LIG    1      -32.983  87.142  29.606  0.00  0.00    -0.167 NA
ATOM     32  C   LIG    1      -31.847  87.712  30.071  0.00  0.00    +0.165 A 
ATOM     33  C   LIG    1      -31.829  89.104  29.780  0.00  0.00    +0.053 A 
ATOM     34  C   LIG    1      -33.001  89.356  29.110  0.00  0.00    +0.109 A 
BRANCH  32  35
ATOM     35  C   LIG    1      -30.775  86.945  30.806  0.00  0.00    +0.436 C 
ATOM     36  F   LIG    1      -30.862  87.089  32.156  0.00  0.00    -0.164 F 
ATOM     37  F   LIG    1      -29.523  87.330  30.444  0.00  0.00    -0.164 F 
ATOM     38  F   LIG    1      -30.850  85.606  30.560  0.00  0.00    -0.164 F 
ENDBRANCH  32  35
ENDBRANCH  29  30
ENDBRANCH  26  29
ENDBRANCH   3  25
TORSDOF 10
ENDMDL
MODEL 5
REMARK VINA RESULT:      -6.2     16.631     19.497
REMARK  Name = pdb/CHEMBL3969718.pdb
REMARK                            x       y       z     vdW  Elec       q    Type
REMARK                         _______ _______ _______ _____ _____    ______ ____
ROOT
ATOM      1  C   LIG    1      -28.992  76.840  34.585  0.00  0.00    +0.042 A 
ATOM      2  C   LIG    1      -29.592  76.042  33.586  0.00  0.00    +0.042 A 
ATOM      3  C   LIG    1      -30.865  76.379  33.086  0.00  0.00    +0.086 A 
ATOM      4  C   LIG    1      -31.490  77.470  33.685  0.00  0.00    +0.138 A 
ATOM      5  N   LIG    1      -30.935  78.282  34.612  0.00  0.00    -0.260 NA
ATOM      6  C   LIG    1      -29.687  77.957  35.003  0.00  0.00    +0.122 A 
ENDROOT
BRANCH   1   7
ATOM      7  C   LIG    1      -27.656  76.462  35.100  0.00  0.00    +0.197 C 
ATOM      8  O   LIG    1      -27.619  75.961  36.202  0.00  0.00    -0.287 OA
BRANCH   7  17
ATOM      9  N   LIG    1      -24.693  76.643  32.846  0.00  0.00    -0.336 N 
ATOM     10  C   LIG    1      -24.483  77.775  33.625  0.00  0.00    +0.089 A 
ATOM     11  C   LIG    1      -23.490  78.764  33.654  0.00  0.00    +0.165 A 
ATOM     12  F   LIG    1      -22.404  78.717  32.876  0.00  0.00    -0.202 F 
ATOM     13  C   LIG    1      -23.662  79.816  34.544  0.00  0.00    +0.151 A 
ATOM     14  N   LIG    1      -24.710  79.955  35.382  0.00  0.00    -0.260 NA
ATOM     15  C   LIG    1      -25.654  78.990  35.384  0.00  0.00    +0.121 A 
ATOM     16  C   LIG    1      -25.569  77.879  34.527  0.00  0.00    +0.032 A 
ATOM     17  C   LIG    1      -26.414  76.734  34.340  0.00  0.00    +0.049 A 
ATOM     18  C   LIG    1      -25.837  76.029  33.322  0.00  0.00    +0.099 A 
BRANCH   9  20
ATOM     19  C   LIG    1      -24.606  74.877  31.105  0.00  0.00    +0.036 C 
ATOM     20  C   LIG    1      -23.975  76.185  31.621  0.00  0.00    +0.063 C 
ATOM     21  C   LIG    1      -22.473  75.854  31.911  0.00  0.00    +0.036 C 
BRANCH  20  22
ATOM     22  C   LIG    1      -23.959  77.236  30.480  0.00  0.00    +0.183 C 
BRANCH  22  23
ATOM     23  O   LIG    1      -25.185  77.275  29.755  0.00  0.00    -0.393 OA
ATOM     24  H   LIG    1      -25.905  77.125  30.393  0.00  0.00    +0.209 HD
ENDBRANCH  22  23
ENDBRANCH  20  22
ENDBRANCH   9  20
ENDBRANCH   7  17
ENDBRANCH   1   7
BRANCH   3  25
ATOM     25  N   LIG    1      -31.449  75.578  32.078  0.00  0.00    -0.214 NA
ATOM     26  C   LIG    1      -31.062  75.687  30.843  0.00  0.00    +0.210 C 
BRANCH  26  27
ATOM     27  O   LIG    1      -30.066  76.513  30.450  0.00  0.00    -0.494 OA
ATOM     28  H   LIG    1      -29.216  76.053  30.318  0.00  0.00    +0.293 HD
ENDBRANCH  26  27
BRANCH  26  29
ATOM     29  C   LIG    1      -31.686  74.910  29.724  0.00  0.00    +0.238 C 
BRANCH  29  30
ATOM     30  N   LIG    1      -32.399  75.793  28.822  0.00  0.00    -0.262 N 
ATOM     31  N   LIG    1      -31.865  76.989  28.491  0.00  0.00    -0.167 NA
ATOM     32  C   LIG    1      -32.747  77.513  27.608  0.00  0.00    +0.165 A 
ATOM     33  C   LIG    1      -33.842  76.628  27.408  0.00  0.00    +0.053 A 
ATOM     34  C   LIG    1      -33.585  75.538  28.203  0.00  0.00    +0.109 A 
BRANCH  32  35
ATOM     35  C   LIG    1      -32.565  78.862  26.956  0.00  0.00    +0.436 C 
ATOM     36  F   LIG    1      -33.653  79.664  27.103  0.00  0.00    -0.164 F 
ATOM     37  F   LIG    1      -32.321  78.763  25.622  0.00  0.00    -0.164 F 
ATOM     38  F   LIG    1      -31.512  79.546  27.489  0.00  0.00    -0.164 F 
ENDBRANCH  32  35
ENDBRANCH  29  30
ENDBRANCH  26  29
ENDBRANCH   3  25
TORSDOF 10
ENDMDL
MODEL 6
REMARK VINA RESULT:      -6.2     15.977     18.374
REMARK  Name = pdb/CHEMBL3969718.pdb
REMARK                            x       y       z     vdW  Elec       q    Type
REMARK                         _______ _______ _______ _____ _____    ______ ____
ROOT
ATOM      1  C   LIG    1      -26.377  76.260  31.719  0.00  0.00    +0.042 A 
ATOM      2  C   LIG    1      -27.781  76.400  31.789  0.00  0.00    +0.042 A 
ATOM      3  C   LIG    1      -28.579  75.306  32.175  0.00  0.00    +0.086 A 
ATOM      4  C   LIG    1      -27.908  74.106  32.398  0.00  0.00    +0.138 A 
ATOM      5  N   LIG    1      -26.566  73.941  32.383  0.00  0.00    -0.260 NA
ATOM      6  C   LIG    1      -25.846  75.038  32.078  0.00  0.00    +0.122 A 
ENDROOT
BRANCH   1   7
ATOM      7  C   LIG    1      -25.559  77.423  31.303  0.00  0.00    +0.197 C 
ATOM      8  O   LIG    1      -26.091  78.228  30.571  0.00  0.00    -0.287 OA
BRANCH   7  17
ATOM      9  N   LIG    1      -22.226  77.944  32.888  0.00  0.00    -0.336 N 
ATOM     10  C   LIG    1      -21.837  77.547  31.614  0.00  0.00    +0.089 A 
ATOM     11  C   LIG    1      -20.596  77.364  30.990  0.00  0.00    +0.165 A 
ATOM     12  F   LIG    1      -19.438  77.658  31.591  0.00  0.00    -0.202 F 
ATOM     13  C   LIG    1      -20.599  76.867  29.694  0.00  0.00    +0.151 A 
ATOM     14  N   LIG    1      -21.706  76.550  28.991  0.00  0.00    -0.260 NA
ATOM     15  C   LIG    1      -22.907  76.755  29.572  0.00  0.00    +0.121 A 
ATOM     16  C   LIG    1      -23.013  77.262  30.879  0.00  0.00    +0.032 A 
ATOM     17  C   LIG    1      -24.142  77.574  31.708  0.00  0.00    +0.049 A 
ATOM     18  C   LIG    1      -23.609  77.980  32.898  0.00  0.00    +0.099 A 
BRANCH   9  20
ATOM     19  C   LIG    1      -20.679  76.848  34.490  0.00  0.00    +0.036 C 
ATOM     20  C   LIG    1      -21.399  78.158  34.112  0.00  0.00    +0.063 C 
ATOM     21  C   LIG    1      -22.274  78.541  35.351  0.00  0.00    +0.036 C 
BRANCH  20  22
ATOM     22  C   LIG    1      -20.357  79.297  33.966  0.00  0.00    +0.183 C 
BRANCH  22  23
ATOM     23  O   LIG    1      -19.417  79.320  35.037  0.00  0.00    -0.393 OA
ATOM     24  H   LIG    1      -19.445  78.446  35.466  0.00  0.00    +0.209 HD
ENDBRANCH  22  23
ENDBRANCH  20  22
ENDBRANCH   9  20
ENDBRANCH   7  17
ENDBRANCH   1   7
BRANCH   3  25
ATOM     25  N   LIG    1      -29.982  75.463  32.251  0.00  0.00    -0.214 NA
ATOM     26  C   LIG    1      -30.751  74.974  31.326  0.00  0.00    +0.210 C 
BRANCH  26  27
ATOM     27  O   LIG    1      -30.285  74.255  30.280  0.00  0.00    -0.494 OA
ATOM     28  H   LIG    1      -29.452  74.605  29.914  0.00  0.00    +0.293 HD
ENDBRANCH  26  27
BRANCH  26  29
ATOM     29  C   LIG    1      -32.237  75.162  31.322  0.00  0.00    +0.238 C 
BRANCH  29  30
ATOM     30  N   LIG    1      -32.696  75.603  30.020  0.00  0.00    -0.262 N 
ATOM     31  N   LIG    1      -32.164  76.712  29.461  0.00  0.00    -0.167 NA
ATOM     32  C   LIG    1      -32.767  76.796  28.252  0.00  0.00    +0.165 A 
ATOM     33  C   LIG    1      -33.690  75.728  28.077  0.00  0.00    +0.053 A 
ATOM     34  C   LIG    1      -33.618  74.986  29.230  0.00  0.00    +0.109 A 
BRANCH  32  35
ATOM     35  C   LIG    1      -32.481  77.895  27.257  0.00  0.00    +0.436 C 
ATOM     36  F   LIG    1      -31.601  78.815  27.734  0.00  0.00    -0.164 F 
ATOM     37  F   LIG    1      -33.605  78.569  26.895  0.00  0.00    -0.164 F 
ATOM     38  F   LIG    1      -31.938  77.408  26.105  0.00  0.00    -0.164 F 
ENDBRANCH  32  35
ENDBRANCH  29  30
ENDBRANCH  26  29
ENDBRANCH   3  25
TORSDOF 10
ENDMDL
MODEL 7
REMARK VINA RESULT:      -6.1     14.096     18.890
REMARK  Name = pdb/CHEMBL3969718.pdb
REMARK                            x       y       z     vdW  Elec       q    Type
REMARK                         _______ _______ _______ _____ _____    ______ ____
ROOT
ATOM      1  C   LIG    1      -35.012  66.728  18.376  0.00  0.00    +0.042 A 
ATOM      2  C   LIG    1      -35.256  66.780  19.767  0.00  0.00    +0.042 A 
ATOM      3  C   LIG    1      -36.505  67.223  20.245  0.00  0.00    +0.086 A 
ATOM      4  C   LIG    1      -37.412  67.658  19.282  0.00  0.00    +0.138 A 
ATOM      5  N   LIG    1      -37.233  67.585  17.944  0.00  0.00    -0.260 NA
ATOM      6  C   LIG    1      -36.048  67.087  17.539  0.00  0.00    +0.122 A 
ENDROOT
BRANCH   1   7
ATOM      7  C   LIG    1      -33.689  66.266  17.897  0.00  0.00    +0.197 C 
ATOM      8  O   LIG    1      -33.613  65.113  17.536  0.00  0.00    -0.287 OA
BRANCH   7  17
ATOM      9  N   LIG    1      -31.073  68.914  17.698  0.00  0.00    -0.336 N 
ATOM     10  C   LIG    1      -30.343  67.887  18.285  0.00  0.00    +0.089 A 
ATOM     11  C   LIG    1      -29.016  67.761  18.714  0.00  0.00    +0.165 A 
ATOM     12  F   LIG    1      -28.104  68.722  18.529  0.00  0.00    -0.202 F 
ATOM     13  C   LIG    1      -28.658  66.578  19.345  0.00  0.00    +0.151 A 
ATOM     14  N   LIG    1      -29.490  65.541  19.571  0.00  0.00    -0.260 NA
ATOM     15  C   LIG    1      -30.763  65.640  19.132  0.00  0.00    +0.121 A 
ATOM     16  C   LIG    1      -31.223  66.794  18.474  0.00  0.00    +0.032 A 
ATOM     17  C   LIG    1      -32.496  67.145  17.911  0.00  0.00    +0.049 A 
ATOM     18  C   LIG    1      -32.345  68.425  17.459  0.00  0.00    +0.099 A 
BRANCH   9  20
ATOM     19  C   LIG    1      -29.807  70.455  16.220  0.00  0.00    +0.036 C 
ATOM     20  C   LIG    1      -30.696  70.341  17.474  0.00  0.00    +0.063 C 
ATOM     21  C   LIG    1      -29.848  70.915  18.657  0.00  0.00    +0.036 C 
BRANCH  20  22
ATOM     22  C   LIG    1      -31.914  71.290  17.332  0.00  0.00    +0.183 C 
BRANCH  22  23
ATOM     23  O   LIG    1      -31.919  72.326  18.311  0.00  0.00    -0.393 OA
ATOM     24  H   LIG    1      -32.360  71.974  19.104  0.00  0.00    +0.209 HD
ENDBRANCH  22  23
ENDBRANCH  20  22
ENDBRANCH   9  20
ENDBRANCH   7  17
ENDBRANCH   1   7
BRANCH   3  25
ATOM     25  N   LIG    1      -36.740  67.259  21.638  0.00  0.00    -0.214 NA
ATOM     26  C   LIG    1      -36.880  68.394  22.254  0.00  0.00    +0.210 C 
BRANCH  26  27
ATOM     27  O   LIG    1      -36.862  69.587  21.618  0.00  0.00    -0.494 OA
ATOM     28  H   LIG    1      -37.581  69.687  20.968  0.00  0.00    +0.293 HD
ENDBRANCH  26  27
BRANCH  26  29
ATOM     29  C   LIG    1      -37.069  68.497  23.737  0.00  0.00    +0.238 C 
BRANCH  29  30
ATOM     30  N   LIG    1      -37.469  69.838  24.112  0.00  0.00    -0.262 N 
ATOM     31  N   LIG    1      -38.667  70.318  23.714  0.00  0.00    -0.167 NA
ATOM     32  C   LIG    1      -38.736  71.547  24.276  0.00  0.00    +0.165 A 
ATOM     33  C   LIG    1      -37.555  71.826  25.017  0.00  0.00    +0.053 A 
ATOM     34  C   LIG    1      -36.766  70.710  24.888  0.00  0.00    +0.109 A 
BRANCH  32  35
ATOM     35  C   LIG    1      -39.917  72.473  24.106  0.00  0.00    +0.436 C 
ATOM     36  F   LIG    1      -39.545  73.738  23.776  0.00  0.00    -0.164 F 
ATOM     37  F   LIG    1      -40.671  72.561  25.233  0.00  0.00    -0.164 F 
ATOM     38  F   LIG    1      -40.754  72.051  23.116  0.00  0.00    -0.164 F 
ENDBRANCH  32  35
ENDBRANCH  29  30
ENDBRANCH  26  29
ENDBRANCH   3  25
TORSDOF 10
ENDMDL
MODEL 8
REMARK VINA RESULT:      -6.0     13.654     18.328
REMARK  Name = pdb/CHEMBL3969718.pdb
REMARK                            x       y       z     vdW  Elec       q    Type
REMARK                         _______ _______ _______ _____ _____    ______ ____
ROOT
ATOM      1  C   LIG    1      -33.599  66.280  19.826  0.00  0.00    +0.042 A 
ATOM      2  C   LIG    1      -33.594  66.759  21.155  0.00  0.00    +0.042 A 
ATOM      3  C   LIG    1      -34.806  67.117  21.778  0.00  0.00    +0.086 A 
ATOM      4  C   LIG    1      -35.949  67.036  20.987  0.00  0.00    +0.138 A 
ATOM      5  N   LIG    1      -36.002  66.545  19.729  0.00  0.00    -0.260 NA
ATOM      6  C   LIG    1      -34.825  66.149  19.206  0.00  0.00    +0.122 A 
ENDROOT
BRANCH   1   7
ATOM      7  C   LIG    1      -32.312  65.916  19.189  0.00  0.00    +0.197 C 
ATOM      8  O   LIG    1      -32.080  64.734  19.068  0.00  0.00    -0.287 OA
BRANCH   7  17
ATOM      9  N   LIG    1      -30.328  68.839  18.001  0.00  0.00    -0.336 N 
ATOM     10  C   LIG    1      -29.304  67.996  18.417  0.00  0.00    +0.089 A 
ATOM     11  C   LIG    1      -27.907  68.099  18.432  0.00  0.00    +0.165 A 
ATOM     12  F   LIG    1      -27.256  69.140  17.904  0.00  0.00    -0.202 F 
ATOM     13  C   LIG    1      -27.197  67.058  19.015  0.00  0.00    +0.151 A 
ATOM     14  N   LIG    1      -27.750  65.957  19.563  0.00  0.00    -0.260 NA
ATOM     15  C   LIG    1      -29.093  65.834  19.523  0.00  0.00    +0.121 A 
ATOM     16  C   LIG    1      -29.904  66.829  18.948  0.00  0.00    +0.032 A 
ATOM     17  C   LIG    1      -31.324  66.939  18.773  0.00  0.00    +0.049 A 
ATOM     18  C   LIG    1      -31.518  68.162  18.198  0.00  0.00    +0.099 A 
BRANCH   9  20
ATOM     19  C   LIG    1      -29.608  70.355  16.172  0.00  0.00    +0.036 C 
ATOM     20  C   LIG    1      -30.268  70.265  17.563  0.00  0.00    +0.063 C 
ATOM     21  C   LIG    1      -29.382  71.134  18.516  0.00  0.00    +0.036 C 
BRANCH  20  22
ATOM     22  C   LIG    1      -31.651  70.962  17.524  0.00  0.00    +0.183 C 
BRANCH  22  23
ATOM     23  O   LIG    1      -31.704  72.123  18.349  0.00  0.00    -0.393 OA
ATOM     24  H   LIG    1      -32.618  72.456  18.323  0.00  0.00    +0.209 HD
ENDBRANCH  22  23
ENDBRANCH  20  22
ENDBRANCH   9  20
ENDBRANCH   7  17
ENDBRANCH   1   7
BRANCH   3  25
ATOM     25  N   LIG    1      -34.788  67.584  23.112  0.00  0.00    -0.214 NA
ATOM     26  C   LIG    1      -34.900  66.753  24.103  0.00  0.00    +0.210 C 
BRANCH  26  27
ATOM     27  O   LIG    1      -34.986  65.413  23.939  0.00  0.00    -0.494 OA
ATOM     28  H   LIG    1      -35.662  65.000  24.508  0.00  0.00    +0.293 HD
ENDBRANCH  26  27
BRANCH  26  29
ATOM     29  C   LIG    1      -34.950  67.195  25.534  0.00  0.00    +0.238 C 
BRANCH  29  30
ATOM     30  N   LIG    1      -35.081  68.636  25.622  0.00  0.00    -0.262 N 
ATOM     31  N   LIG    1      -36.296  69.210  25.485  0.00  0.00    -0.167 NA
ATOM     32  C   LIG    1      -36.063  70.529  25.676  0.00  0.00    +0.165 A 
ATOM     33  C   LIG    1      -34.682  70.765  25.918  0.00  0.00    +0.053 A 
ATOM     34  C   LIG    1      -34.084  69.529  25.874  0.00  0.00    +0.109 A 
BRANCH  32  35
ATOM     35  C   LIG    1      -37.146  71.580  25.617  0.00  0.00    +0.436 C 
ATOM     36  F   LIG    1      -38.381  71.070  25.871  0.00  0.00    -0.164 F 
ATOM     37  F   LIG    1      -37.209  72.191  24.405  0.00  0.00    -0.164 F 
ATOM     38  F   LIG    1      -36.945  72.567  26.535  0.00  0.00    -0.164 F 
ENDBRANCH  32  35
ENDBRANCH  29  30
ENDBRANCH  26  29
ENDBRANCH   3  25
TORSDOF 10
ENDMDL
MODEL 9
REMARK VINA RESULT:      -6.0     17.598     20.518
REMARK  Name = pdb/CHEMBL3969718.pdb
REMARK                            x       y       z     vdW  Elec       q    Type
REMARK                         _______ _______ _______ _____ _____    ______ ____
ROOT
ATOM      1  C   LIG    1      -38.686  76.119  25.066  0.00  0.00    +0.042 A 
ATOM      2  C   LIG    1      -38.544  77.453  24.623  0.00  0.00    +0.042 A 
ATOM      3  C   LIG    1      -39.508  78.016  23.764  0.00  0.00    +0.086 A 
ATOM      4  C   LIG    1      -40.528  77.164  23.345  0.00  0.00    +0.138 A 
ATOM      5  N   LIG    1      -40.722  75.899  23.778  0.00  0.00    -0.260 NA
ATOM      6  C   LIG    1      -39.811  75.433  24.654  0.00  0.00    +0.122 A 
ENDROOT
BRANCH   1   7
ATOM      7  C   LIG    1      -37.656  75.548  25.963  0.00  0.00    +0.197 C 
ATOM      8  O   LIG    1      -37.594  74.339  26.021  0.00  0.00    -0.287 OA
BRANCH   7  17
ATOM      9  N   LIG    1      -34.986  77.498  27.684  0.00  0.00    -0.336 N 
ATOM     10  C   LIG    1      -36.101  77.910  28.406  0.00  0.00    +0.089 A 
ATOM     11  C   LIG    1      -36.291  78.787  29.482  0.00  0.00    +0.165 A 
ATOM     12  F   LIG    1      -35.275  79.385  30.113  0.00  0.00    -0.202 F 
ATOM     13  C   LIG    1      -37.597  79.016  29.896  0.00  0.00    +0.151 A 
ATOM     14  N   LIG    1      -38.692  78.457  29.342  0.00  0.00    -0.260 NA
ATOM     15  C   LIG    1      -38.516  77.586  28.326  0.00  0.00    +0.121 A 
ATOM     16  C   LIG    1      -37.233  77.279  27.838  0.00  0.00    +0.032 A 
ATOM     17  C   LIG    1      -36.778  76.401  26.798  0.00  0.00    +0.049 A 
ATOM     18  C   LIG    1      -35.424  76.573  26.754  0.00  0.00    +0.099 A 
BRANCH   9  20
ATOM     19  C   LIG    1      -32.915  77.591  29.048  0.00  0.00    +0.036 C 
ATOM     20  C   LIG    1      -33.585  78.010  27.725  0.00  0.00    +0.063 C 
ATOM     21  C   LIG    1      -33.531  79.573  27.691  0.00  0.00    +0.036 C 
BRANCH  20  22
ATOM     22  C   LIG    1      -32.716  77.534  26.532  0.00  0.00    +0.183 C 
BRANCH  22  23
ATOM     23  O   LIG    1      -32.368  78.597  25.649  0.00  0.00    -0.393 OA
ATOM     24  H   LIG    1      -31.770  78.230  24.974  0.00  0.00    +0.209 HD
ENDBRANCH  22  23
ENDBRANCH  20  22
ENDBRANCH   9  20
ENDBRANCH   7  17
ENDBRANCH   1   7
BRANCH   3  25
ATOM     25  N   LIG    1      -39.360  79.355  23.336  0.00  0.00    -0.214 NA
ATOM     26  C   LIG    1      -39.956  80.319  23.970  0.00  0.00    +0.210 C 
BRANCH  26  27
ATOM     27  O   LIG    1      -40.699  80.125  25.083  0.00  0.00    -0.494 OA
ATOM     28  H   LIG    1      -40.222  79.643  25.784  0.00  0.00    +0.293 HD
ENDBRANCH  26  27
BRANCH  26  29
ATOM     29  C   LIG    1      -39.886  81.748  23.527  0.00  0.00    +0.238 C 
BRANCH  29  30
ATOM     30  N   LIG    1      -38.857  82.463  24.256  0.00  0.00    -0.262 N 
ATOM     31  N   LIG    1      -38.463  82.019  25.470  0.00  0.00    -0.167 NA
ATOM     32  C   LIG    1      -37.473  82.868  25.828  0.00  0.00    +0.165 A 
ATOM     33  C   LIG    1      -37.269  83.854  24.823  0.00  0.00    +0.053 A 
ATOM     34  C   LIG    1      -38.175  83.563  23.833  0.00  0.00    +0.109 A 
BRANCH  32  35
ATOM     35  C   LIG    1      -36.719  82.761  27.132  0.00  0.00    +0.436 C 
ATOM     36  F   LIG    1      -36.220  83.956  27.546  0.00  0.00    -0.164 F 
ATOM     37  F   LIG    1      -35.672  81.898  27.054  0.00  0.00    -0.164 F 
ATOM     38  F   LIG    1      -37.514  82.308  28.142  0.00  0.00    -0.164 F 
ENDBRANCH  32  35
ENDBRANCH  29  30
ENDBRANCH  26  29
ENDBRANCH   3  25
TORSDOF 10
ENDMDL
