MODEL 1
REMARK VINA RESULT:      -6.8      0.000      0.000
REMARK  Name = pdb/CHEMBL3963169.pdb
REMARK                            x       y       z     vdW  Elec       q    Type
REMARK                         _______ _______ _______ _____ _____    ______ ____
ROOT
ATOM      1  C   LIG    1      -31.350  74.946  29.983  0.00  0.00    +0.149 A 
ATOM      2  N   LIG    1      -31.593  76.254  29.806  0.00  0.00    -0.160 NA
ATOM      3  N   LIG    1      -32.580  76.310  28.869  0.00  0.00    -0.218 N 
ATOM      4  C   LIG    1      -33.013  75.025  28.481  0.00  0.00    +0.129 A 
ATOM      5  C   LIG    1      -32.185  74.155  29.158  0.00  0.00    +0.078 A 
ENDROOT
BRANCH   3   6
ATOM      6  C   LIG    1      -33.047  77.581  28.433  0.00  0.00    +0.067 A 
ATOM      7  C   LIG    1      -34.108  78.208  29.109  0.00  0.00    +0.028 A 
ATOM      8  C   LIG    1      -34.615  79.424  28.644  0.00  0.00    +0.002 A 
ATOM      9  C   LIG    1      -34.057  80.031  27.521  0.00  0.00    +0.000 A 
ATOM     10  C   LIG    1      -32.968  79.443  26.884  0.00  0.00    +0.002 A 
ATOM     11  C   LIG    1      -32.455  78.230  27.348  0.00  0.00    +0.028 A 
ENDBRANCH   3   6
BRANCH   4  12
ATOM     12  N   LIG    1      -34.136  74.691  27.684  0.00  0.00    -0.266 N 
ATOM     13  H   LIG    1      -33.969  74.390  26.744  0.00  0.00    +0.157 HD
ATOM     14  C   LIG    1      -35.500  74.765  28.154  0.00  0.00    +0.251 C 
ATOM     15  O   LIG    1      -35.718  75.101  29.311  0.00  0.00    -0.270 OA
BRANCH  14  16
ATOM     16  C   LIG    1      -36.649  74.506  27.250  0.00  0.00    +0.056 A 
ATOM     17  C   LIG    1      -37.154  73.251  26.976  0.00  0.00    +0.054 A 
ATOM     18 CL   LIG    1      -36.645  71.830  27.803  0.00  0.00    -0.083 Cl
ATOM     19  C   LIG    1      -38.184  73.102  26.039  0.00  0.00    +0.041 A 
ATOM     20  C   LIG    1      -38.761  74.219  25.415  0.00  0.00    +0.052 A 
ATOM     21 CL   LIG    1      -39.899  73.865  24.155  0.00  0.00    -0.083 Cl
ATOM     22  C   LIG    1      -38.384  75.527  25.775  0.00  0.00    +0.022 A 
ATOM     23  C   LIG    1      -37.294  75.636  26.686  0.00  0.00    +0.026 A 
BRANCH  22  24
ATOM     24  C   LIG    1      -39.090  76.751  25.298  0.00  0.00    +0.107 A 
ATOM     25  C   LIG    1      -38.678  77.511  24.201  0.00  0.00    +0.149 A 
ATOM     26  F   LIG    1      -37.627  77.144  23.453  0.00  0.00    -0.203 F 
ATOM     27  C   LIG    1      -39.357  78.678  23.860  0.00  0.00    +0.042 A 
ATOM     28  C   LIG    1      -40.466  79.061  24.602  0.00  0.00    +0.023 A 
ATOM     29  C   LIG    1      -40.828  78.267  25.674  0.00  0.00    +0.111 A 
ATOM     30  N   LIG    1      -40.153  77.153  26.048  0.00  0.00    -0.252 NA
ENDBRANCH  22  24
ENDBRANCH  14  16
ENDBRANCH   4  12
BRANCH   1  31
ATOM     31  C   LIG    1      -30.383  74.512  30.992  0.00  0.00    +0.236 C 
ATOM     32  N   LIG    1      -29.705  75.366  31.672  0.00  0.00    -0.243 NA
BRANCH  31  33
ATOM     33  O   LIG    1      -30.252  73.170  31.107  0.00  0.00    -0.491 OA
ATOM     34  H   LIG    1      -31.137  72.761  31.153  0.00  0.00    +0.294 HD
ENDBRANCH  31  33
BRANCH  32  35
ATOM     35  C   LIG    1      -28.667  74.795  32.548  0.00  0.00    +0.202 C 
BRANCH  35  36
ATOM     36  C   LIG    1      -27.268  75.103  32.062  0.00  0.00    +0.085 A 
ATOM     37  N   LIG    1      -27.091  76.220  31.317  0.00  0.00    -0.152 NA
ATOM     38  N   LIG    1      -25.844  76.562  30.877  0.00  0.00    -0.157 NA
ATOM     39  C   LIG    1      -24.794  75.781  31.190  0.00  0.00    +0.135 A 
ATOM     40  C   LIG    1      -24.924  74.641  31.957  0.00  0.00    +0.023 A 
ATOM     41  C   LIG    1      -26.191  74.298  32.410  0.00  0.00    +0.028 A 
ENDBRANCH  35  36
ENDBRANCH  32  35
ENDBRANCH   1  31
TORSDOF 8
ENDMDL
MODEL 2
REMARK VINA RESULT:      -6.8      5.456      9.732
REMARK  Name = pdb/CHEMBL3963169.pdb
REMARK                            x       y       z     vdW  Elec       q    Type
REMARK                         _______ _______ _______ _____ _____    ______ ____
ROOT
ATOM      1  C   LIG    1      -36.319  69.194  25.092  0.00  0.00    +0.149 A 
ATOM      2  N   LIG    1      -37.311  70.097  25.070  0.00  0.00    -0.160 NA
ATOM      3  N   LIG    1      -36.816  71.187  25.720  0.00  0.00    -0.218 N 
ATOM      4  C   LIG    1      -35.475  71.002  26.116  0.00  0.00    +0.129 A 
ATOM      5  C   LIG    1      -35.179  69.703  25.758  0.00  0.00    +0.078 A 
ENDROOT
BRANCH   3   6
ATOM      6  C   LIG    1      -37.651  72.325  25.896  0.00  0.00    +0.067 A 
ATOM      7  C   LIG    1      -38.043  72.713  27.189  0.00  0.00    +0.028 A 
ATOM      8  C   LIG    1      -38.918  73.789  27.363  0.00  0.00    +0.002 A 
ATOM      9  C   LIG    1      -39.387  74.495  26.258  0.00  0.00    +0.000 A 
ATOM     10  C   LIG    1      -38.955  74.151  24.980  0.00  0.00    +0.002 A 
ATOM     11  C   LIG    1      -38.077  73.079  24.802  0.00  0.00    +0.028 A 
ENDBRANCH   3   6
BRANCH   4  12
ATOM     12  N   LIG    1      -34.581  71.970  26.637  0.00  0.00    -0.266 N 
ATOM     13  H   LIG    1      -34.036  72.501  25.987  0.00  0.00    +0.157 HD
ATOM     14  C   LIG    1      -34.414  72.225  28.049  0.00  0.00    +0.251 C 
ATOM     15  O   LIG    1      -35.096  71.605  28.855  0.00  0.00    -0.270 OA
BRANCH  14  16
ATOM     16  C   LIG    1      -33.389  73.175  28.551  0.00  0.00    +0.056 A 
ATOM     17  C   LIG    1      -32.270  72.803  29.267  0.00  0.00    +0.054 A 
ATOM     18 CL   LIG    1      -31.808  71.162  29.506  0.00  0.00    -0.083 Cl
ATOM     19  C   LIG    1      -31.408  73.782  29.775  0.00  0.00    +0.041 A 
ATOM     20  C   LIG    1      -31.626  75.144  29.512  0.00  0.00    +0.052 A 
ATOM     21 CL   LIG    1      -30.578  76.243  30.349  0.00  0.00    -0.083 Cl
ATOM     22  C   LIG    1      -32.667  75.561  28.659  0.00  0.00    +0.022 A 
ATOM     23  C   LIG    1      -33.556  74.541  28.212  0.00  0.00    +0.026 A 
BRANCH  22  24
ATOM     24  C   LIG    1      -32.832  76.965  28.184  0.00  0.00    +0.107 A 
ATOM     25  C   LIG    1      -33.618  77.920  28.833  0.00  0.00    +0.149 A 
ATOM     26  F   LIG    1      -34.243  77.643  29.987  0.00  0.00    -0.203 F 
ATOM     27  C   LIG    1      -33.771  79.192  28.287  0.00  0.00    +0.042 A 
ATOM     28  C   LIG    1      -33.109  79.511  27.109  0.00  0.00    +0.023 A 
ATOM     29  C   LIG    1      -32.343  78.526  26.515  0.00  0.00    +0.111 A 
ATOM     30  N   LIG    1      -32.219  77.269  27.007  0.00  0.00    -0.252 NA
ENDBRANCH  22  24
ENDBRANCH  14  16
ENDBRANCH   4  12
BRANCH   1  31
ATOM     31  C   LIG    1      -36.482  67.912  24.405  0.00  0.00    +0.236 C 
ATOM     32  N   LIG    1      -35.542  67.036  24.403  0.00  0.00    -0.243 NA
BRANCH  31  33
ATOM     33  O   LIG    1      -37.664  67.763  23.762  0.00  0.00    -0.491 OA
ATOM     34  H   LIG    1      -37.598  68.152  22.870  0.00  0.00    +0.294 HD
ENDBRANCH  31  33
BRANCH  32  35
ATOM     35  C   LIG    1      -35.780  65.855  23.556  0.00  0.00    +0.202 C 
BRANCH  35  36
ATOM     36  C   LIG    1      -34.933  65.863  22.303  0.00  0.00    +0.085 A 
ATOM     37  N   LIG    1      -34.109  66.920  22.105  0.00  0.00    -0.152 NA
ATOM     38  N   LIG    1      -33.300  66.965  21.005  0.00  0.00    -0.157 NA
ATOM     39  C   LIG    1      -33.327  65.950  20.122  0.00  0.00    +0.135 A 
ATOM     40  C   LIG    1      -34.140  64.847  20.288  0.00  0.00    +0.023 A 
ATOM     41  C   LIG    1      -34.957  64.799  21.410  0.00  0.00    +0.028 A 
ENDBRANCH  35  36
ENDBRANCH  32  35
ENDBRANCH   1  31
TORSDOF 8
ENDMDL
MODEL 3
REMARK VINA RESULT:      -6.7     13.142     16.904
REMARK  Name = pdb/CHEMBL3963169.pdb
REMARK                            x       y       z     vdW  Elec       q    Type
REMARK                         _______ _______ _______ _____ _____    ______ ____
ROOT
ATOM      1  C   LIG    1      -24.305  82.932  37.262  0.00  0.00    +0.149 A 
ATOM      2  N   LIG    1      -23.280  83.332  38.031  0.00  0.00    -0.160 NA
ATOM      3  N   LIG    1      -22.199  82.642  37.572  0.00  0.00    -0.218 N 
ATOM      4  C   LIG    1      -22.521  81.833  36.464  0.00  0.00    +0.129 A 
ATOM      5  C   LIG    1      -23.882  81.982  36.303  0.00  0.00    +0.078 A 
ENDROOT
BRANCH   3   6
ATOM      6  C   LIG    1      -20.941  82.823  38.212  0.00  0.00    +0.067 A 
ATOM      7  C   LIG    1      -20.394  81.786  38.987  0.00  0.00    +0.028 A 
ATOM      8  C   LIG    1      -19.192  81.982  39.674  0.00  0.00    +0.002 A 
ATOM      9  C   LIG    1      -18.521  83.198  39.574  0.00  0.00    +0.000 A 
ATOM     10  C   LIG    1      -19.029  84.207  38.760  0.00  0.00    +0.002 A 
ATOM     11  C   LIG    1      -20.227  84.014  38.069  0.00  0.00    +0.028 A 
ENDBRANCH   3   6
BRANCH   4  12
ATOM     12  N   LIG    1      -21.632  81.130  35.613  0.00  0.00    -0.266 N 
ATOM     13  H   LIG    1      -21.317  81.591  34.782  0.00  0.00    +0.157 HD
ATOM     14  C   LIG    1      -21.161  79.791  35.880  0.00  0.00    +0.251 C 
ATOM     15  O   LIG    1      -21.511  79.226  36.908  0.00  0.00    -0.270 OA
BRANCH  14  16
ATOM     16  C   LIG    1      -20.313  79.057  34.906  0.00  0.00    +0.056 A 
ATOM     17  C   LIG    1      -18.946  78.913  35.021  0.00  0.00    +0.054 A 
ATOM     18 CL   LIG    1      -18.061  79.398  36.415  0.00  0.00    -0.083 Cl
ATOM     19  C   LIG    1      -18.222  78.279  34.003  0.00  0.00    +0.041 A 
ATOM     20  C   LIG    1      -18.875  77.725  32.890  0.00  0.00    +0.052 A 
ATOM     21 CL   LIG    1      -17.835  77.130  31.635  0.00  0.00    -0.083 Cl
ATOM     22  C   LIG    1      -20.280  77.712  32.804  0.00  0.00    +0.022 A 
ATOM     23  C   LIG    1      -20.976  78.418  33.828  0.00  0.00    +0.026 A 
BRANCH  22  24
ATOM     24  C   LIG    1      -21.037  76.971  31.753  0.00  0.00    +0.107 A 
ATOM     25  C   LIG    1      -21.132  77.386  30.423  0.00  0.00    +0.149 A 
ATOM     26  F   LIG    1      -20.484  78.475  29.983  0.00  0.00    -0.203 F 
ATOM     27  C   LIG    1      -21.913  76.671  29.519  0.00  0.00    +0.042 A 
ATOM     28  C   LIG    1      -22.568  75.524  29.945  0.00  0.00    +0.023 A 
ATOM     29  C   LIG    1      -22.433  75.161  31.272  0.00  0.00    +0.111 A 
ATOM     30  N   LIG    1      -21.715  75.870  32.177  0.00  0.00    -0.252 NA
ENDBRANCH  22  24
ENDBRANCH  14  16
ENDBRANCH   4  12
BRANCH   1  31
ATOM     31  C   LIG    1      -25.626  83.539  37.431  0.00  0.00    +0.236 C 
ATOM     32  N   LIG    1      -26.586  83.273  36.619  0.00  0.00    -0.243 NA
BRANCH  31  33
ATOM     33  O   LIG    1      -25.721  84.404  38.467  0.00  0.00    -0.491 OA
ATOM     34  H   LIG    1      -25.052  84.178  39.141  0.00  0.00    +0.294 HD
ENDBRANCH  31  33
BRANCH  32  35
ATOM     35  C   LIG    1      -27.816  84.059  36.817  0.00  0.00    +0.202 C 
BRANCH  35  36
ATOM     36  C   LIG    1      -27.883  85.265  35.907  0.00  0.00    +0.085 A 
ATOM     37  N   LIG    1      -26.787  86.057  35.826  0.00  0.00    -0.152 NA
ATOM     38  N   LIG    1      -26.783  87.143  34.996  0.00  0.00    -0.157 NA
ATOM     39  C   LIG    1      -27.875  87.417  34.261  0.00  0.00    +0.135 A 
ATOM     40  C   LIG    1      -29.009  86.633  34.300  0.00  0.00    +0.023 A 
ATOM     41  C   LIG    1      -29.011  85.525  35.138  0.00  0.00    +0.028 A 
ENDBRANCH  35  36
ENDBRANCH  32  35
ENDBRANCH   1  31
TORSDOF 8
ENDMDL
MODEL 4
REMARK VINA RESULT:      -6.6      4.697     10.047
REMARK  Name = pdb/CHEMBL3963169.pdb
REMARK                            x       y       z     vdW  Elec       q    Type
REMARK                         _______ _______ _______ _____ _____    ______ ____
ROOT
ATOM      1  C   LIG    1      -38.706  71.607  24.407  0.00  0.00    +0.149 A 
ATOM      2  N   LIG    1      -39.657  72.403  23.895  0.00  0.00    -0.160 NA
ATOM      3  N   LIG    1      -39.363  73.652  24.354  0.00  0.00    -0.218 N 
ATOM      4  C   LIG    1      -38.182  73.666  25.123  0.00  0.00    +0.129 A 
ATOM      5  C   LIG    1      -37.795  72.345  25.199  0.00  0.00    +0.078 A 
ENDROOT
BRANCH   3   6
ATOM      6  C   LIG    1      -40.218  74.734  24.006  0.00  0.00    +0.067 A 
ATOM      7  C   LIG    1      -41.535  74.480  23.585  0.00  0.00    +0.028 A 
ATOM      8  C   LIG    1      -42.357  75.534  23.178  0.00  0.00    +0.002 A 
ATOM      9  C   LIG    1      -41.883  76.844  23.210  0.00  0.00    +0.000 A 
ATOM     10  C   LIG    1      -40.599  77.106  23.683  0.00  0.00    +0.002 A 
ATOM     11  C   LIG    1      -39.776  76.055  24.095  0.00  0.00    +0.028 A 
ENDBRANCH   3   6
BRANCH   4  12
ATOM     12  N   LIG    1      -37.469  74.795  25.599  0.00  0.00    -0.266 N 
ATOM     13  H   LIG    1      -36.764  75.187  25.005  0.00  0.00    +0.157 HD
ATOM     14  C   LIG    1      -37.703  75.403  26.888  0.00  0.00    +0.251 C 
ATOM     15  O   LIG    1      -38.582  74.955  27.612  0.00  0.00    -0.270 OA
BRANCH  14  16
ATOM     16  C   LIG    1      -36.858  76.519  27.386  0.00  0.00    +0.056 A 
ATOM     17  C   LIG    1      -37.229  77.848  27.353  0.00  0.00    +0.054 A 
ATOM     18 CL   LIG    1      -38.807  78.375  26.910  0.00  0.00    -0.083 Cl
ATOM     19  C   LIG    1      -36.325  78.836  27.764  0.00  0.00    +0.041 A 
ATOM     20  C   LIG    1      -35.063  78.493  28.274  0.00  0.00    +0.052 A 
ATOM     21 CL   LIG    1      -33.994  79.825  28.576  0.00  0.00    -0.083 Cl
ATOM     22  C   LIG    1      -34.699  77.146  28.469  0.00  0.00    +0.022 A 
ATOM     23  C   LIG    1      -35.620  76.173  27.984  0.00  0.00    +0.026 A 
BRANCH  22  24
ATOM     24  C   LIG    1      -33.461  76.721  29.184  0.00  0.00    +0.107 A 
ATOM     25  C   LIG    1      -32.204  76.635  28.582  0.00  0.00    +0.149 A 
ATOM     26  F   LIG    1      -32.016  76.997  27.304  0.00  0.00    -0.203 F 
ATOM     27  C   LIG    1      -31.110  76.166  29.304  0.00  0.00    +0.042 A 
ATOM     28  C   LIG    1      -31.275  75.815  30.637  0.00  0.00    +0.023 A 
ATOM     29  C   LIG    1      -32.542  75.924  31.179  0.00  0.00    +0.111 A 
ATOM     30  N   LIG    1      -33.627  76.336  30.479  0.00  0.00    -0.252 NA
ENDBRANCH  22  24
ENDBRANCH  14  16
ENDBRANCH   4  12
BRANCH   1  31
ATOM     31  C   LIG    1      -38.670  70.188  24.051  0.00  0.00    +0.236 C 
ATOM     32  N   LIG    1      -38.210  69.801  22.915  0.00  0.00    -0.243 NA
BRANCH  31  33
ATOM     33  O   LIG    1      -39.185  69.358  24.988  0.00  0.00    -0.491 OA
ATOM     34  H   LIG    1      -39.825  69.847  25.537  0.00  0.00    +0.294 HD
ENDBRANCH  31  33
BRANCH  32  35
ATOM     35  C   LIG    1      -38.365  68.365  22.627  0.00  0.00    +0.202 C 
BRANCH  35  36
ATOM     36  C   LIG    1      -37.039  67.638  22.587  0.00  0.00    +0.085 A 
ATOM     37  N   LIG    1      -35.910  68.378  22.703  0.00  0.00    -0.152 NA
ATOM     38  N   LIG    1      -34.687  67.771  22.702  0.00  0.00    -0.157 NA
ATOM     39  C   LIG    1      -34.613  66.432  22.587  0.00  0.00    +0.135 A 
ATOM     40  C   LIG    1      -35.735  65.636  22.480  0.00  0.00    +0.023 A 
ATOM     41  C   LIG    1      -36.979  66.254  22.487  0.00  0.00    +0.028 A 
ENDBRANCH  35  36
ENDBRANCH  32  35
ENDBRANCH   1  31
TORSDOF 8
ENDMDL
MODEL 5
REMARK VINA RESULT:      -6.6      4.681      8.419
REMARK  Name = pdb/CHEMBL3963169.pdb
REMARK                            x       y       z     vdW  Elec       q    Type
REMARK                         _______ _______ _______ _____ _____    ______ ____
ROOT
ATOM      1  C   LIG    1      -35.845  78.984  27.796  0.00  0.00    +0.149 A 
ATOM      2  N   LIG    1      -34.932  78.055  28.119  0.00  0.00    -0.160 NA
ATOM      3  N   LIG    1      -35.537  76.859  27.875  0.00  0.00    -0.218 N 
ATOM      4  C   LIG    1      -36.832  77.022  27.341  0.00  0.00    +0.129 A 
ATOM      5  C   LIG    1      -37.044  78.385  27.342  0.00  0.00    +0.078 A 
ENDROOT
BRANCH   3   6
ATOM      6  C   LIG    1      -34.829  75.657  28.152  0.00  0.00    +0.067 A 
ATOM      7  C   LIG    1      -35.476  74.416  28.018  0.00  0.00    +0.028 A 
ATOM      8  C   LIG    1      -34.806  73.236  28.354  0.00  0.00    +0.002 A 
ATOM      9  C   LIG    1      -33.488  73.284  28.802  0.00  0.00    +0.000 A 
ATOM     10  C   LIG    1      -32.825  74.506  28.880  0.00  0.00    +0.002 A 
ATOM     11  C   LIG    1      -33.489  75.686  28.541  0.00  0.00    +0.028 A 
ENDBRANCH   3   6
BRANCH   4  12
ATOM     12  N   LIG    1      -37.678  76.026  26.792  0.00  0.00    -0.266 N 
ATOM     13  H   LIG    1      -38.235  75.485  27.424  0.00  0.00    +0.157 HD
ATOM     14  C   LIG    1      -37.774  75.750  25.377  0.00  0.00    +0.251 C 
ATOM     15  O   LIG    1      -37.123  76.424  24.590  0.00  0.00    -0.270 OA
BRANCH  14  16
ATOM     16  C   LIG    1      -38.594  74.626  24.859  0.00  0.00    +0.056 A 
ATOM     17  C   LIG    1      -39.811  74.780  24.226  0.00  0.00    +0.054 A 
ATOM     18 CL   LIG    1      -40.450  76.313  23.775  0.00  0.00    -0.083 Cl
ATOM     19  C   LIG    1      -40.552  73.652  23.853  0.00  0.00    +0.041 A 
ATOM     20  C   LIG    1      -40.047  72.357  24.053  0.00  0.00    +0.052 A 
ATOM     21 CL   LIG    1      -41.149  71.064  23.701  0.00  0.00    -0.083 Cl
ATOM     22  C   LIG    1      -38.747  72.154  24.554  0.00  0.00    +0.022 A 
ATOM     23  C   LIG    1      -38.050  73.323  24.977  0.00  0.00    +0.026 A 
BRANCH  22  24
ATOM     24  C   LIG    1      -38.081  70.820  24.606  0.00  0.00    +0.107 A 
ATOM     25  C   LIG    1      -37.679  70.195  25.788  0.00  0.00    +0.149 A 
ATOM     26  F   LIG    1      -37.928  70.743  26.987  0.00  0.00    -0.203 F 
ATOM     27  C   LIG    1      -37.004  68.978  25.745  0.00  0.00    +0.042 A 
ATOM     28  C   LIG    1      -36.764  68.377  24.517  0.00  0.00    +0.023 A 
ATOM     29  C   LIG    1      -37.188  69.042  23.381  0.00  0.00    +0.111 A 
ATOM     30  N   LIG    1      -37.805  70.248  23.402  0.00  0.00    -0.252 NA
ENDBRANCH  22  24
ENDBRANCH  14  16
ENDBRANCH   4  12
BRANCH   1  31
ATOM     31  C   LIG    1      -35.499  80.404  27.864  0.00  0.00    +0.236 C 
ATOM     32  N   LIG    1      -36.219  81.231  28.534  0.00  0.00    -0.243 NA
BRANCH  31  33
ATOM     33  O   LIG    1      -34.407  80.753  27.145  0.00  0.00    -0.491 OA
ATOM     34  H   LIG    1      -33.842  79.969  27.013  0.00  0.00    +0.294 HD
ENDBRANCH  31  33
BRANCH  32  35
ATOM     35  C   LIG    1      -35.842  82.648  28.400  0.00  0.00    +0.202 C 
BRANCH  35  36
ATOM     36  C   LIG    1      -36.552  83.328  27.250  0.00  0.00    +0.085 A 
ATOM     37  N   LIG    1      -36.008  83.211  26.016  0.00  0.00    -0.152 NA
ATOM     38  N   LIG    1      -36.623  83.780  24.936  0.00  0.00    -0.157 NA
ATOM     39  C   LIG    1      -37.774  84.456  25.111  0.00  0.00    +0.135 A 
ATOM     40  C   LIG    1      -38.372  84.590  26.347  0.00  0.00    +0.023 A 
ATOM     41  C   LIG    1      -37.750  84.006  27.443  0.00  0.00    +0.028 A 
ENDBRANCH  35  36
ENDBRANCH  32  35
ENDBRANCH   1  31
TORSDOF 8
ENDMDL
MODEL 6
REMARK VINA RESULT:      -6.4      4.758      7.751
REMARK  Name = pdb/CHEMBL3963169.pdb
REMARK                            x       y       z     vdW  Elec       q    Type
REMARK                         _______ _______ _______ _____ _____    ______ ____
ROOT
ATOM      1  C   LIG    1      -36.089  79.361  27.813  0.00  0.00    +0.149 A 
ATOM      2  N   LIG    1      -35.143  78.460  28.120  0.00  0.00    -0.160 NA
ATOM      3  N   LIG    1      -35.711  77.247  27.870  0.00  0.00    -0.218 N 
ATOM      4  C   LIG    1      -37.014  77.372  27.346  0.00  0.00    +0.129 A 
ATOM      5  C   LIG    1      -37.271  78.727  27.361  0.00  0.00    +0.078 A 
ENDROOT
BRANCH   3   6
ATOM      6  C   LIG    1      -34.961  76.067  28.131  0.00  0.00    +0.067 A 
ATOM      7  C   LIG    1      -33.627  76.165  28.561  0.00  0.00    +0.028 A 
ATOM      8  C   LIG    1      -32.865  75.009  28.754  0.00  0.00    +0.002 A 
ATOM      9  C   LIG    1      -33.431  73.755  28.541  0.00  0.00    +0.000 A 
ATOM     10  C   LIG    1      -34.770  73.651  28.172  0.00  0.00    +0.002 A 
ATOM     11  C   LIG    1      -35.536  74.803  27.983  0.00  0.00    +0.028 A 
ENDBRANCH   3   6
BRANCH   4  12
ATOM     12  N   LIG    1      -37.830  76.353  26.794  0.00  0.00    -0.266 N 
ATOM     13  H   LIG    1      -38.436  75.853  27.413  0.00  0.00    +0.157 HD
ATOM     14  C   LIG    1      -37.829  76.000  25.393  0.00  0.00    +0.251 C 
ATOM     15  O   LIG    1      -37.116  76.625  24.618  0.00  0.00    -0.270 OA
BRANCH  14  16
ATOM     16  C   LIG    1      -38.623  74.856  24.880  0.00  0.00    +0.056 A 
ATOM     17  C   LIG    1      -39.819  74.981  24.203  0.00  0.00    +0.054 A 
ATOM     18 CL   LIG    1      -40.455  76.496  23.688  0.00  0.00    -0.083 Cl
ATOM     19  C   LIG    1      -40.539  73.837  23.837  0.00  0.00    +0.041 A 
ATOM     20  C   LIG    1      -40.031  72.553  24.090  0.00  0.00    +0.052 A 
ATOM     21 CL   LIG    1      -41.111  71.241  23.739  0.00  0.00    -0.083 Cl
ATOM     22  C   LIG    1      -38.747  72.374  24.640  0.00  0.00    +0.022 A 
ATOM     23  C   LIG    1      -38.073  73.560  25.052  0.00  0.00    +0.026 A 
BRANCH  22  24
ATOM     24  C   LIG    1      -38.073  71.048  24.751  0.00  0.00    +0.107 A 
ATOM     25  C   LIG    1      -37.655  70.486  25.959  0.00  0.00    +0.149 A 
ATOM     26  F   LIG    1      -37.893  71.093  27.131  0.00  0.00    -0.203 F 
ATOM     27  C   LIG    1      -36.974  69.271  25.969  0.00  0.00    +0.042 A 
ATOM     28  C   LIG    1      -36.744  68.610  24.770  0.00  0.00    +0.023 A 
ATOM     29  C   LIG    1      -37.184  69.215  23.608  0.00  0.00    +0.111 A 
ATOM     30  N   LIG    1      -37.808  70.418  23.574  0.00  0.00    -0.252 NA
ENDBRANCH  22  24
ENDBRANCH  14  16
ENDBRANCH   4  12
BRANCH   1  31
ATOM     31  C   LIG    1      -35.790  80.791  27.891  0.00  0.00    +0.236 C 
ATOM     32  N   LIG    1      -36.569  81.598  28.519  0.00  0.00    -0.243 NA
BRANCH  31  33
ATOM     33  O   LIG    1      -34.673  81.171  27.228  0.00  0.00    -0.491 OA
ATOM     34  H   LIG    1      -34.039  81.559  27.859  0.00  0.00    +0.294 HD
ENDBRANCH  31  33
BRANCH  32  35
ATOM     35  C   LIG    1      -36.229  83.026  28.398  0.00  0.00    +0.202 C 
BRANCH  35  36
ATOM     36  C   LIG    1      -35.524  83.558  29.626  0.00  0.00    +0.085 A 
ATOM     37  N   LIG    1      -34.277  83.099  29.886  0.00  0.00    -0.152 NA
ATOM     38  N   LIG    1      -33.583  83.568  30.966  0.00  0.00    -0.157 NA
ATOM     39  C   LIG    1      -34.149  84.489  31.767  0.00  0.00    +0.135 A 
ATOM     40  C   LIG    1      -35.411  84.996  31.534  0.00  0.00    +0.023 A 
ATOM     41  C   LIG    1      -36.113  84.524  30.433  0.00  0.00    +0.028 A 
ENDBRANCH  35  36
ENDBRANCH  32  35
ENDBRANCH   1  31
TORSDOF 8
ENDMDL
MODEL 7
REMARK VINA RESULT:      -6.4      8.364     10.339
REMARK  Name = pdb/CHEMBL3963169.pdb
REMARK                            x       y       z     vdW  Elec       q    Type
REMARK                         _______ _______ _______ _____ _____    ______ ____
ROOT
ATOM      1  C   LIG    1      -31.237  87.155  30.797  0.00  0.00    +0.149 A 
ATOM      2  N   LIG    1      -32.334  87.903  30.605  0.00  0.00    -0.160 NA
ATOM      3  N   LIG    1      -33.177  87.120  29.874  0.00  0.00    -0.218 N 
ATOM      4  C   LIG    1      -32.637  85.838  29.642  0.00  0.00    +0.129 A 
ATOM      5  C   LIG    1      -31.373  85.884  30.190  0.00  0.00    +0.078 A 
ENDROOT
BRANCH   3   6
ATOM      6  C   LIG    1      -34.436  87.647  29.472  0.00  0.00    +0.067 A 
ATOM      7  C   LIG    1      -35.584  87.377  30.235  0.00  0.00    +0.028 A 
ATOM      8  C   LIG    1      -36.834  87.834  29.808  0.00  0.00    +0.002 A 
ATOM      9  C   LIG    1      -36.943  88.580  28.637  0.00  0.00    +0.000 A 
ATOM     10  C   LIG    1      -35.799  88.900  27.909  0.00  0.00    +0.002 A 
ATOM     11  C   LIG    1      -34.548  88.449  28.335  0.00  0.00    +0.028 A 
ENDBRANCH   3   6
BRANCH   4  12
ATOM     12  N   LIG    1      -33.291  84.707  29.094  0.00  0.00    -0.266 N 
ATOM     13  H   LIG    1      -33.128  84.493  28.130  0.00  0.00    +0.157 HD
ATOM     14  C   LIG    1      -34.178  83.853  29.850  0.00  0.00    +0.251 C 
ATOM     15  O   LIG    1      -34.363  84.082  31.038  0.00  0.00    -0.270 OA
BRANCH  14  16
ATOM     16  C   LIG    1      -34.922  82.741  29.206  0.00  0.00    +0.056 A 
ATOM     17  C   LIG    1      -36.146  82.883  28.584  0.00  0.00    +0.054 A 
ATOM     18 CL   LIG    1      -36.885  84.411  28.298  0.00  0.00    -0.083 Cl
ATOM     19  C   LIG    1      -36.810  81.756  28.084  0.00  0.00    +0.041 A 
ATOM     20  C   LIG    1      -36.221  80.483  28.145  0.00  0.00    +0.052 A 
ATOM     21 CL   LIG    1      -37.235  79.167  27.647  0.00  0.00    -0.083 Cl
ATOM     22  C   LIG    1      -34.911  80.312  28.632  0.00  0.00    +0.022 A 
ATOM     23  C   LIG    1      -34.293  81.471  29.185  0.00  0.00    +0.026 A 
BRANCH  22  24
ATOM     24  C   LIG    1      -34.158  79.027  28.542  0.00  0.00    +0.107 A 
ATOM     25  C   LIG    1      -33.220  78.741  27.548  0.00  0.00    +0.149 A 
ATOM     26  F   LIG    1      -32.887  79.652  26.620  0.00  0.00    -0.203 F 
ATOM     27  C   LIG    1      -32.609  77.491  27.497  0.00  0.00    +0.042 A 
ATOM     28  C   LIG    1      -32.916  76.545  28.465  0.00  0.00    +0.023 A 
ATOM     29  C   LIG    1      -33.849  76.887  29.426  0.00  0.00    +0.111 A 
ATOM     30  N   LIG    1      -34.488  78.081  29.464  0.00  0.00    -0.252 NA
ENDBRANCH  22  24
ENDBRANCH  14  16
ENDBRANCH   4  12
BRANCH   1  31
ATOM     31  C   LIG    1      -30.141  87.664  31.622  0.00  0.00    +0.236 C 
ATOM     32  N   LIG    1      -30.324  87.960  32.859  0.00  0.00    -0.243 NA
BRANCH  31  33
ATOM     33  O   LIG    1      -28.968  87.822  30.966  0.00  0.00    -0.491 OA
ATOM     34  H   LIG    1      -28.878  88.751  30.682  0.00  0.00    +0.294 HD
ENDBRANCH  31  33
BRANCH  32  35
ATOM     35  C   LIG    1      -29.178  88.596  33.532  0.00  0.00    +0.202 C 
BRANCH  35  36
ATOM     36  C   LIG    1      -28.643  87.760  34.675  0.00  0.00    +0.085 A 
ATOM     37  N   LIG    1      -27.458  87.132  34.495  0.00  0.00    -0.152 NA
ATOM     38  N   LIG    1      -26.914  86.388  35.504  0.00  0.00    -0.157 NA
ATOM     39  C   LIG    1      -27.565  86.287  36.677  0.00  0.00    +0.135 A 
ATOM     40  C   LIG    1      -28.768  86.920  36.910  0.00  0.00    +0.023 A 
ATOM     41  C   LIG    1      -29.318  87.682  35.887  0.00  0.00    +0.028 A 
ENDBRANCH  35  36
ENDBRANCH  32  35
ENDBRANCH   1  31
TORSDOF 8
ENDMDL
MODEL 8
REMARK VINA RESULT:      -6.3     13.137     16.439
REMARK  Name = pdb/CHEMBL3963169.pdb
REMARK                            x       y       z     vdW  Elec       q    Type
REMARK                         _______ _______ _______ _____ _____    ______ ____
ROOT
ATOM      1  C   LIG    1      -31.251  66.274  19.251  0.00  0.00    +0.149 A 
ATOM      2  N   LIG    1      -30.133  65.540  19.356  0.00  0.00    -0.160 NA
ATOM      3  N   LIG    1      -29.184  66.235  18.669  0.00  0.00    -0.218 N 
ATOM      4  C   LIG    1      -29.684  67.453  18.164  0.00  0.00    +0.129 A 
ATOM      5  C   LIG    1      -31.022  67.448  18.494  0.00  0.00    +0.078 A 
ENDROOT
BRANCH   3   6
ATOM      6  C   LIG    1      -27.871  65.695  18.565  0.00  0.00    +0.067 A 
ATOM      7  C   LIG    1      -27.448  65.112  17.359  0.00  0.00    +0.028 A 
ATOM      8  C   LIG    1      -26.185  64.519  17.272  0.00  0.00    +0.002 A 
ATOM      9  C   LIG    1      -25.333  64.524  18.374  0.00  0.00    +0.000 A 
ATOM     10  C   LIG    1      -25.726  65.153  19.552  0.00  0.00    +0.002 A 
ATOM     11  C   LIG    1      -26.985  65.750  19.642  0.00  0.00    +0.028 A 
ENDBRANCH   3   6
BRANCH   4  12
ATOM     12  N   LIG    1      -28.953  68.514  17.573  0.00  0.00    -0.266 N 
ATOM     13  H   LIG    1      -29.064  68.668  16.590  0.00  0.00    +0.157 HD
ATOM     14  C   LIG    1      -28.060  69.377  18.311  0.00  0.00    +0.251 C 
ATOM     15  O   LIG    1      -27.938  69.222  19.519  0.00  0.00    -0.270 OA
BRANCH  14  16
ATOM     16  C   LIG    1      -27.236  70.408  17.630  0.00  0.00    +0.056 A 
ATOM     17  C   LIG    1      -27.754  71.495  16.955  0.00  0.00    +0.054 A 
ATOM     18 CL   LIG    1      -29.424  71.911  16.982  0.00  0.00    -0.083 Cl
ATOM     19  C   LIG    1      -26.897  72.363  16.268  0.00  0.00    +0.041 A 
ATOM     20  C   LIG    1      -25.505  72.185  16.305  0.00  0.00    +0.052 A 
ATOM     21 CL   LIG    1      -24.590  73.231  15.267  0.00  0.00    -0.083 Cl
ATOM     22  C   LIG    1      -24.922  71.181  17.104  0.00  0.00    +0.022 A 
ATOM     23  C   LIG    1      -25.828  70.283  17.739  0.00  0.00    +0.026 A 
BRANCH  22  24
ATOM     24  C   LIG    1      -23.454  71.064  17.342  0.00  0.00    +0.107 A 
ATOM     25  C   LIG    1      -22.648  70.081  16.764  0.00  0.00    +0.149 A 
ATOM     26  F   LIG    1      -23.146  69.194  15.889  0.00  0.00    -0.203 F 
ATOM     27  C   LIG    1      -21.296  70.001  17.090  0.00  0.00    +0.042 A 
ATOM     28  C   LIG    1      -20.753  70.928  17.969  0.00  0.00    +0.023 A 
ATOM     29  C   LIG    1      -21.600  71.879  18.506  0.00  0.00    +0.111 A 
ATOM     30  N   LIG    1      -22.926  71.944  18.236  0.00  0.00    -0.252 NA
ENDBRANCH  22  24
ENDBRANCH  14  16
ENDBRANCH   4  12
BRANCH   1  31
ATOM     31  C   LIG    1      -32.469  65.855  19.946  0.00  0.00    +0.236 C 
ATOM     32  N   LIG    1      -33.035  66.620  20.810  0.00  0.00    -0.243 NA
BRANCH  31  33
ATOM     33  O   LIG    1      -32.901  64.613  19.629  0.00  0.00    -0.491 OA
ATOM     34  H   LIG    1      -32.383  64.272  18.876  0.00  0.00    +0.294 HD
ENDBRANCH  31  33
BRANCH  32  35
ATOM     35  C   LIG    1      -34.166  66.020  21.539  0.00  0.00    +0.202 C 
BRANCH  35  36
ATOM     36  C   LIG    1      -35.182  67.051  21.978  0.00  0.00    +0.085 A 
ATOM     37  N   LIG    1      -34.899  67.785  23.081  0.00  0.00    -0.152 NA
ATOM     38  N   LIG    1      -35.768  68.750  23.506  0.00  0.00    -0.157 NA
ATOM     39  C   LIG    1      -36.904  68.966  22.819  0.00  0.00    +0.135 A 
ATOM     40  C   LIG    1      -37.228  68.253  21.683  0.00  0.00    +0.023 A 
ATOM     41  C   LIG    1      -36.342  67.276  21.248  0.00  0.00    +0.028 A 
ENDBRANCH  35  36
ENDBRANCH  32  35
ENDBRANCH   1  31
TORSDOF 8
ENDMDL
MODEL 9
REMARK VINA RESULT:      -6.3      4.871     11.105
REMARK  Name = pdb/CHEMBL3963169.pdb
REMARK                            x       y       z     vdW  Elec       q    Type
REMARK                         _______ _______ _______ _____ _____    ______ ____
ROOT
ATOM      1  C   LIG    1      -40.775  72.690  23.504  0.00  0.00    +0.149 A 
ATOM      2  N   LIG    1      -41.068  74.000  23.525  0.00  0.00    -0.160 NA
ATOM      3  N   LIG    1      -40.085  74.574  24.272  0.00  0.00    -0.218 N 
ATOM      4  C   LIG    1      -39.122  73.633  24.691  0.00  0.00    +0.129 A 
ATOM      5  C   LIG    1      -39.597  72.420  24.241  0.00  0.00    +0.078 A 
ENDROOT
BRANCH   3   6
ATOM      6  C   LIG    1      -40.130  75.976  24.513  0.00  0.00    +0.067 A 
ATOM      7  C   LIG    1      -40.323  76.456  25.820  0.00  0.00    +0.028 A 
ATOM      8  C   LIG    1      -40.436  77.830  26.052  0.00  0.00    +0.002 A 
ATOM      9  C   LIG    1      -40.335  78.729  24.993  0.00  0.00    +0.000 A 
ATOM     10  C   LIG    1      -40.085  78.260  23.706  0.00  0.00    +0.002 A 
ATOM     11  C   LIG    1      -39.967  76.889  23.470  0.00  0.00    +0.028 A 
ENDBRANCH   3   6
BRANCH   4  12
ATOM     12  N   LIG    1      -37.873  73.885  25.312  0.00  0.00    -0.266 N 
ATOM     13  H   LIG    1      -37.081  74.046  24.722  0.00  0.00    +0.157 HD
ATOM     14  C   LIG    1      -37.686  73.920  26.744  0.00  0.00    +0.251 C 
ATOM     15  O   LIG    1      -38.651  73.756  27.479  0.00  0.00    -0.270 OA
BRANCH  14  16
ATOM     16  C   LIG    1      -36.340  74.083  27.348  0.00  0.00    +0.056 A 
ATOM     17  C   LIG    1      -35.617  73.058  27.924  0.00  0.00    +0.054 A 
ATOM     18 CL   LIG    1      -36.097  71.407  27.844  0.00  0.00    -0.083 Cl
ATOM     19  C   LIG    1      -34.393  73.331  28.547  0.00  0.00    +0.041 A 
ATOM     20  C   LIG    1      -33.851  74.626  28.541  0.00  0.00    +0.052 A 
ATOM     21 CL   LIG    1      -32.422  74.841  29.499  0.00  0.00    -0.083 Cl
ATOM     22  C   LIG    1      -34.477  75.671  27.835  0.00  0.00    +0.022 A 
ATOM     23  C   LIG    1      -35.748  75.369  27.265  0.00  0.00    +0.026 A 
BRANCH  22  24
ATOM     24  C   LIG    1      -33.857  77.012  27.624  0.00  0.00    +0.107 A 
ATOM     25  C   LIG    1      -34.305  78.182  28.240  0.00  0.00    +0.149 A 
ATOM     26  F   LIG    1      -35.310  78.163  29.129  0.00  0.00    -0.203 F 
ATOM     27  C   LIG    1      -33.712  79.406  27.939  0.00  0.00    +0.042 A 
ATOM     28  C   LIG    1      -32.651  79.445  27.045  0.00  0.00    +0.023 A 
ATOM     29  C   LIG    1      -32.250  78.254  26.470  0.00  0.00    +0.111 A 
ATOM     30  N   LIG    1      -32.845  77.061  26.716  0.00  0.00    -0.252 NA
ENDBRANCH  22  24
ENDBRANCH  14  16
ENDBRANCH   4  12
BRANCH   1  31
ATOM     31  C   LIG    1      -41.593  71.770  22.714  0.00  0.00    +0.236 C 
ATOM     32  N   LIG    1      -41.419  70.499  22.787  0.00  0.00    -0.243 NA
BRANCH  31  33
ATOM     33  O   LIG    1      -42.492  72.371  21.900  0.00  0.00    -0.491 OA
ATOM     34  H   LIG    1      -43.107  71.702  21.547  0.00  0.00    +0.294 HD
ENDBRANCH  31  33
BRANCH  32  35
ATOM     35  C   LIG    1      -42.207  69.698  21.834  0.00  0.00    +0.202 C 
BRANCH  35  36
ATOM     36  C   LIG    1      -41.424  68.532  21.273  0.00  0.00    +0.085 A 
ATOM     37  N   LIG    1      -42.120  67.452  20.845  0.00  0.00    -0.152 NA
ATOM     38  N   LIG    1      -41.465  66.383  20.302  0.00  0.00    -0.157 NA
ATOM     39  C   LIG    1      -40.124  66.414  20.194  0.00  0.00    +0.135 A 
ATOM     40  C   LIG    1      -39.374  67.497  20.603  0.00  0.00    +0.023 A 
ATOM     41  C   LIG    1      -40.041  68.587  21.149  0.00  0.00    +0.028 A 
ENDBRANCH  35  36
ENDBRANCH  32  35
ENDBRANCH   1  31
TORSDOF 8
ENDMDL
