MODEL 1
REMARK VINA RESULT:      -6.7      0.000      0.000
REMARK  Name = pdb/CHEMBL3671447.pdb
REMARK                            x       y       z     vdW  Elec       q    Type
REMARK                         _______ _______ _______ _____ _____    ______ ____
ROOT
ATOM      1  C   LIG    1      -20.590  76.951  30.627  0.00  0.00    +0.042 A 
ATOM      2  C   LIG    1      -20.741  77.879  31.663  0.00  0.00    +0.038 A 
ATOM      3  C   LIG    1      -19.627  78.397  32.328  0.00  0.00    +0.053 A 
ATOM      4  C   LIG    1      -18.379  77.931  31.927  0.00  0.00    +0.134 A 
ATOM      5  N   LIG    1      -18.198  76.990  30.961  0.00  0.00    -0.261 NA
ATOM      6  C   LIG    1      -19.306  76.507  30.341  0.00  0.00    +0.122 A 
ENDROOT
BRANCH   3   7
ATOM      7  N   LIG    1      -19.865  79.316  33.378  0.00  0.00    -0.280 N 
ATOM      8  H   LIG    1      -19.825  80.293  33.126  0.00  0.00    +0.155 HD
ATOM      9  C   LIG    1      -20.022  79.006  34.714  0.00  0.00    +0.248 C 
ATOM     10  O   LIG    1      -19.935  77.867  35.190  0.00  0.00    -0.270 OA
BRANCH   9  11
ATOM     11  C   LIG    1      -20.273  80.137  35.647  0.00  0.00    +0.040 A 
ATOM     12  C   LIG    1      -21.316  81.037  35.410  0.00  0.00    +0.059 A 
ATOM     13  C   LIG    1      -21.659  82.007  36.356  0.00  0.00    +0.131 A 
ATOM     14  C   LIG    1      -20.856  82.170  37.492  0.00  0.00    +0.046 A 
ATOM     15  C   LIG    1      -19.801  81.287  37.735  0.00  0.00    +0.004 A 
ATOM     16  C   LIG    1      -19.521  80.264  36.824  0.00  0.00    +0.013 A 
BRANCH  13  17
ATOM     17  O   LIG    1      -22.745  82.826  36.246  0.00  0.00    -0.406 OA
BRANCH  17  18
ATOM     18  C   LIG    1      -24.017  82.346  36.694  0.00  0.00    +0.575 C 
ATOM     19  F   LIG    1      -24.417  81.330  35.899  0.00  0.00    -0.133 F 
ATOM     20  F   LIG    1      -24.921  83.344  36.603  0.00  0.00    -0.133 F 
ATOM     21  F   LIG    1      -24.035  81.910  37.974  0.00  0.00    -0.133 F 
ENDBRANCH  17  18
ENDBRANCH  13  17
ENDBRANCH   9  11
ENDBRANCH   3   7
BRANCH   1  22
ATOM     22  C   LIG    1      -21.762  76.379  29.913  0.00  0.00    +0.197 C 
ATOM     23  O   LIG    1      -21.766  76.382  28.688  0.00  0.00    -0.287 OA
BRANCH  22  31
ATOM     24  N   LIG    1      -24.077  74.359  31.933  0.00  0.00    -0.321 N 
ATOM     25  C   LIG    1      -24.876  75.451  31.702  0.00  0.00    +0.145 A 
ATOM     26  N   LIG    1      -26.133  75.627  32.148  0.00  0.00    -0.218 NA
ATOM     27  C   LIG    1      -26.658  76.791  31.728  0.00  0.00    +0.223 A 
ATOM     28  N   LIG    1      -26.074  77.727  30.954  0.00  0.00    -0.243 NA
ATOM     29  C   LIG    1      -24.803  77.512  30.546  0.00  0.00    +0.124 A 
ATOM     30  C   LIG    1      -24.147  76.338  30.916  0.00  0.00    +0.048 A 
ATOM     31  C   LIG    1      -22.855  75.765  30.680  0.00  0.00    +0.051 A 
ATOM     32  C   LIG    1      -22.845  74.548  31.349  0.00  0.00    +0.100 A 
BRANCH  24  34
ATOM     33  C   LIG    1      -24.547  73.707  34.243  0.00  0.00    +0.039 C 
ATOM     34  C   LIG    1      -24.413  73.249  32.794  0.00  0.00    +0.090 C 
ATOM     35  C   LIG    1      -25.559  72.361  32.292  0.00  0.00    +0.190 C 
ATOM     36  O   LIG    1      -24.721  71.176  32.413  0.00  0.00    -0.375 OA
ATOM     37  C   LIG    1      -23.544  72.000  32.606  0.00  0.00    +0.190 C 
ENDBRANCH  24  34
ENDBRANCH  22  31
ENDBRANCH   1  22
TORSDOF 7
ENDMDL
MODEL 2
REMARK VINA RESULT:      -6.5      5.525      8.897
REMARK  Name = pdb/CHEMBL3671447.pdb
REMARK                            x       y       z     vdW  Elec       q    Type
REMARK                         _______ _______ _______ _____ _____    ______ ____
ROOT
ATOM      1  C   LIG    1      -29.406  75.802  31.953  0.00  0.00    +0.042 A 
ATOM      2  C   LIG    1      -28.041  75.856  31.654  0.00  0.00    +0.038 A 
ATOM      3  C   LIG    1      -27.156  76.564  32.469  0.00  0.00    +0.053 A 
ATOM      4  C   LIG    1      -27.698  77.223  33.568  0.00  0.00    +0.134 A 
ATOM      5  N   LIG    1      -29.028  77.236  33.860  0.00  0.00    -0.261 NA
ATOM      6  C   LIG    1      -29.857  76.540  33.040  0.00  0.00    +0.122 A 
ENDROOT
BRANCH   3   7
ATOM      7  N   LIG    1      -25.793  76.587  32.086  0.00  0.00    -0.280 N 
ATOM      8  H   LIG    1      -25.175  75.995  32.622  0.00  0.00    +0.155 HD
ATOM      9  C   LIG    1      -25.225  77.420  31.143  0.00  0.00    +0.248 C 
ATOM     10  O   LIG    1      -25.830  78.303  30.524  0.00  0.00    -0.270 OA
BRANCH   9  11
ATOM     11  C   LIG    1      -23.767  77.263  30.893  0.00  0.00    +0.040 A 
ATOM     12  C   LIG    1      -22.842  77.456  31.923  0.00  0.00    +0.059 A 
ATOM     13  C   LIG    1      -21.489  77.161  31.741  0.00  0.00    +0.131 A 
ATOM     14  C   LIG    1      -21.031  76.802  30.467  0.00  0.00    +0.046 A 
ATOM     15  C   LIG    1      -21.942  76.621  29.422  0.00  0.00    +0.004 A 
ATOM     16  C   LIG    1      -23.306  76.834  29.639  0.00  0.00    +0.013 A 
BRANCH  13  17
ATOM     17  O   LIG    1      -20.561  77.200  32.741  0.00  0.00    -0.406 OA
BRANCH  17  18
ATOM     18  C   LIG    1      -20.039  78.470  33.146  0.00  0.00    +0.575 C 
ATOM     19  F   LIG    1      -19.782  79.218  32.051  0.00  0.00    -0.133 F 
ATOM     20  F   LIG    1      -18.884  78.278  33.817  0.00  0.00    -0.133 F 
ATOM     21  F   LIG    1      -20.856  79.180  33.957  0.00  0.00    -0.133 F 
ENDBRANCH  17  18
ENDBRANCH  13  17
ENDBRANCH   9  11
ENDBRANCH   3   7
BRANCH   1  22
ATOM     22  C   LIG    1      -30.367  75.063  31.093  0.00  0.00    +0.197 C 
ATOM     23  O   LIG    1      -30.252  73.848  30.987  0.00  0.00    -0.287 OA
BRANCH  22  31
ATOM     24  N   LIG    1      -32.743  76.873  28.948  0.00  0.00    -0.321 N 
ATOM     25  C   LIG    1      -33.502  76.771  30.087  0.00  0.00    +0.145 A 
ATOM     26  N   LIG    1      -34.755  77.233  30.252  0.00  0.00    -0.218 NA
ATOM     27  C   LIG    1      -35.217  77.001  31.493  0.00  0.00    +0.223 A 
ATOM     28  N   LIG    1      -34.578  76.391  32.510  0.00  0.00    -0.243 NA
ATOM     29  C   LIG    1      -33.326  75.929  32.288  0.00  0.00    +0.124 A 
ATOM     30  C   LIG    1      -32.734  76.109  31.038  0.00  0.00    +0.048 A 
ATOM     31  C   LIG    1      -31.471  75.785  30.444  0.00  0.00    +0.051 A 
ATOM     32  C   LIG    1      -31.528  76.255  29.139  0.00  0.00    +0.100 A 
BRANCH  24  34
ATOM     33  C   LIG    1      -34.369  76.581  27.145  0.00  0.00    +0.039 C 
ATOM     34  C   LIG    1      -33.203  77.401  27.685  0.00  0.00    +0.090 C 
ATOM     35  C   LIG    1      -33.417  78.921  27.656  0.00  0.00    +0.190 C 
ATOM     36  O   LIG    1      -32.552  79.041  26.490  0.00  0.00    -0.375 OA
ATOM     37  C   LIG    1      -32.097  77.675  26.658  0.00  0.00    +0.190 C 
ENDBRANCH  24  34
ENDBRANCH  22  31
ENDBRANCH   1  22
TORSDOF 7
ENDMDL
MODEL 3
REMARK VINA RESULT:      -6.2      1.714      2.112
REMARK  Name = pdb/CHEMBL3671447.pdb
REMARK                            x       y       z     vdW  Elec       q    Type
REMARK                         _______ _______ _______ _____ _____    ______ ____
ROOT
ATOM      1  C   LIG    1      -20.940  77.040  30.734  0.00  0.00    +0.042 A 
ATOM      2  C   LIG    1      -21.278  77.794  31.863  0.00  0.00    +0.038 A 
ATOM      3  C   LIG    1      -20.290  78.388  32.649  0.00  0.00    +0.053 A 
ATOM      4  C   LIG    1      -18.967  78.176  32.270  0.00  0.00    +0.134 A 
ATOM      5  N   LIG    1      -18.600  77.405  31.209  0.00  0.00    -0.261 NA
ATOM      6  C   LIG    1      -19.592  76.841  30.472  0.00  0.00    +0.122 A 
ENDROOT
BRANCH   3   7
ATOM      7  N   LIG    1      -20.712  79.117  33.787  0.00  0.00    -0.280 N 
ATOM      8  H   LIG    1      -20.948  80.086  33.626  0.00  0.00    +0.155 HD
ATOM      9  C   LIG    1      -20.714  78.665  35.092  0.00  0.00    +0.248 C 
ATOM     10  O   LIG    1      -20.301  77.558  35.456  0.00  0.00    -0.270 OA
BRANCH   9  11
ATOM     11  C   LIG    1      -21.213  79.603  36.132  0.00  0.00    +0.040 A 
ATOM     12  C   LIG    1      -20.799  80.938  36.145  0.00  0.00    +0.059 A 
ATOM     13  C   LIG    1      -21.377  81.864  37.018  0.00  0.00    +0.131 A 
ATOM     14  C   LIG    1      -22.281  81.417  37.989  0.00  0.00    +0.046 A 
ATOM     15  C   LIG    1      -22.693  80.082  37.999  0.00  0.00    +0.004 A 
ATOM     16  C   LIG    1      -22.174  79.183  37.064  0.00  0.00    +0.013 A 
BRANCH  13  17
ATOM     17  O   LIG    1      -21.114  83.203  36.989  0.00  0.00    -0.406 OA
BRANCH  17  18
ATOM     18  C   LIG    1      -20.222  83.750  37.966  0.00  0.00    +0.575 C 
ATOM     19  F   LIG    1      -20.940  84.273  38.985  0.00  0.00    -0.133 F 
ATOM     20  F   LIG    1      -19.499  84.738  37.399  0.00  0.00    -0.133 F 
ATOM     21  F   LIG    1      -19.343  82.863  38.485  0.00  0.00    -0.133 F 
ENDBRANCH  17  18
ENDBRANCH  13  17
ENDBRANCH   9  11
ENDBRANCH   3   7
BRANCH   1  22
ATOM     22  C   LIG    1      -21.976  76.390  29.889  0.00  0.00    +0.197 C 
ATOM     23  O   LIG    1      -21.834  76.395  28.672  0.00  0.00    -0.287 OA
BRANCH  22  31
ATOM     24  N   LIG    1      -24.416  74.152  31.488  0.00  0.00    -0.321 N 
ATOM     25  C   LIG    1      -25.157  75.307  31.459  0.00  0.00    +0.145 A 
ATOM     26  N   LIG    1      -26.410  75.460  31.924  0.00  0.00    -0.218 NA
ATOM     27  C   LIG    1      -26.871  76.707  31.724  0.00  0.00    +0.223 A 
ATOM     28  N   LIG    1      -26.232  77.739  31.140  0.00  0.00    -0.243 NA
ATOM     29  C   LIG    1      -24.967  77.539  30.706  0.00  0.00    +0.124 A 
ATOM     30  C   LIG    1      -24.375  76.285  30.855  0.00  0.00    +0.048 A 
ATOM     31  C   LIG    1      -23.109  75.701  30.522  0.00  0.00    +0.051 A 
ATOM     32  C   LIG    1      -23.168  74.383  30.955  0.00  0.00    +0.100 A 
BRANCH  24  34
ATOM     33  C   LIG    1      -25.940  72.244  31.348  0.00  0.00    +0.039 C 
ATOM     34  C   LIG    1      -24.817  72.921  32.127  0.00  0.00    +0.090 C 
ATOM     35  C   LIG    1      -23.663  71.992  32.529  0.00  0.00    +0.190 C 
ATOM     36  O   LIG    1      -24.155  71.939  33.899  0.00  0.00    -0.375 OA
ATOM     37  C   LIG    1      -25.074  73.030  33.635  0.00  0.00    +0.190 C 
ENDBRANCH  24  34
ENDBRANCH  22  31
ENDBRANCH   1  22
TORSDOF 7
ENDMDL
MODEL 4
REMARK VINA RESULT:      -6.2     20.483     23.380
REMARK  Name = pdb/CHEMBL3671447.pdb
REMARK                            x       y       z     vdW  Elec       q    Type
REMARK                         _______ _______ _______ _____ _____    ______ ____
ROOT
ATOM      1  C   LIG    1      -22.755  87.759  12.979  0.00  0.00    +0.042 A 
ATOM      2  C   LIG    1      -22.837  86.385  13.230  0.00  0.00    +0.038 A 
ATOM      3  C   LIG    1      -22.584  85.874  14.504  0.00  0.00    +0.053 A 
ATOM      4  C   LIG    1      -22.230  86.786  15.493  0.00  0.00    +0.134 A 
ATOM      5  N   LIG    1      -22.089  88.122  15.273  0.00  0.00    -0.261 NA
ATOM      6  C   LIG    1      -22.339  88.580  14.018  0.00  0.00    +0.122 A 
ENDROOT
BRANCH   3   7
ATOM      7  N   LIG    1      -22.668  84.470  14.671  0.00  0.00    -0.280 N 
ATOM      8  H   LIG    1      -22.687  83.925  13.821  0.00  0.00    +0.155 HD
ATOM      9  C   LIG    1      -22.845  83.800  15.866  0.00  0.00    +0.248 C 
ATOM     10  O   LIG    1      -22.998  84.345  16.965  0.00  0.00    -0.270 OA
BRANCH   9  11
ATOM     11  C   LIG    1      -22.895  82.315  15.807  0.00  0.00    +0.040 A 
ATOM     12  C   LIG    1      -23.811  81.665  14.975  0.00  0.00    +0.059 A 
ATOM     13  C   LIG    1      -23.764  80.280  14.794  0.00  0.00    +0.131 A 
ATOM     14  C   LIG    1      -22.878  79.518  15.566  0.00  0.00    +0.046 A 
ATOM     15  C   LIG    1      -21.967  80.153  16.414  0.00  0.00    +0.004 A 
ATOM     16  C   LIG    1      -21.964  81.546  16.522  0.00  0.00    +0.013 A 
BRANCH  13  17
ATOM     17  O   LIG    1      -24.540  79.604  13.898  0.00  0.00    -0.406 OA
BRANCH  17  18
ATOM     18  C   LIG    1      -25.711  78.931  14.371  0.00  0.00    +0.575 C 
ATOM     19  F   LIG    1      -25.433  77.620  14.548  0.00  0.00    -0.133 F 
ATOM     20  F   LIG    1      -26.687  79.043  13.447  0.00  0.00    -0.133 F 
ATOM     21  F   LIG    1      -26.207  79.415  15.533  0.00  0.00    -0.133 F 
ENDBRANCH  17  18
ENDBRANCH  13  17
ENDBRANCH   9  11
ENDBRANCH   3   7
BRANCH   1  22
ATOM     22  C   LIG    1      -23.009  88.324  11.628  0.00  0.00    +0.197 C 
ATOM     23  O   LIG    1      -22.219  88.073  10.725  0.00  0.00    -0.287 OA
BRANCH  22  31
ATOM     24  N   LIG    1      -25.700  90.794  11.219  0.00  0.00    -0.321 N 
ATOM     25  C   LIG    1      -26.348  89.678  10.751  0.00  0.00    +0.145 A 
ATOM     26  N   LIG    1      -27.611  89.626  10.289  0.00  0.00    -0.218 NA
ATOM     27  C   LIG    1      -27.962  88.379   9.929  0.00  0.00    +0.223 A 
ATOM     28  N   LIG    1      -27.214  87.261   9.989  0.00  0.00    -0.243 NA
ATOM     29  C   LIG    1      -25.945  87.370  10.444  0.00  0.00    +0.124 A 
ATOM     30  C   LIG    1      -25.460  88.613  10.850  0.00  0.00    +0.048 A 
ATOM     31  C   LIG    1      -24.225  89.110  11.382  0.00  0.00    +0.051 A 
ATOM     32  C   LIG    1      -24.410  90.473  11.573  0.00  0.00    +0.100 A 
BRANCH  24  34
ATOM     33  C   LIG    1      -27.357  92.297  12.209  0.00  0.00    +0.039 C 
ATOM     34  C   LIG    1      -26.231  92.138  11.193  0.00  0.00    +0.090 C 
ATOM     35  C   LIG    1      -25.177  93.253  11.220  0.00  0.00    +0.190 C 
ATOM     36  O   LIG    1      -25.749  93.851  10.021  0.00  0.00    -0.375 OA
ATOM     37  C   LIG    1      -26.564  92.673   9.795  0.00  0.00    +0.190 C 
ENDBRANCH  24  34
ENDBRANCH  22  31
ENDBRANCH   1  22
TORSDOF 7
ENDMDL
MODEL 5
REMARK VINA RESULT:      -6.2     14.637     18.358
REMARK  Name = pdb/CHEMBL3671447.pdb
REMARK                            x       y       z     vdW  Elec       q    Type
REMARK                         _______ _______ _______ _____ _____    ______ ____
ROOT
ATOM      1  C   LIG    1      -40.554  73.866  24.086  0.00  0.00    +0.042 A 
ATOM      2  C   LIG    1      -39.321  74.023  24.728  0.00  0.00    +0.038 A 
ATOM      3  C   LIG    1      -38.725  75.280  24.835  0.00  0.00    +0.053 A 
ATOM      4  C   LIG    1      -39.401  76.352  24.259  0.00  0.00    +0.134 A 
ATOM      5  N   LIG    1      -40.575  76.228  23.581  0.00  0.00    -0.261 NA
ATOM      6  C   LIG    1      -41.120  74.986  23.495  0.00  0.00    +0.122 A 
ENDROOT
BRANCH   3   7
ATOM      7  N   LIG    1      -37.467  75.352  25.481  0.00  0.00    -0.280 N 
ATOM      8  H   LIG    1      -36.660  75.205  24.892  0.00  0.00    +0.155 HD
ATOM      9  C   LIG    1      -37.254  75.483  26.840  0.00  0.00    +0.248 C 
ATOM     10  O   LIG    1      -38.147  75.514  27.695  0.00  0.00    -0.270 OA
BRANCH   9  11
ATOM     11  C   LIG    1      -35.841  75.548  27.299  0.00  0.00    +0.040 A 
ATOM     12  C   LIG    1      -35.182  76.776  27.407  0.00  0.00    +0.059 A 
ATOM     13  C   LIG    1      -33.913  76.865  27.983  0.00  0.00    +0.131 A 
ATOM     14  C   LIG    1      -33.233  75.690  28.328  0.00  0.00    +0.046 A 
ATOM     15  C   LIG    1      -33.873  74.453  28.212  0.00  0.00    +0.004 A 
ATOM     16  C   LIG    1      -35.177  74.384  27.716  0.00  0.00    +0.013 A 
BRANCH  13  17
ATOM     17  O   LIG    1      -33.274  78.044  28.238  0.00  0.00    -0.406 OA
BRANCH  17  18
ATOM     18  C   LIG    1      -32.652  78.738  27.151  0.00  0.00    +0.575 C 
ATOM     19  F   LIG    1      -32.522  77.899  26.100  0.00  0.00    -0.133 F 
ATOM     20  F   LIG    1      -31.422  79.142  27.533  0.00  0.00    -0.133 F 
ATOM     21  F   LIG    1      -33.318  79.838  26.731  0.00  0.00    -0.133 F 
ENDBRANCH  17  18
ENDBRANCH  13  17
ENDBRANCH   9  11
ENDBRANCH   3   7
BRANCH   1  22
ATOM     22  C   LIG    1      -41.201  72.534  23.952  0.00  0.00    +0.197 C 
ATOM     23  O   LIG    1      -42.422  72.462  24.016  0.00  0.00    -0.287 OA
BRANCH  22  31
ATOM     24  N   LIG    1      -38.811  69.745  23.793  0.00  0.00    -0.321 N 
ATOM     25  C   LIG    1      -39.609  69.417  22.726  0.00  0.00    +0.145 A 
ATOM     26  N   LIG    1      -39.466  68.345  21.925  0.00  0.00    -0.218 NA
ATOM     27  C   LIG    1      -40.392  68.319  20.950  0.00  0.00    +0.223 A 
ATOM     28  N   LIG    1      -41.377  69.209  20.725  0.00  0.00    -0.243 NA
ATOM     29  C   LIG    1      -41.490  70.260  21.569  0.00  0.00    +0.124 A 
ATOM     30  C   LIG    1      -40.587  70.400  22.622  0.00  0.00    +0.048 A 
ATOM     31  C   LIG    1      -40.379  71.347  23.678  0.00  0.00    +0.051 A 
ATOM     32  C   LIG    1      -39.283  70.889  24.396  0.00  0.00    +0.100 A 
BRANCH  24  34
ATOM     33  C   LIG    1      -38.285  67.752  25.110  0.00  0.00    +0.039 C 
ATOM     34  C   LIG    1      -37.737  68.930  24.312  0.00  0.00    +0.090 C 
ATOM     35  C   LIG    1      -36.649  68.565  23.293  0.00  0.00    +0.190 C 
ATOM     36  O   LIG    1      -35.616  69.091  24.176  0.00  0.00    -0.375 OA
ATOM     37  C   LIG    1      -36.621  69.707  25.021  0.00  0.00    +0.190 C 
ENDBRANCH  24  34
ENDBRANCH  22  31
ENDBRANCH   1  22
TORSDOF 7
ENDMDL
MODEL 6
REMARK VINA RESULT:      -6.2     16.098     19.115
REMARK  Name = pdb/CHEMBL3671447.pdb
REMARK                            x       y       z     vdW  Elec       q    Type
REMARK                         _______ _______ _______ _____ _____    ______ ____
ROOT
ATOM      1  C   LIG    1      -20.600  81.128  15.895  0.00  0.00    +0.042 A 
ATOM      2  C   LIG    1      -20.224  79.968  16.580  0.00  0.00    +0.038 A 
ATOM      3  C   LIG    1      -18.958  79.408  16.398  0.00  0.00    +0.053 A 
ATOM      4  C   LIG    1      -18.109  80.042  15.495  0.00  0.00    +0.134 A 
ATOM      5  N   LIG    1      -18.461  81.140  14.772  0.00  0.00    -0.261 NA
ATOM      6  C   LIG    1      -19.703  81.652  14.974  0.00  0.00    +0.122 A 
ENDROOT
BRANCH   3   7
ATOM      7  N   LIG    1      -18.661  78.222  17.113  0.00  0.00    -0.280 N 
ATOM      8  H   LIG    1      -18.306  78.349  18.050  0.00  0.00    +0.155 HD
ATOM      9  C   LIG    1      -18.697  76.936  16.611  0.00  0.00    +0.248 C 
ATOM     10  O   LIG    1      -18.958  76.643  15.438  0.00  0.00    -0.270 OA
BRANCH   9  11
ATOM     11  C   LIG    1      -18.354  75.834  17.549  0.00  0.00    +0.040 A 
ATOM     12  C   LIG    1      -18.920  74.565  17.394  0.00  0.00    +0.059 A 
ATOM     13  C   LIG    1      -18.489  73.485  18.169  0.00  0.00    +0.131 A 
ATOM     14  C   LIG    1      -17.581  73.708  19.211  0.00  0.00    +0.046 A 
ATOM     15  C   LIG    1      -17.019  74.976  19.389  0.00  0.00    +0.004 A 
ATOM     16  C   LIG    1      -17.391  76.029  18.550  0.00  0.00    +0.013 A 
BRANCH  13  17
ATOM     17  O   LIG    1      -18.903  72.198  17.977  0.00  0.00    -0.406 OA
BRANCH  17  18
ATOM     18  C   LIG    1      -20.003  71.707  18.750  0.00  0.00    +0.575 C 
ATOM     19  F   LIG    1      -20.751  72.749  19.176  0.00  0.00    -0.133 F 
ATOM     20  F   LIG    1      -19.526  71.051  19.829  0.00  0.00    -0.133 F 
ATOM     21  F   LIG    1      -20.815  70.849  18.091  0.00  0.00    -0.133 F 
ENDBRANCH  17  18
ENDBRANCH  13  17
ENDBRANCH   9  11
ENDBRANCH   3   7
BRANCH   1  22
ATOM     22  C   LIG    1      -21.946  81.735  16.065  0.00  0.00    +0.197 C 
ATOM     23  O   LIG    1      -22.161  82.427  17.053  0.00  0.00    -0.287 OA
BRANCH  22  31
ATOM     24  N   LIG    1      -24.217  81.788  13.174  0.00  0.00    -0.321 N 
ATOM     25  C   LIG    1      -24.714  80.689  13.829  0.00  0.00    +0.145 A 
ATOM     26  N   LIG    1      -25.741  79.918  13.425  0.00  0.00    -0.218 NA
ATOM     27  C   LIG    1      -26.003  78.932  14.301  0.00  0.00    +0.223 A 
ATOM     28  N   LIG    1      -25.373  78.670  15.462  0.00  0.00    -0.243 NA
ATOM     29  C   LIG    1      -24.335  79.462  15.814  0.00  0.00    +0.124 A 
ATOM     30  C   LIG    1      -23.963  80.523  14.988  0.00  0.00    +0.048 A 
ATOM     31  C   LIG    1      -22.967  81.552  15.024  0.00  0.00    +0.051 A 
ATOM     32  C   LIG    1      -23.143  82.300  13.867  0.00  0.00    +0.100 A 
BRANCH  24  34
ATOM     33  C   LIG    1      -25.969  82.996  11.968  0.00  0.00    +0.039 C 
ATOM     34  C   LIG    1      -24.645  82.246  11.873  0.00  0.00    +0.090 C 
ATOM     35  C   LIG    1      -23.563  82.954  11.046  0.00  0.00    +0.190 C 
ATOM     36  O   LIG    1      -23.794  82.049   9.929  0.00  0.00    -0.375 OA
ATOM     37  C   LIG    1      -24.601  81.183  10.768  0.00  0.00    +0.190 C 
ENDBRANCH  24  34
ENDBRANCH  22  31
ENDBRANCH   1  22
TORSDOF 7
ENDMDL
MODEL 7
REMARK VINA RESULT:      -6.1      5.552     10.500
REMARK  Name = pdb/CHEMBL3671447.pdb
REMARK                            x       y       z     vdW  Elec       q    Type
REMARK                         _______ _______ _______ _____ _____    ______ ____
ROOT
ATOM      1  C   LIG    1      -25.093  74.656  31.339  0.00  0.00    +0.042 A 
ATOM      2  C   LIG    1      -24.402  73.589  30.756  0.00  0.00    +0.038 A 
ATOM      3  C   LIG    1      -24.747  72.268  31.048  0.00  0.00    +0.053 A 
ATOM      4  C   LIG    1      -25.787  72.071  31.952  0.00  0.00    +0.134 A 
ATOM      5  N   LIG    1      -26.446  73.085  32.578  0.00  0.00    -0.261 NA
ATOM      6  C   LIG    1      -26.076  74.356  32.271  0.00  0.00    +0.122 A 
ENDROOT
BRANCH   3   7
ATOM      7  N   LIG    1      -23.986  71.244  30.434  0.00  0.00    -0.280 N 
ATOM      8  H   LIG    1      -22.984  71.326  30.524  0.00  0.00    +0.155 HD
ATOM      9  C   LIG    1      -24.477  70.231  29.634  0.00  0.00    +0.248 C 
ATOM     10  O   LIG    1      -25.662  70.101  29.307  0.00  0.00    -0.270 OA
BRANCH   9  11
ATOM     11  C   LIG    1      -23.491  69.254  29.099  0.00  0.00    +0.040 A 
ATOM     12  C   LIG    1      -22.461  69.673  28.253  0.00  0.00    +0.059 A 
ATOM     13  C   LIG    1      -21.442  68.796  27.870  0.00  0.00    +0.131 A 
ATOM     14  C   LIG    1      -21.531  67.445  28.225  0.00  0.00    +0.046 A 
ATOM     15  C   LIG    1      -22.565  67.008  29.059  0.00  0.00    +0.004 A 
ATOM     16  C   LIG    1      -23.531  67.912  29.507  0.00  0.00    +0.013 A 
BRANCH  13  17
ATOM     17  O   LIG    1      -20.341  69.175  27.158  0.00  0.00    -0.406 OA
BRANCH  17  18
ATOM     18  C   LIG    1      -19.132  69.474  27.865  0.00  0.00    +0.575 C 
ATOM     19  F   LIG    1      -18.431  70.403  27.178  0.00  0.00    -0.133 F 
ATOM     20  F   LIG    1      -18.386  68.353  27.955  0.00  0.00    -0.133 F 
ATOM     21  F   LIG    1      -19.316  69.931  29.124  0.00  0.00    -0.133 F 
ENDBRANCH  17  18
ENDBRANCH  13  17
ENDBRANCH   9  11
ENDBRANCH   3   7
BRANCH   1  22
ATOM     22  C   LIG    1      -24.735  76.070  31.051  0.00  0.00    +0.197 C 
ATOM     23  O   LIG    1      -25.545  76.777  30.463  0.00  0.00    -0.287 OA
BRANCH  22  31
ATOM     24  N   LIG    1      -21.842  77.499  32.815  0.00  0.00    -0.321 N 
ATOM     25  C   LIG    1      -21.263  77.256  31.594  0.00  0.00    +0.145 A 
ATOM     26  N   LIG    1      -19.984  77.504  31.257  0.00  0.00    -0.218 NA
ATOM     27  C   LIG    1      -19.730  77.180  29.976  0.00  0.00    +0.223 A 
ATOM     28  N   LIG    1      -20.585  76.668  29.070  0.00  0.00    -0.243 NA
ATOM     29  C   LIG    1      -21.855  76.420  29.464  0.00  0.00    +0.124 A 
ATOM     30  C   LIG    1      -22.244  76.714  30.771  0.00  0.00    +0.048 A 
ATOM     31  C   LIG    1      -23.455  76.611  31.530  0.00  0.00    +0.051 A 
ATOM     32  C   LIG    1      -23.155  77.085  32.800  0.00  0.00    +0.100 A 
BRANCH  24  34
ATOM     33  C   LIG    1      -20.488  76.801  34.728  0.00  0.00    +0.039 C 
ATOM     34  C   LIG    1      -21.143  77.963  33.990  0.00  0.00    +0.090 C 
ATOM     35  C   LIG    1      -20.233  79.179  33.766  0.00  0.00    +0.190 C 
ATOM     36  O   LIG    1      -20.897  79.900  34.844  0.00  0.00    -0.375 OA
ATOM     37  C   LIG    1      -21.951  78.905  34.891  0.00  0.00    +0.190 C 
ENDBRANCH  24  34
ENDBRANCH  22  31
ENDBRANCH   1  22
TORSDOF 7
ENDMDL
MODEL 8
REMARK VINA RESULT:      -6.1     17.726     20.077
REMARK  Name = pdb/CHEMBL3671447.pdb
REMARK                            x       y       z     vdW  Elec       q    Type
REMARK                         _______ _______ _______ _____ _____    ______ ____
ROOT
ATOM      1  C   LIG    1      -34.063  64.971  20.121  0.00  0.00    +0.042 A 
ATOM      2  C   LIG    1      -33.324  66.152  20.004  0.00  0.00    +0.038 A 
ATOM      3  C   LIG    1      -32.168  66.199  19.223  0.00  0.00    +0.053 A 
ATOM      4  C   LIG    1      -31.782  65.020  18.593  0.00  0.00    +0.134 A 
ATOM      5  N   LIG    1      -32.447  63.839  18.727  0.00  0.00    -0.261 NA
ATOM      6  C   LIG    1      -33.565  63.834  19.500  0.00  0.00    +0.122 A 
ENDROOT
BRANCH   3   7
ATOM      7  N   LIG    1      -31.465  67.427  19.173  0.00  0.00    -0.280 N 
ATOM      8  H   LIG    1      -30.887  67.637  19.974  0.00  0.00    +0.155 HD
ATOM      9  C   LIG    1      -31.590  68.399  18.200  0.00  0.00    +0.248 C 
ATOM     10  O   LIG    1      -32.376  68.348  17.247  0.00  0.00    -0.270 OA
BRANCH   9  11
ATOM     11  C   LIG    1      -30.741  69.612  18.343  0.00  0.00    +0.040 A 
ATOM     12  C   LIG    1      -29.424  69.510  18.798  0.00  0.00    +0.059 A 
ATOM     13  C   LIG    1      -28.570  70.617  18.788  0.00  0.00    +0.131 A 
ATOM     14  C   LIG    1      -29.084  71.875  18.452  0.00  0.00    +0.046 A 
ATOM     15  C   LIG    1      -30.405  71.996  18.010  0.00  0.00    +0.004 A 
ATOM     16  C   LIG    1      -31.224  70.866  17.940  0.00  0.00    +0.013 A 
BRANCH  13  17
ATOM     17  O   LIG    1      -27.241  70.555  19.093  0.00  0.00    -0.406 OA
BRANCH  17  18
ATOM     18  C   LIG    1      -26.325  70.109  18.087  0.00  0.00    +0.575 C 
ATOM     19  F   LIG    1      -26.893  70.252  16.869  0.00  0.00    -0.133 F 
ATOM     20  F   LIG    1      -26.056  68.801  18.285  0.00  0.00    -0.133 F 
ATOM     21  F   LIG    1      -25.140  70.761  18.077  0.00  0.00    -0.133 F 
ENDBRANCH  17  18
ENDBRANCH  13  17
ENDBRANCH   9  11
ENDBRANCH   3   7
BRANCH   1  22
ATOM     22  C   LIG    1      -35.291  64.896  20.956  0.00  0.00    +0.197 C 
ATOM     23  O   LIG    1      -36.054  63.950  20.802  0.00  0.00    -0.287 OA
BRANCH  22  31
ATOM     24  N   LIG    1      -35.553  67.045  23.928  0.00  0.00    -0.321 N 
ATOM     25  C   LIG    1      -36.228  67.828  23.025  0.00  0.00    +0.145 A 
ATOM     26  N   LIG    1      -36.779  69.031  23.270  0.00  0.00    -0.218 NA
ATOM     27  C   LIG    1      -37.395  69.532  22.185  0.00  0.00    +0.223 A 
ATOM     28  N   LIG    1      -37.500  68.972  20.964  0.00  0.00    -0.243 NA
ATOM     29  C   LIG    1      -36.913  67.770  20.764  0.00  0.00    +0.124 A 
ATOM     30  C   LIG    1      -36.242  67.145  21.814  0.00  0.00    +0.048 A 
ATOM     31  C   LIG    1      -35.534  65.911  21.990  0.00  0.00    +0.051 A 
ATOM     32  C   LIG    1      -35.101  65.901  23.310  0.00  0.00    +0.100 A 
BRANCH  24  34
ATOM     33  C   LIG    1      -34.365  68.693  25.290  0.00  0.00    +0.039 C 
ATOM     34  C   LIG    1      -35.220  67.431  25.280  0.00  0.00    +0.090 C 
ATOM     35  C   LIG    1      -36.401  67.446  26.260  0.00  0.00    +0.190 C 
ATOM     36  O   LIG    1      -35.680  66.571  27.174  0.00  0.00    -0.375 OA
ATOM     37  C   LIG    1      -34.680  66.297  26.160  0.00  0.00    +0.190 C 
ENDBRANCH  24  34
ENDBRANCH  22  31
ENDBRANCH   1  22
TORSDOF 7
ENDMDL
MODEL 9
REMARK VINA RESULT:      -6.0     13.409     16.942
REMARK  Name = pdb/CHEMBL3671447.pdb
REMARK                            x       y       z     vdW  Elec       q    Type
REMARK                         _______ _______ _______ _____ _____    ______ ____
ROOT
ATOM      1  C   LIG    1      -39.340  72.980  24.342  0.00  0.00    +0.042 A 
ATOM      2  C   LIG    1      -38.254  73.639  24.928  0.00  0.00    +0.038 A 
ATOM      3  C   LIG    1      -38.254  75.027  25.076  0.00  0.00    +0.053 A 
ATOM      4  C   LIG    1      -39.366  75.714  24.598  0.00  0.00    +0.134 A 
ATOM      5  N   LIG    1      -40.416  75.111  23.975  0.00  0.00    -0.261 NA
ATOM      6  C   LIG    1      -40.375  73.759  23.846  0.00  0.00    +0.122 A 
ENDROOT
BRANCH   3   7
ATOM      7  N   LIG    1      -37.109  75.620  25.661  0.00  0.00    -0.280 N 
ATOM      8  H   LIG    1      -36.278  75.631  25.088  0.00  0.00    +0.155 HD
ATOM      9  C   LIG    1      -36.996  76.067  26.962  0.00  0.00    +0.248 C 
ATOM     10  O   LIG    1      -37.881  75.970  27.821  0.00  0.00    -0.270 OA
BRANCH   9  11
ATOM     11  C   LIG    1      -35.696  76.668  27.361  0.00  0.00    +0.040 A 
ATOM     12  C   LIG    1      -35.648  77.930  27.960  0.00  0.00    +0.059 A 
ATOM     13  C   LIG    1      -34.453  78.437  28.478  0.00  0.00    +0.131 A 
ATOM     14  C   LIG    1      -33.262  77.732  28.268  0.00  0.00    +0.046 A 
ATOM     15  C   LIG    1      -33.291  76.476  27.656  0.00  0.00    +0.004 A 
ATOM     16  C   LIG    1      -34.505  75.939  27.220  0.00  0.00    +0.013 A 
BRANCH  13  17
ATOM     17  O   LIG    1      -34.365  79.598  29.190  0.00  0.00    -0.406 OA
BRANCH  17  18
ATOM     18  C   LIG    1      -34.700  80.830  28.542  0.00  0.00    +0.575 C 
ATOM     19  F   LIG    1      -34.217  80.817  27.280  0.00  0.00    -0.133 F 
ATOM     20  F   LIG    1      -34.125  81.850  29.212  0.00  0.00    -0.133 F 
ATOM     21  F   LIG    1      -36.025  81.092  28.481  0.00  0.00    -0.133 F 
ENDBRANCH  17  18
ENDBRANCH  13  17
ENDBRANCH   9  11
ENDBRANCH   3   7
BRANCH   1  22
ATOM     22  C   LIG    1      -39.355  71.504  24.164  0.00  0.00    +0.197 C 
ATOM     23  O   LIG    1      -40.338  70.981  23.653  0.00  0.00    -0.287 OA
BRANCH  22  31
ATOM     24  N   LIG    1      -36.471  69.801  25.681  0.00  0.00    -0.321 N 
ATOM     25  C   LIG    1      -36.444  69.222  24.437  0.00  0.00    +0.145 A 
ATOM     26  N   LIG    1      -35.567  68.295  24.009  0.00  0.00    -0.218 NA
ATOM     27  C   LIG    1      -35.789  67.946  22.729  0.00  0.00    +0.223 A 
ATOM     28  N   LIG    1      -36.743  68.413  21.901  0.00  0.00    -0.243 NA
ATOM     29  C   LIG    1      -37.612  69.330  22.384  0.00  0.00    +0.124 A 
ATOM     30  C   LIG    1      -37.486  69.775  23.700  0.00  0.00    +0.048 A 
ATOM     31  C   LIG    1      -38.176  70.711  24.538  0.00  0.00    +0.051 A 
ATOM     32  C   LIG    1      -37.529  70.677  25.767  0.00  0.00    +0.100 A 
BRANCH  24  34
ATOM     33  C   LIG    1      -35.968  68.036  27.297  0.00  0.00    +0.039 C 
ATOM     34  C   LIG    1      -35.622  69.432  26.790  0.00  0.00    +0.090 C 
ATOM     35  C   LIG    1      -34.124  69.685  26.573  0.00  0.00    +0.190 C 
ATOM     36  O   LIG    1      -34.055  70.459  27.805  0.00  0.00    -0.375 OA
ATOM     37  C   LIG    1      -35.502  70.491  27.892  0.00  0.00    +0.190 C 
ENDBRANCH  24  34
ENDBRANCH  22  31
ENDBRANCH   1  22
TORSDOF 7
ENDMDL
