MODEL 1
REMARK VINA RESULT:      -6.0      0.000      0.000
REMARK  Name = pdb/CHEMBL251795.pdb
REMARK                            x       y       z     vdW  Elec       q    Type
REMARK                         _______ _______ _______ _____ _____    ______ ____
ROOT
ATOM      1  C   LIG    1      -39.453  72.346  24.400  0.00  0.00    +0.041 A 
ATOM      2  C   LIG    1      -40.522  71.703  23.741  0.00  0.00    -0.038 A 
ATOM      3  C   LIG    1      -40.616  70.235  23.411  0.00  0.00    +0.044 C 
ATOM      4  C   LIG    1      -41.565  72.509  23.221  0.00  0.00    +0.005 A 
ATOM      5  C   LIG    1      -41.551  73.905  23.315  0.00  0.00    +0.015 A 
ATOM      6  C   LIG    1      -40.466  74.546  23.897  0.00  0.00    +0.014 A 
ATOM      7  C   LIG    1      -39.439  73.765  24.440  0.00  0.00    +0.028 A 
ENDROOT
BRANCH   1  13
ATOM      8  C   LIG    1      -35.540  74.108  28.731  0.00  0.00    +0.232 C 
ATOM      9  N   LIG    1      -36.310  73.156  28.042  0.00  0.00    -0.297 N 
ATOM     10  C   LIG    1      -37.734  73.489  27.876  0.00  0.00    +0.127 C 
ATOM     11  C   LIG    1      -38.622  72.319  27.419  0.00  0.00    +0.127 C 
ATOM     12  N   LIG    1      -38.002  71.546  26.349  0.00  0.00    -0.295 N 
ATOM     13  C   LIG    1      -38.198  71.744  24.975  0.00  0.00    +0.247 C 
ATOM     14  O   LIG    1      -37.306  71.479  24.183  0.00  0.00    -0.270 OA
ATOM     15  C   LIG    1      -36.676  71.047  26.738  0.00  0.00    +0.127 C 
ATOM     16  C   LIG    1      -35.746  72.221  27.064  0.00  0.00    +0.127 C 
ATOM     17  O   LIG    1      -36.038  74.894  29.532  0.00  0.00    -0.274 OA
BRANCH   8  19
ATOM     18  C   LIG    1      -33.111  74.537  29.421  0.00  0.00    +0.033 C 
ATOM     19  C   LIG    1      -34.047  74.251  28.271  0.00  0.00    +0.135 C 
BRANCH  19  20
ATOM     20  N   LIG    1      -33.981  75.370  27.296  0.00  0.00    -0.320 NA
ATOM     21  H   LIG    1      -34.384  75.080  26.407  0.00  0.00    +0.119 HD
ATOM     22  H   LIG    1      -34.589  76.120  27.637  0.00  0.00    +0.119 HD
ENDBRANCH  19  20
ENDBRANCH   8  19
ENDBRANCH   1  13
BRANCH   6  23
ATOM     23  S   LIG    1      -40.355  76.335  23.901  0.00  0.00    -0.081 S 
BRANCH  23  24
ATOM     24  C   LIG    1      -38.948  76.535  24.944  0.00  0.00    +0.071 A 
ATOM     25  S   LIG    1      -39.026  77.116  26.563  0.00  0.00    -0.045 S 
ATOM     26  C   LIG    1      -37.310  76.945  26.721  0.00  0.00    +0.164 A 
ATOM     27  N   LIG    1      -36.727  76.511  25.625  0.00  0.00    -0.232 NA
ATOM     28  C   LIG    1      -37.635  76.268  24.632  0.00  0.00    +0.135 A 
BRANCH  26  29
ATOM     29  N   LIG    1      -36.652  77.224  27.877  0.00  0.00    -0.279 N 
ATOM     30  H   LIG    1      -36.241  76.465  28.404  0.00  0.00    +0.155 HD
BRANCH  29  31
ATOM     31  C   LIG    1      -35.962  78.435  28.095  0.00  0.00    +0.126 A 
ATOM     32  N   LIG    1      -36.490  79.571  27.590  0.00  0.00    -0.225 NA
ATOM     33  C   LIG    1      -35.835  80.734  27.850  0.00  0.00    +0.108 A 
ATOM     34 BR   LIG    1      -36.595  82.349  27.199  0.00  0.00    -0.029 Br
ATOM     35  C   LIG    1      -34.647  80.824  28.563  0.00  0.00    +0.035 A 
ATOM     36  C   LIG    1      -34.094  79.653  29.044  0.00  0.00    +0.006 A 
ATOM     37  C   LIG    1      -34.756  78.458  28.804  0.00  0.00    +0.044 A 
ENDBRANCH  29  31
ENDBRANCH  26  29
ENDBRANCH  23  24
ENDBRANCH   6  23
TORSDOF 7
ENDMDL
MODEL 2
REMARK VINA RESULT:      -5.5     18.719     20.413
REMARK  Name = pdb/CHEMBL251795.pdb
REMARK                            x       y       z     vdW  Elec       q    Type
REMARK                         _______ _______ _______ _____ _____    ______ ____
ROOT
ATOM      1  C   LIG    1      -20.565  75.129  15.155  0.00  0.00    +0.041 A 
ATOM      2  C   LIG    1      -20.933  74.311  16.243  0.00  0.00    -0.038 A 
ATOM      3  C   LIG    1      -22.287  73.693  16.480  0.00  0.00    +0.044 C 
ATOM      4  C   LIG    1      -19.995  74.133  17.290  0.00  0.00    +0.005 A 
ATOM      5  C   LIG    1      -18.745  74.763  17.290  0.00  0.00    +0.015 A 
ATOM      6  C   LIG    1      -18.408  75.628  16.259  0.00  0.00    +0.014 A 
ATOM      7  C   LIG    1      -19.311  75.793  15.202  0.00  0.00    +0.028 A 
ENDROOT
BRANCH   1  13
ATOM      8  C   LIG    1      -25.925  77.960  14.495  0.00  0.00    +0.232 C 
ATOM      9  N   LIG    1      -24.588  77.699  14.149  0.00  0.00    -0.297 N 
ATOM     10  C   LIG    1      -23.618  77.778  15.253  0.00  0.00    +0.127 C 
ATOM     11  C   LIG    1      -22.144  77.812  14.816  0.00  0.00    +0.127 C 
ATOM     12  N   LIG    1      -21.860  76.842  13.765  0.00  0.00    -0.295 N 
ATOM     13  C   LIG    1      -21.385  75.538  13.960  0.00  0.00    +0.247 C 
ATOM     14  O   LIG    1      -21.680  74.652  13.170  0.00  0.00    -0.270 OA
ATOM     15  C   LIG    1      -22.734  77.034  12.599  0.00  0.00    +0.127 C 
ATOM     16  C   LIG    1      -24.202  76.866  13.007  0.00  0.00    +0.127 C 
ATOM     17  O   LIG    1      -26.224  78.646  15.468  0.00  0.00    -0.274 OA
BRANCH   8  19
ATOM     18  C   LIG    1      -27.864  78.057  12.825  0.00  0.00    +0.033 C 
ATOM     19  C   LIG    1      -27.013  77.163  13.695  0.00  0.00    +0.135 C 
BRANCH  19  20
ATOM     20  N   LIG    1      -27.880  76.470  14.681  0.00  0.00    -0.320 NA
ATOM     21  H   LIG    1      -27.579  76.696  15.628  0.00  0.00    +0.119 HD
ATOM     22  H   LIG    1      -28.823  76.859  14.599  0.00  0.00    +0.119 HD
ENDBRANCH  19  20
ENDBRANCH   8  19
ENDBRANCH   1  13
BRANCH   6  23
ATOM     23  S   LIG    1      -16.875  76.556  16.307  0.00  0.00    -0.081 S 
BRANCH  23  24
ATOM     24  C   LIG    1      -17.501  78.166  15.958  0.00  0.00    +0.071 A 
ATOM     25  S   LIG    1      -18.868  78.857  16.743  0.00  0.00    -0.045 S 
ATOM     26  C   LIG    1      -18.682  80.309  15.818  0.00  0.00    +0.164 A 
ATOM     27  N   LIG    1      -17.683  80.259  14.965  0.00  0.00    -0.232 NA
ATOM     28  C   LIG    1      -17.011  79.071  15.044  0.00  0.00    +0.135 A 
BRANCH  26  29
ATOM     29  N   LIG    1      -19.492  81.389  15.982  0.00  0.00    -0.279 N 
ATOM     30  H   LIG    1      -19.083  82.315  15.984  0.00  0.00    +0.155 HD
BRANCH  29  31
ATOM     31  C   LIG    1      -20.831  81.419  15.543  0.00  0.00    +0.126 A 
ATOM     32  N   LIG    1      -21.068  81.623  14.229  0.00  0.00    -0.225 NA
ATOM     33  C   LIG    1      -22.364  81.603  13.817  0.00  0.00    +0.108 A 
ATOM     34 BR   LIG    1      -22.713  81.828  11.963  0.00  0.00    -0.029 Br
ATOM     35  C   LIG    1      -23.453  81.425  14.660  0.00  0.00    +0.035 A 
ATOM     36  C   LIG    1      -23.205  81.254  16.008  0.00  0.00    +0.006 A 
ATOM     37  C   LIG    1      -21.888  81.255  16.444  0.00  0.00    +0.044 A 
ENDBRANCH  29  31
ENDBRANCH  26  29
ENDBRANCH  23  24
ENDBRANCH   6  23
TORSDOF 7
ENDMDL
MODEL 3
REMARK VINA RESULT:      -5.4      2.069      2.652
REMARK  Name = pdb/CHEMBL251795.pdb
REMARK                            x       y       z     vdW  Elec       q    Type
REMARK                         _______ _______ _______ _____ _____    ______ ____
ROOT
ATOM      1  C   LIG    1      -41.375  73.078  23.728  0.00  0.00    +0.041 A 
ATOM      2  C   LIG    1      -42.655  73.097  23.136  0.00  0.00    -0.038 A 
ATOM      3  C   LIG    1      -43.464  71.896  22.716  0.00  0.00    +0.044 C 
ATOM      4  C   LIG    1      -43.207  74.353  22.782  0.00  0.00    +0.005 A 
ATOM      5  C   LIG    1      -42.516  75.554  22.971  0.00  0.00    +0.015 A 
ATOM      6  C   LIG    1      -41.227  75.535  23.484  0.00  0.00    +0.014 A 
ATOM      7  C   LIG    1      -40.676  74.306  23.866  0.00  0.00    +0.028 A 
ENDROOT
BRANCH   1  13
ATOM      8  C   LIG    1      -36.984  72.241  27.875  0.00  0.00    +0.232 C 
ATOM      9  N   LIG    1      -38.130  71.854  27.158  0.00  0.00    -0.297 N 
ATOM     10  C   LIG    1      -39.233  72.828  27.148  0.00  0.00    +0.127 C 
ATOM     11  C   LIG    1      -40.578  72.275  26.648  0.00  0.00    +0.127 C 
ATOM     12  N   LIG    1      -40.423  71.449  25.456  0.00  0.00    -0.295 N 
ATOM     13  C   LIG    1      -40.538  71.893  24.131  0.00  0.00    +0.247 C 
ATOM     14  O   LIG    1      -39.895  71.350  23.244  0.00  0.00    -0.270 OA
ATOM     15  C   LIG    1      -39.478  70.346  25.679  0.00  0.00    +0.127 C 
ATOM     16  C   LIG    1      -38.097  70.901  26.046  0.00  0.00    +0.127 C 
ATOM     17  O   LIG    1      -37.033  73.056  28.792  0.00  0.00    -0.274 OA
BRANCH   8  19
ATOM     18  C   LIG    1      -35.087  70.531  28.056  0.00  0.00    +0.033 C 
ATOM     19  C   LIG    1      -35.613  71.733  27.309  0.00  0.00    +0.135 C 
BRANCH  19  20
ATOM     20  N   LIG    1      -34.637  72.847  27.425  0.00  0.00    -0.320 NA
ATOM     21  H   LIG    1      -33.755  72.498  27.797  0.00  0.00    +0.119 HD
ATOM     22  H   LIG    1      -34.419  73.175  26.480  0.00  0.00    +0.119 HD
ENDBRANCH  19  20
ENDBRANCH   8  19
ENDBRANCH   1  13
BRANCH   6  23
ATOM     23  S   LIG    1      -40.266  77.044  23.602  0.00  0.00    -0.081 S 
BRANCH  23  24
ATOM     24  C   LIG    1      -39.185  76.596  24.921  0.00  0.00    +0.071 A 
ATOM     25  S   LIG    1      -37.583  76.007  24.693  0.00  0.00    -0.045 S 
ATOM     26  C   LIG    1      -37.369  75.890  26.408  0.00  0.00    +0.164 A 
ATOM     27  N   LIG    1      -38.435  76.242  27.091  0.00  0.00    -0.232 NA
ATOM     28  C   LIG    1      -39.450  76.649  26.270  0.00  0.00    +0.135 A 
BRANCH  26  29
ATOM     29  N   LIG    1      -36.200  75.485  26.971  0.00  0.00    -0.279 N 
ATOM     30  H   LIG    1      -35.677  74.737  26.535  0.00  0.00    +0.155 HD
BRANCH  29  31
ATOM     31  C   LIG    1      -35.355  76.353  27.693  0.00  0.00    +0.126 A 
ATOM     32  N   LIG    1      -34.427  77.057  27.008  0.00  0.00    -0.225 NA
ATOM     33  C   LIG    1      -33.652  77.923  27.715  0.00  0.00    +0.108 A 
ATOM     34 BR   LIG    1      -32.384  78.966  26.760  0.00  0.00    -0.029 Br
ATOM     35  C   LIG    1      -33.726  78.100  29.090  0.00  0.00    +0.035 A 
ATOM     36  C   LIG    1      -34.651  77.348  29.788  0.00  0.00    +0.006 A 
ATOM     37  C   LIG    1      -35.463  76.472  29.082  0.00  0.00    +0.044 A 
ENDBRANCH  29  31
ENDBRANCH  26  29
ENDBRANCH  23  24
ENDBRANCH   6  23
TORSDOF 7
ENDMDL
MODEL 4
REMARK VINA RESULT:      -5.4     12.294     17.071
REMARK  Name = pdb/CHEMBL251795.pdb
REMARK                            x       y       z     vdW  Elec       q    Type
REMARK                         _______ _______ _______ _____ _____    ______ ____
ROOT
ATOM      1  C   LIG    1      -21.438  78.898  34.173  0.00  0.00    +0.041 A 
ATOM      2  C   LIG    1      -20.168  79.185  34.716  0.00  0.00    -0.038 A 
ATOM      3  C   LIG    1      -19.890  79.906  36.010  0.00  0.00    +0.044 C 
ATOM      4  C   LIG    1      -19.026  78.884  33.934  0.00  0.00    +0.005 A 
ATOM      5  C   LIG    1      -19.121  78.347  32.645  0.00  0.00    +0.015 A 
ATOM      6  C   LIG    1      -20.368  78.132  32.077  0.00  0.00    +0.014 A 
ATOM      7  C   LIG    1      -21.508  78.397  32.847  0.00  0.00    +0.028 A 
ENDROOT
BRANCH   1  13
ATOM      8  C   LIG    1      -26.834  76.084  33.804  0.00  0.00    +0.232 C 
ATOM      9  N   LIG    1      -25.820  76.778  34.485  0.00  0.00    -0.297 N 
ATOM     10  C   LIG    1      -24.464  76.222  34.346  0.00  0.00    +0.127 C 
ATOM     11  C   LIG    1      -23.431  76.783  35.338  0.00  0.00    +0.127 C 
ATOM     12  N   LIG    1      -23.534  78.231  35.479  0.00  0.00    -0.295 N 
ATOM     13  C   LIG    1      -22.799  79.178  34.753  0.00  0.00    +0.247 C 
ATOM     14  O   LIG    1      -23.280  80.277  34.513  0.00  0.00    -0.270 OA
ATOM     15  C   LIG    1      -24.887  78.643  35.876  0.00  0.00    +0.127 C 
ATOM     16  C   LIG    1      -25.905  78.202  34.818  0.00  0.00    +0.127 C 
ATOM     17  O   LIG    1      -26.732  74.894  33.520  0.00  0.00    -0.274 OA
BRANCH   8  19
ATOM     18  C   LIG    1      -29.348  76.263  33.351  0.00  0.00    +0.033 C 
ATOM     19  C   LIG    1      -28.011  76.957  33.244  0.00  0.00    +0.135 C 
BRANCH  19  20
ATOM     20  N   LIG    1      -27.720  77.243  31.816  0.00  0.00    -0.320 NA
ATOM     21  H   LIG    1      -26.795  77.660  31.727  0.00  0.00    +0.119 HD
ATOM     22  H   LIG    1      -27.661  76.348  31.321  0.00  0.00    +0.119 HD
ENDBRANCH  19  20
ENDBRANCH   8  19
ENDBRANCH   1  13
BRANCH   6  23
ATOM     23  S   LIG    1      -20.519  77.581  30.379  0.00  0.00    -0.081 S 
BRANCH  23  24
ATOM     24  C   LIG    1      -22.085  76.777  30.473  0.00  0.00    +0.071 A 
ATOM     25  S   LIG    1      -22.331  75.235  31.198  0.00  0.00    -0.045 S 
ATOM     26  C   LIG    1      -24.024  75.324  30.841  0.00  0.00    +0.164 A 
ATOM     27  N   LIG    1      -24.365  76.420  30.201  0.00  0.00    -0.232 NA
ATOM     28  C   LIG    1      -23.291  77.243  30.001  0.00  0.00    +0.135 A 
BRANCH  26  29
ATOM     29  N   LIG    1      -24.900  74.352  31.210  0.00  0.00    -0.279 N 
ATOM     30  H   LIG    1      -25.875  74.447  30.958  0.00  0.00    +0.155 HD
BRANCH  29  31
ATOM     31  C   LIG    1      -24.532  72.997  31.340  0.00  0.00    +0.126 A 
ATOM     32  N   LIG    1      -24.386  72.263  30.216  0.00  0.00    -0.225 NA
ATOM     33  C   LIG    1      -23.986  70.971  30.361  0.00  0.00    +0.108 A 
ATOM     34 BR   LIG    1      -23.716  69.941  28.788  0.00  0.00    -0.029 Br
ATOM     35  C   LIG    1      -23.759  70.351  31.582  0.00  0.00    +0.035 A 
ATOM     36  C   LIG    1      -23.948  71.098  32.729  0.00  0.00    +0.006 A 
ATOM     37  C   LIG    1      -24.338  72.422  32.601  0.00  0.00    +0.044 A 
ENDBRANCH  29  31
ENDBRANCH  26  29
ENDBRANCH  23  24
ENDBRANCH   6  23
TORSDOF 7
ENDMDL
MODEL 5
REMARK VINA RESULT:      -5.3     12.492     16.663
REMARK  Name = pdb/CHEMBL251795.pdb
REMARK                            x       y       z     vdW  Elec       q    Type
REMARK                         _______ _______ _______ _____ _____    ______ ____
ROOT
ATOM      1  C   LIG    1      -21.431  76.824  32.187  0.00  0.00    +0.041 A 
ATOM      2  C   LIG    1      -20.537  77.456  31.297  0.00  0.00    -0.038 A 
ATOM      3  C   LIG    1      -20.305  77.090  29.853  0.00  0.00    +0.044 C 
ATOM      4  C   LIG    1      -19.676  78.455  31.814  0.00  0.00    +0.005 A 
ATOM      5  C   LIG    1      -19.665  78.805  33.168  0.00  0.00    +0.015 A 
ATOM      6  C   LIG    1      -20.489  78.136  34.062  0.00  0.00    +0.014 A 
ATOM      7  C   LIG    1      -21.367  77.165  33.564  0.00  0.00    +0.028 A 
ENDROOT
BRANCH   1  13
ATOM      8  C   LIG    1      -27.509  76.457  31.871  0.00  0.00    +0.232 C 
ATOM      9  N   LIG    1      -26.205  76.146  31.449  0.00  0.00    -0.297 N 
ATOM     10  C   LIG    1      -25.323  77.299  31.204  0.00  0.00    +0.127 C 
ATOM     11  C   LIG    1      -24.028  76.971  30.443  0.00  0.00    +0.127 C 
ATOM     12  N   LIG    1      -23.392  75.756  30.940  0.00  0.00    -0.295 N 
ATOM     13  C   LIG    1      -22.392  75.696  31.920  0.00  0.00    +0.247 C 
ATOM     14  O   LIG    1      -22.304  74.718  32.649  0.00  0.00    -0.270 OA
ATOM     15  C   LIG    1      -24.307  74.607  30.892  0.00  0.00    +0.127 C 
ATOM     16  C   LIG    1      -25.540  74.878  31.761  0.00  0.00    +0.127 C 
ATOM     17  O   LIG    1      -28.038  77.534  31.613  0.00  0.00    -0.274 OA
BRANCH   8  19
ATOM     18  C   LIG    1      -29.587  75.085  32.466  0.00  0.00    +0.033 C 
ATOM     19  C   LIG    1      -28.173  75.439  32.862  0.00  0.00    +0.135 C 
BRANCH  19  20
ATOM     20  N   LIG    1      -28.184  76.064  34.209  0.00  0.00    -0.320 NA
ATOM     21  H   LIG    1      -28.468  75.378  34.908  0.00  0.00    +0.119 HD
ATOM     22  H   LIG    1      -27.220  76.310  34.450  0.00  0.00    +0.119 HD
ENDBRANCH  19  20
ENDBRANCH   8  19
ENDBRANCH   1  13
BRANCH   6  23
ATOM     23  S   LIG    1      -20.392  78.465  35.821  0.00  0.00    -0.081 S 
BRANCH  23  24
ATOM     24  C   LIG    1      -21.555  79.785  35.933  0.00  0.00    +0.071 A 
ATOM     25  S   LIG    1      -21.753  80.777  37.326  0.00  0.00    -0.045 S 
ATOM     26  C   LIG    1      -22.985  81.688  36.518  0.00  0.00    +0.164 A 
ATOM     27  N   LIG    1      -23.241  81.255  35.304  0.00  0.00    -0.232 NA
ATOM     28  C   LIG    1      -22.440  80.200  34.964  0.00  0.00    +0.135 A 
BRANCH  26  29
ATOM     29  N   LIG    1      -23.603  82.752  37.095  0.00  0.00    -0.279 N 
ATOM     30  H   LIG    1      -23.143  83.654  37.084  0.00  0.00    +0.155 HD
BRANCH  29  31
ATOM     31  C   LIG    1      -25.005  82.890  37.148  0.00  0.00    +0.126 A 
ATOM     32  N   LIG    1      -25.565  83.963  36.548  0.00  0.00    -0.225 NA
ATOM     33  C   LIG    1      -26.922  84.053  36.570  0.00  0.00    +0.108 A 
ATOM     34 BR   LIG    1      -27.731  85.523  35.678  0.00  0.00    -0.029 Br
ATOM     35  C   LIG    1      -27.760  83.143  37.199  0.00  0.00    +0.035 A 
ATOM     36  C   LIG    1      -27.177  82.069  37.844  0.00  0.00    +0.006 A 
ATOM     37  C   LIG    1      -25.796  81.949  37.817  0.00  0.00    +0.044 A 
ENDBRANCH  29  31
ENDBRANCH  26  29
ENDBRANCH  23  24
ENDBRANCH   6  23
TORSDOF 7
ENDMDL
MODEL 6
REMARK VINA RESULT:      -5.3      4.624      7.908
REMARK  Name = pdb/CHEMBL251795.pdb
REMARK                            x       y       z     vdW  Elec       q    Type
REMARK                         _______ _______ _______ _____ _____    ______ ____
ROOT
ATOM      1  C   LIG    1      -42.122  72.314  23.334  0.00  0.00    +0.041 A 
ATOM      2  C   LIG    1      -41.024  71.589  23.844  0.00  0.00    -0.038 A 
ATOM      3  C   LIG    1      -40.995  70.116  24.164  0.00  0.00    +0.044 C 
ATOM      4  C   LIG    1      -39.862  72.312  24.212  0.00  0.00    +0.005 A 
ATOM      5  C   LIG    1      -39.785  73.705  24.116  0.00  0.00    +0.015 A 
ATOM      6  C   LIG    1      -40.888  74.430  23.686  0.00  0.00    +0.014 A 
ATOM      7  C   LIG    1      -42.035  73.730  23.290  0.00  0.00    +0.028 A 
ENDROOT
BRANCH   1  13
ATOM      8  C   LIG    1      -44.710  70.926  17.991  0.00  0.00    +0.232 C 
ATOM      9  N   LIG    1      -44.449  70.717  19.356  0.00  0.00    -0.297 N 
ATOM     10  C   LIG    1      -43.027  70.705  19.738  0.00  0.00    +0.127 C 
ATOM     11  C   LIG    1      -42.743  70.160  21.148  0.00  0.00    +0.127 C 
ATOM     12  N   LIG    1      -43.681  70.678  22.136  0.00  0.00    -0.295 N 
ATOM     13  C   LIG    1      -43.484  71.811  22.938  0.00  0.00    +0.247 C 
ATOM     14  O   LIG    1      -44.442  72.478  23.305  0.00  0.00    -0.270 OA
ATOM     15  C   LIG    1      -45.074  70.397  21.762  0.00  0.00    +0.127 C 
ATOM     16  C   LIG    1      -45.402  71.055  20.417  0.00  0.00    +0.127 C 
ATOM     17  O   LIG    1      -43.888  70.652  17.121  0.00  0.00    -0.274 OA
BRANCH   8  19
ATOM     18  C   LIG    1      -46.760  71.137  16.471  0.00  0.00    +0.033 C 
ATOM     19  C   LIG    1      -46.020  71.719  17.653  0.00  0.00    +0.135 C 
BRANCH  19  20
ATOM     20  N   LIG    1      -45.635  73.120  17.348  0.00  0.00    -0.320 NA
ATOM     21  H   LIG    1      -45.916  73.732  18.112  0.00  0.00    +0.119 HD
ATOM     22  H   LIG    1      -44.612  73.167  17.327  0.00  0.00    +0.119 HD
ENDBRANCH  19  20
ENDBRANCH   8  19
ENDBRANCH   1  13
BRANCH   6  23
ATOM     23  S   LIG    1      -40.864  76.222  23.689  0.00  0.00    -0.081 S 
BRANCH  23  24
ATOM     24  C   LIG    1      -39.428  76.490  24.676  0.00  0.00    +0.071 A 
ATOM     25  S   LIG    1      -39.445  76.577  26.395  0.00  0.00    -0.045 S 
ATOM     26  C   LIG    1      -37.730  76.817  26.412  0.00  0.00    +0.164 A 
ATOM     27  N   LIG    1      -37.197  76.857  25.211  0.00  0.00    -0.232 NA
ATOM     28  C   LIG    1      -38.136  76.664  24.236  0.00  0.00    +0.135 A 
BRANCH  26  29
ATOM     29  N   LIG    1      -37.021  76.937  27.566  0.00  0.00    -0.279 N 
ATOM     30  H   LIG    1      -37.468  76.708  28.444  0.00  0.00    +0.155 HD
BRANCH  29  31
ATOM     31  C   LIG    1      -35.626  76.744  27.633  0.00  0.00    +0.126 A 
ATOM     32  N   LIG    1      -34.821  77.767  27.270  0.00  0.00    -0.225 NA
ATOM     33  C   LIG    1      -33.479  77.577  27.385  0.00  0.00    +0.108 A 
ATOM     34 BR   LIG    1      -32.334  79.025  26.937  0.00  0.00    -0.029 Br
ATOM     35  C   LIG    1      -32.886  76.397  27.813  0.00  0.00    +0.035 A 
ATOM     36  C   LIG    1      -33.715  75.343  28.146  0.00  0.00    +0.006 A 
ATOM     37  C   LIG    1      -35.087  75.523  28.052  0.00  0.00    +0.044 A 
ENDBRANCH  29  31
ENDBRANCH  26  29
ENDBRANCH  23  24
ENDBRANCH   6  23
TORSDOF 7
ENDMDL
MODEL 7
REMARK VINA RESULT:      -5.2     14.592     18.229
REMARK  Name = pdb/CHEMBL251795.pdb
REMARK                            x       y       z     vdW  Elec       q    Type
REMARK                         _______ _______ _______ _____ _____    ______ ____
ROOT
ATOM      1  C   LIG    1      -24.963  78.580  35.496  0.00  0.00    +0.041 A 
ATOM      2  C   LIG    1      -24.776  77.524  36.413  0.00  0.00    -0.038 A 
ATOM      3  C   LIG    1      -24.021  77.595  37.716  0.00  0.00    +0.044 C 
ATOM      4  C   LIG    1      -25.227  76.233  36.044  0.00  0.00    +0.005 A 
ATOM      5  C   LIG    1      -25.817  75.973  34.802  0.00  0.00    +0.015 A 
ATOM      6  C   LIG    1      -25.936  76.992  33.867  0.00  0.00    +0.014 A 
ATOM      7  C   LIG    1      -25.521  78.280  34.225  0.00  0.00    +0.028 A 
ENDROOT
BRANCH   1  13
ATOM      8  C   LIG    1      -19.990  81.297  37.745  0.00  0.00    +0.232 C 
ATOM      9  N   LIG    1      -21.017  81.133  36.800  0.00  0.00    -0.297 N 
ATOM     10  C   LIG    1      -21.177  79.772  36.263  0.00  0.00    +0.127 C 
ATOM     11  C   LIG    1      -22.068  79.672  35.014  0.00  0.00    +0.127 C 
ATOM     12  N   LIG    1      -23.281  80.473  35.139  0.00  0.00    -0.295 N 
ATOM     13  C   LIG    1      -24.521  80.015  35.604  0.00  0.00    +0.247 C 
ATOM     14  O   LIG    1      -25.281  80.780  36.181  0.00  0.00    -0.270 OA
ATOM     15  C   LIG    1      -22.974  81.881  35.424  0.00  0.00    +0.127 C 
ATOM     16  C   LIG    1      -22.200  81.996  36.743  0.00  0.00    +0.127 C 
ATOM     17  O   LIG    1      -19.016  80.550  37.786  0.00  0.00    -0.274 OA
BRANCH   8  19
ATOM     18  C   LIG    1      -19.318  83.537  38.788  0.00  0.00    +0.033 C 
ATOM     19  C   LIG    1      -20.253  82.354  38.874  0.00  0.00    +0.135 C 
BRANCH  19  20
ATOM     20  N   LIG    1      -20.064  81.675  40.181  0.00  0.00    -0.320 NA
ATOM     21  H   LIG    1      -19.205  82.000  40.620  0.00  0.00    +0.119 HD
ATOM     22  H   LIG    1      -20.817  81.978  40.805  0.00  0.00    +0.119 HD
ENDBRANCH  19  20
ENDBRANCH   8  19
ENDBRANCH   1  13
BRANCH   6  23
ATOM     23  S   LIG    1      -26.555  76.655  32.219  0.00  0.00    -0.081 S 
BRANCH  23  24
ATOM     24  C   LIG    1      -25.024  76.549  31.351  0.00  0.00    +0.071 A 
ATOM     25  S   LIG    1      -24.191  77.909  30.702  0.00  0.00    -0.045 S 
ATOM     26  C   LIG    1      -22.926  76.875  30.127  0.00  0.00    +0.164 A 
ATOM     27  N   LIG    1      -23.136  75.602  30.383  0.00  0.00    -0.232 NA
ATOM     28  C   LIG    1      -24.298  75.412  31.076  0.00  0.00    +0.135 A 
BRANCH  26  29
ATOM     29  N   LIG    1      -21.825  77.353  29.488  0.00  0.00    -0.279 N 
ATOM     30  H   LIG    1      -21.928  78.127  28.844  0.00  0.00    +0.155 HD
BRANCH  29  31
ATOM     31  C   LIG    1      -20.535  77.323  30.055  0.00  0.00    +0.126 A 
ATOM     32  N   LIG    1      -20.314  78.038  31.180  0.00  0.00    -0.225 NA
ATOM     33  C   LIG    1      -19.075  77.959  31.737  0.00  0.00    +0.108 A 
ATOM     34 BR   LIG    1      -18.764  78.910  33.352  0.00  0.00    -0.029 Br
ATOM     35  C   LIG    1      -18.021  77.228  31.208  0.00  0.00    +0.035 A 
ATOM     36  C   LIG    1      -18.244  76.530  30.037  0.00  0.00    +0.006 A 
ATOM     37  C   LIG    1      -19.506  76.583  29.463  0.00  0.00    +0.044 A 
ENDBRANCH  29  31
ENDBRANCH  26  29
ENDBRANCH  23  24
ENDBRANCH   6  23
TORSDOF 7
ENDMDL
MODEL 8
REMARK VINA RESULT:      -5.1      5.077      8.403
REMARK  Name = pdb/CHEMBL251795.pdb
REMARK                            x       y       z     vdW  Elec       q    Type
REMARK                         _______ _______ _______ _____ _____    ______ ____
ROOT
ATOM      1  C   LIG    1      -38.519  72.114  24.540  0.00  0.00    +0.041 A 
ATOM      2  C   LIG    1      -38.945  73.458  24.501  0.00  0.00    -0.038 A 
ATOM      3  C   LIG    1      -38.215  74.644  25.079  0.00  0.00    +0.044 C 
ATOM      4  C   LIG    1      -40.233  73.734  23.981  0.00  0.00    +0.005 A 
ATOM      5  C   LIG    1      -41.095  72.724  23.541  0.00  0.00    +0.015 A 
ATOM      6  C   LIG    1      -40.711  71.394  23.645  0.00  0.00    +0.014 A 
ATOM      7  C   LIG    1      -39.430  71.104  24.130  0.00  0.00    +0.028 A 
ENDROOT
BRANCH   1  13
ATOM      8  C   LIG    1      -34.787  73.776  29.066  0.00  0.00    +0.232 C 
ATOM      9  N   LIG    1      -35.491  72.835  28.296  0.00  0.00    -0.297 N 
ATOM     10  C   LIG    1      -36.929  73.101  28.124  0.00  0.00    +0.127 C 
ATOM     11  C   LIG    1      -37.741  71.920  27.567  0.00  0.00    +0.127 C 
ATOM     12  N   LIG    1      -37.061  71.258  26.460  0.00  0.00    -0.295 N 
ATOM     13  C   LIG    1      -37.243  71.542  25.099  0.00  0.00    +0.247 C 
ATOM     14  O   LIG    1      -36.323  71.382  24.310  0.00  0.00    -0.270 OA
ATOM     15  C   LIG    1      -35.716  70.806  26.842  0.00  0.00    +0.127 C 
ATOM     16  C   LIG    1      -34.859  72.003  27.269  0.00  0.00    +0.127 C 
ATOM     17  O   LIG    1      -35.342  74.476  29.909  0.00  0.00    -0.274 OA
BRANCH   8  19
ATOM     18  C   LIG    1      -32.312  73.432  29.626  0.00  0.00    +0.033 C 
ATOM     19  C   LIG    1      -33.297  74.031  28.650  0.00  0.00    +0.135 C 
BRANCH  19  20
ATOM     20  N   LIG    1      -33.091  75.501  28.587  0.00  0.00    -0.320 NA
ATOM     21  H   LIG    1      -33.635  75.959  29.317  0.00  0.00    +0.119 HD
ATOM     22  H   LIG    1      -32.113  75.692  28.821  0.00  0.00    +0.119 HD
ENDBRANCH  19  20
ENDBRANCH   8  19
ENDBRANCH   1  13
BRANCH   6  23
ATOM     23  S   LIG    1      -41.849  70.076  23.223  0.00  0.00    -0.081 S 
BRANCH  23  24
ATOM     24  C   LIG    1      -40.728  68.966  22.436  0.00  0.00    +0.071 A 
ATOM     25  S   LIG    1      -39.860  67.730  23.262  0.00  0.00    -0.045 S 
ATOM     26  C   LIG    1      -39.128  67.232  21.774  0.00  0.00    +0.164 A 
ATOM     27  N   LIG    1      -39.492  67.963  20.744  0.00  0.00    -0.232 NA
ATOM     28  C   LIG    1      -40.394  68.926  21.102  0.00  0.00    +0.135 A 
BRANCH  26  29
ATOM     29  N   LIG    1      -38.275  66.176  21.697  0.00  0.00    -0.279 N 
ATOM     30  H   LIG    1      -38.580  65.330  21.234  0.00  0.00    +0.155 HD
BRANCH  29  31
ATOM     31  C   LIG    1      -36.874  66.324  21.630  0.00  0.00    +0.126 A 
ATOM     32  N   LIG    1      -36.275  66.192  20.426  0.00  0.00    -0.225 NA
ATOM     33  C   LIG    1      -34.929  66.384  20.374  0.00  0.00    +0.108 A 
ATOM     34 BR   LIG    1      -34.078  66.262  18.680  0.00  0.00    -0.029 Br
ATOM     35  C   LIG    1      -34.133  66.667  21.475  0.00  0.00    +0.035 A 
ATOM     36  C   LIG    1      -34.748  66.763  22.708  0.00  0.00    +0.006 A 
ATOM     37  C   LIG    1      -36.122  66.588  22.780  0.00  0.00    +0.044 A 
ENDBRANCH  29  31
ENDBRANCH  26  29
ENDBRANCH  23  24
ENDBRANCH   6  23
TORSDOF 7
ENDMDL
MODEL 9
REMARK VINA RESULT:      -5.1     21.025     23.691
REMARK  Name = pdb/CHEMBL251795.pdb
REMARK                            x       y       z     vdW  Elec       q    Type
REMARK                         _______ _______ _______ _____ _____    ______ ____
ROOT
ATOM      1  C   LIG    1      -18.976  85.516  13.244  0.00  0.00    +0.041 A 
ATOM      2  C   LIG    1      -18.147  85.758  12.129  0.00  0.00    -0.038 A 
ATOM      3  C   LIG    1      -18.094  87.024  11.312  0.00  0.00    +0.044 C 
ATOM      4  C   LIG    1      -17.366  84.685  11.634  0.00  0.00    +0.005 A 
ATOM      5  C   LIG    1      -17.417  83.403  12.191  0.00  0.00    +0.015 A 
ATOM      6  C   LIG    1      -18.286  83.140  13.241  0.00  0.00    +0.014 A 
ATOM      7  C   LIG    1      -19.044  84.196  13.762  0.00  0.00    +0.028 A 
ENDROOT
BRANCH   1  13
ATOM      8  C   LIG    1      -24.001  88.427  11.387  0.00  0.00    +0.232 C 
ATOM      9  N   LIG    1      -23.238  87.701  12.317  0.00  0.00    -0.297 N 
ATOM     10  C   LIG    1      -22.639  86.454  11.813  0.00  0.00    +0.127 C 
ATOM     11  C   LIG    1      -22.089  85.517  12.902  0.00  0.00    +0.127 C 
ATOM     12  N   LIG    1      -21.335  86.241  13.919  0.00  0.00    -0.295 N 
ATOM     13  C   LIG    1      -19.948  86.447  13.919  0.00  0.00    +0.247 C 
ATOM     14  O   LIG    1      -19.477  87.450  14.435  0.00  0.00    -0.270 OA
ATOM     15  C   LIG    1      -22.137  87.307  14.534  0.00  0.00    +0.127 C 
ATOM     16  C   LIG    1      -22.575  88.318  13.469  0.00  0.00    +0.127 C 
ATOM     17  O   LIG    1      -24.532  87.891  10.418  0.00  0.00    -0.274 OA
BRANCH   8  19
ATOM     18  C   LIG    1      -25.327  90.569  11.850  0.00  0.00    +0.033 C 
ATOM     19  C   LIG    1      -23.968  89.988  11.537  0.00  0.00    +0.135 C 
BRANCH  19  20
ATOM     20  N   LIG    1      -23.478  90.554  10.254  0.00  0.00    -0.320 NA
ATOM     21  H   LIG    1      -22.950  89.849   9.743  0.00  0.00    +0.119 HD
ATOM     22  H   LIG    1      -24.293  90.756   9.668  0.00  0.00    +0.119 HD
ENDBRANCH  19  20
ENDBRANCH   8  19
ENDBRANCH   1  13
BRANCH   6  23
ATOM     23  S   LIG    1      -18.475  81.476  13.879  0.00  0.00    -0.081 S 
BRANCH  23  24
ATOM     24  C   LIG    1      -20.112  81.597  14.522  0.00  0.00    +0.071 A 
ATOM     25  S   LIG    1      -21.524  81.705  13.542  0.00  0.00    -0.045 S 
ATOM     26  C   LIG    1      -22.518  81.756  14.959  0.00  0.00    +0.164 A 
ATOM     27  N   LIG    1      -21.831  81.722  16.080  0.00  0.00    -0.232 NA
ATOM     28  C   LIG    1      -20.488  81.621  15.845  0.00  0.00    +0.135 A 
BRANCH  26  29
ATOM     29  N   LIG    1      -23.875  81.811  14.898  0.00  0.00    -0.279 N 
ATOM     30  H   LIG    1      -24.322  82.690  14.673  0.00  0.00    +0.155 HD
BRANCH  29  31
ATOM     31  C   LIG    1      -24.671  80.714  14.507  0.00  0.00    +0.126 A 
ATOM     32  N   LIG    1      -25.186  80.711  13.259  0.00  0.00    -0.225 NA
ATOM     33  C   LIG    1      -25.913  79.623  12.886  0.00  0.00    +0.108 A 
ATOM     34 BR   LIG    1      -26.594  79.573  11.113  0.00  0.00    -0.029 Br
ATOM     35  C   LIG    1      -26.189  78.542  13.711  0.00  0.00    +0.035 A 
ATOM     36  C   LIG    1      -25.691  78.570  14.999  0.00  0.00    +0.006 A 
ATOM     37  C   LIG    1      -24.932  79.663  15.393  0.00  0.00    +0.044 A 
ENDBRANCH  29  31
ENDBRANCH  26  29
ENDBRANCH  23  24
ENDBRANCH   6  23
TORSDOF 7
ENDMDL
