MODEL 1
REMARK VINA RESULT:      -5.9      0.000      0.000
REMARK  Name = pdb/CHEMBL3675932.pdb
REMARK                            x       y       z     vdW  Elec       q    Type
REMARK                         _______ _______ _______ _____ _____    ______ ____
ROOT
ATOM      1  C   LIG    1      -34.071  74.400  29.108  0.00  0.00    +0.100 A 
ATOM      2  C   LIG    1      -35.381  74.264  28.675  0.00  0.00    +0.170 A 
ATOM      3  N   LIG    1      -36.113  74.914  27.715  0.00  0.00    -0.212 NA
ATOM      4  C   LIG    1      -37.389  74.607  27.622  0.00  0.00    +0.126 A 
ATOM      5  C   LIG    1      -38.066  73.599  28.508  0.00  0.00    +0.063 A 
ATOM      6  C   LIG    1      -37.296  72.971  29.399  0.00  0.00    +0.118 A 
ATOM      7  N   LIG    1      -35.948  73.275  29.491  0.00  0.00    -0.221 N 
ATOM      8  N   LIG    1      -35.045  72.725  30.334  0.00  0.00    -0.173 NA
ATOM      9  C   LIG    1      -33.929  73.413  30.105  0.00  0.00    +0.150 A 
ENDROOT
BRANCH   4  10
ATOM     10  N   LIG    1      -38.181  75.229  26.672  0.00  0.00    -0.308 N 
ATOM     11  C   LIG    1      -37.887  74.946  25.248  0.00  0.00    +0.105 C 
ATOM     12  C   LIG    1      -37.842  76.326  24.578  0.00  0.00    +0.029 C 
ATOM     13  C   LIG    1      -38.727  77.195  25.450  0.00  0.00    +0.021 C 
ATOM     14  C   LIG    1      -38.456  76.662  26.846  0.00  0.00    +0.107 C 
BRANCH  11  15
ATOM     15  C   LIG    1      -38.921  73.991  24.646  0.00  0.00    -0.019 A 
ATOM     16  C   LIG    1      -38.757  72.580  24.657  0.00  0.00    -0.017 A 
ATOM     17  C   LIG    1      -39.761  71.757  24.096  0.00  0.00    +0.009 A 
ATOM     18  C   LIG    1      -40.922  72.300  23.549  0.00  0.00    +0.039 A 
ATOM     19  C   LIG    1      -41.078  73.673  23.537  0.00  0.00    +0.124 A 
ATOM     20  F   LIG    1      -42.190  74.207  23.016  0.00  0.00    -0.205 F 
ATOM     21  C   LIG    1      -40.098  74.510  24.063  0.00  0.00    +0.044 A 
BRANCH  16  22
ATOM     22  C   LIG    1      -37.547  71.870  25.222  0.00  0.00    +0.191 C 
BRANCH  22  23
ATOM     23  O   LIG    1      -36.506  71.809  24.261  0.00  0.00    -0.390 OA
ATOM     24  H   LIG    1      -36.102  70.928  24.307  0.00  0.00    +0.210 HD
ENDBRANCH  22  23
ENDBRANCH  16  22
ENDBRANCH  11  15
ENDBRANCH   4  10
BRANCH   1  27
ATOM     25  N   LIG    1      -33.290  76.076  27.570  0.00  0.00    -0.309 N 
ATOM     26  H   LIG    1      -34.206  75.979  27.131  0.00  0.00    +0.149 HD
ATOM     27  C   LIG    1      -33.040  75.320  28.688  0.00  0.00    +0.249 C 
ATOM     28  O   LIG    1      -31.976  75.412  29.315  0.00  0.00    -0.270 OA
BRANCH  25  29
ATOM     29  C   LIG    1      -32.341  77.082  27.102  0.00  0.00    +0.138 C 
BRANCH  29  30
ATOM     30  C   LIG    1      -33.002  78.424  26.737  0.00  0.00    +0.157 C 
BRANCH  30  31
ATOM     31  O   LIG    1      -32.338  79.005  25.601  0.00  0.00    -0.388 OA
ATOM     32  H   LIG    1      -31.554  78.456  25.425  0.00  0.00    +0.210 HD
ENDBRANCH  30  31
BRANCH  30  33
ATOM     33  C   LIG    1      -32.995  79.423  27.901  0.00  0.00    +0.188 C 
BRANCH  33  34
ATOM     34  O   LIG    1      -33.624  78.862  29.053  0.00  0.00    -0.392 OA
ATOM     35  H   LIG    1      -34.247  79.540  29.376  0.00  0.00    +0.210 HD
ENDBRANCH  33  34
ENDBRANCH  30  33
ENDBRANCH  29  30
ENDBRANCH  25  29
ENDBRANCH   1  27
TORSDOF 10
ENDMDL
MODEL 2
REMARK VINA RESULT:      -5.8      5.444      8.204
REMARK  Name = pdb/CHEMBL3675932.pdb
REMARK                            x       y       z     vdW  Elec       q    Type
REMARK                         _______ _______ _______ _____ _____    ______ ____
ROOT
ATOM      1  C   LIG    1      -35.381  67.739  23.030  0.00  0.00    +0.100 A 
ATOM      2  C   LIG    1      -36.591  68.172  22.509  0.00  0.00    +0.170 A 
ATOM      3  N   LIG    1      -37.642  68.863  23.054  0.00  0.00    -0.212 NA
ATOM      4  C   LIG    1      -38.708  69.028  22.301  0.00  0.00    +0.126 A 
ATOM      5  C   LIG    1      -38.823  68.497  20.899  0.00  0.00    +0.063 A 
ATOM      6  C   LIG    1      -37.755  67.865  20.407  0.00  0.00    +0.118 A 
ATOM      7  N   LIG    1      -36.622  67.703  21.188  0.00  0.00    -0.221 N 
ATOM      8  N   LIG    1      -35.469  67.094  20.832  0.00  0.00    -0.173 NA
ATOM      9  C   LIG    1      -34.738  67.110  21.943  0.00  0.00    +0.150 A 
ENDROOT
BRANCH   4  10
ATOM     10  N   LIG    1      -39.802  69.717  22.794  0.00  0.00    -0.308 N 
ATOM     11  C   LIG    1      -39.754  70.149  24.211  0.00  0.00    +0.105 C 
ATOM     12  C   LIG    1      -41.100  69.707  24.800  0.00  0.00    +0.029 C 
ATOM     13  C   LIG    1      -42.037  69.672  23.607  0.00  0.00    +0.021 C 
ATOM     14  C   LIG    1      -41.138  69.189  22.483  0.00  0.00    +0.107 C 
BRANCH  11  15
ATOM     15  C   LIG    1      -39.483  71.652  24.325  0.00  0.00    -0.019 A 
ATOM     16  C   LIG    1      -38.295  72.174  24.902  0.00  0.00    -0.017 A 
ATOM     17  C   LIG    1      -38.106  73.574  24.961  0.00  0.00    +0.009 A 
ATOM     18  C   LIG    1      -39.052  74.456  24.443  0.00  0.00    +0.039 A 
ATOM     19  C   LIG    1      -40.208  73.946  23.884  0.00  0.00    +0.124 A 
ATOM     20  F   LIG    1      -41.124  74.784  23.381  0.00  0.00    -0.205 F 
ATOM     21  C   LIG    1      -40.433  72.574  23.831  0.00  0.00    +0.044 A 
BRANCH  16  22
ATOM     22  C   LIG    1      -37.194  71.323  25.495  0.00  0.00    +0.191 C 
BRANCH  22  23
ATOM     23  O   LIG    1      -36.090  71.240  24.608  0.00  0.00    -0.390 OA
ATOM     24  H   LIG    1      -35.793  70.317  24.579  0.00  0.00    +0.210 HD
ENDBRANCH  22  23
ENDBRANCH  16  22
ENDBRANCH  11  15
ENDBRANCH   4  10
BRANCH   1  27
ATOM     25  N   LIG    1      -34.765  66.715  25.118  0.00  0.00    -0.309 N 
ATOM     26  H   LIG    1      -35.046  65.841  24.675  0.00  0.00    +0.149 HD
ATOM     27  C   LIG    1      -34.843  67.861  24.364  0.00  0.00    +0.249 C 
ATOM     28  O   LIG    1      -34.474  68.958  24.803  0.00  0.00    -0.270 OA
BRANCH  25  29
ATOM     29  C   LIG    1      -34.176  66.721  26.454  0.00  0.00    +0.138 C 
BRANCH  29  30
ATOM     30  C   LIG    1      -35.192  66.420  27.572  0.00  0.00    +0.157 C 
BRANCH  30  31
ATOM     31  O   LIG    1      -35.797  65.134  27.352  0.00  0.00    -0.388 OA
ATOM     32  H   LIG    1      -35.544  64.857  26.454  0.00  0.00    +0.210 HD
ENDBRANCH  30  31
BRANCH  30  33
ATOM     33  C   LIG    1      -36.285  67.490  27.683  0.00  0.00    +0.188 C 
BRANCH  33  34
ATOM     34  O   LIG    1      -35.732  68.797  27.523  0.00  0.00    -0.392 OA
ATOM     35  H   LIG    1      -34.868  68.779  27.974  0.00  0.00    +0.210 HD
ENDBRANCH  33  34
ENDBRANCH  30  33
ENDBRANCH  29  30
ENDBRANCH  25  29
ENDBRANCH   1  27
TORSDOF 10
ENDMDL
MODEL 3
REMARK VINA RESULT:      -5.7     16.703     19.636
REMARK  Name = pdb/CHEMBL3675932.pdb
REMARK                            x       y       z     vdW  Elec       q    Type
REMARK                         _______ _______ _______ _____ _____    ______ ____
ROOT
ATOM      1  C   LIG    1      -22.567  80.515  15.578  0.00  0.00    +0.100 A 
ATOM      2  C   LIG    1      -21.578  79.544  15.509  0.00  0.00    +0.170 A 
ATOM      3  N   LIG    1      -21.595  78.230  15.119  0.00  0.00    -0.212 NA
ATOM      4  C   LIG    1      -20.483  77.544  15.274  0.00  0.00    +0.126 A 
ATOM      5  C   LIG    1      -19.223  78.125  15.853  0.00  0.00    +0.063 A 
ATOM      6  C   LIG    1      -19.255  79.419  16.179  0.00  0.00    +0.118 A 
ATOM      7  N   LIG    1      -20.416  80.153  16.002  0.00  0.00    -0.221 N 
ATOM      8  N   LIG    1      -20.601  81.463  16.280  0.00  0.00    -0.173 NA
ATOM      9  C   LIG    1      -21.892  81.667  16.034  0.00  0.00    +0.150 A 
ENDROOT
BRANCH   4  10
ATOM     10  N   LIG    1      -20.436  76.212  14.900  0.00  0.00    -0.308 N 
ATOM     11  C   LIG    1      -19.471  75.338  15.608  0.00  0.00    +0.105 C 
ATOM     12  C   LIG    1      -18.737  74.583  14.491  0.00  0.00    +0.029 C 
ATOM     13  C   LIG    1      -19.726  74.561  13.341  0.00  0.00    +0.021 C 
ATOM     14  C   LIG    1      -20.416  75.909  13.462  0.00  0.00    +0.107 C 
BRANCH  11  15
ATOM     15  C   LIG    1      -20.180  74.431  16.617  0.00  0.00    -0.019 A 
ATOM     16  C   LIG    1      -19.484  73.733  17.639  0.00  0.00    -0.017 A 
ATOM     17  C   LIG    1      -20.207  72.924  18.547  0.00  0.00    +0.009 A 
ATOM     18  C   LIG    1      -21.594  72.812  18.473  0.00  0.00    +0.039 A 
ATOM     19  C   LIG    1      -22.269  73.490  17.476  0.00  0.00    +0.124 A 
ATOM     20  F   LIG    1      -23.602  73.392  17.396  0.00  0.00    -0.205 F 
ATOM     21  C   LIG    1      -21.583  74.278  16.555  0.00  0.00    +0.044 A 
BRANCH  16  22
ATOM     22  C   LIG    1      -17.984  73.774  17.826  0.00  0.00    +0.191 C 
BRANCH  22  23
ATOM     23  O   LIG    1      -17.584  72.906  18.874  0.00  0.00    -0.390 OA
ATOM     24  H   LIG    1      -17.570  73.415  19.701  0.00  0.00    +0.210 HD
ENDBRANCH  22  23
ENDBRANCH  16  22
ENDBRANCH  11  15
ENDBRANCH   4  10
BRANCH   1  27
ATOM     25  N   LIG    1      -24.597  79.228  15.493  0.00  0.00    -0.309 N 
ATOM     26  H   LIG    1      -24.038  78.477  15.897  0.00  0.00    +0.149 HD
ATOM     27  C   LIG    1      -23.976  80.434  15.278  0.00  0.00    +0.249 C 
ATOM     28  O   LIG    1      -24.591  81.416  14.840  0.00  0.00    -0.270 OA
BRANCH  25  29
ATOM     29  C   LIG    1      -26.032  79.061  15.283  0.00  0.00    +0.138 C 
BRANCH  29  30
ATOM     30  C   LIG    1      -26.375  78.011  14.210  0.00  0.00    +0.157 C 
BRANCH  30  31
ATOM     31  O   LIG    1      -27.307  77.053  14.742  0.00  0.00    -0.388 OA
ATOM     32  H   LIG    1      -28.197  77.374  14.516  0.00  0.00    +0.210 HD
ENDBRANCH  30  31
BRANCH  30  33
ATOM     33  C   LIG    1      -25.136  77.281  13.677  0.00  0.00    +0.188 C 
BRANCH  33  34
ATOM     34  O   LIG    1      -24.648  76.345  14.638  0.00  0.00    -0.392 OA
ATOM     35  H   LIG    1      -24.273  75.604  14.125  0.00  0.00    +0.210 HD
ENDBRANCH  33  34
ENDBRANCH  30  33
ENDBRANCH  29  30
ENDBRANCH  25  29
ENDBRANCH   1  27
TORSDOF 10
ENDMDL
MODEL 4
REMARK VINA RESULT:      -5.7      2.845      7.731
REMARK  Name = pdb/CHEMBL3675932.pdb
REMARK                            x       y       z     vdW  Elec       q    Type
REMARK                         _______ _______ _______ _____ _____    ______ ____
ROOT
ATOM      1  C   LIG    1      -38.960  73.243  24.655  0.00  0.00    +0.100 A 
ATOM      2  C   LIG    1      -38.419  74.224  25.473  0.00  0.00    +0.170 A 
ATOM      3  N   LIG    1      -37.370  74.221  26.355  0.00  0.00    -0.212 NA
ATOM      4  C   LIG    1      -37.179  75.313  27.065  0.00  0.00    +0.126 A 
ATOM      5  C   LIG    1      -38.047  76.535  26.956  0.00  0.00    +0.063 A 
ATOM      6  C   LIG    1      -39.030  76.494  26.054  0.00  0.00    +0.118 A 
ATOM      7  N   LIG    1      -39.227  75.355  25.290  0.00  0.00    -0.221 N 
ATOM      8  N   LIG    1      -40.170  75.164  24.340  0.00  0.00    -0.173 NA
ATOM      9  C   LIG    1      -40.010  73.896  23.975  0.00  0.00    +0.150 A 
ENDROOT
BRANCH   4  10
ATOM     10  N   LIG    1      -36.136  75.372  27.973  0.00  0.00    -0.308 N 
ATOM     11  C   LIG    1      -34.849  75.932  27.498  0.00  0.00    +0.105 C 
ATOM     12  C   LIG    1      -33.790  74.919  27.954  0.00  0.00    +0.029 C 
ATOM     13  C   LIG    1      -34.411  74.249  29.165  0.00  0.00    +0.021 C 
ATOM     14  C   LIG    1      -35.883  74.183  28.800  0.00  0.00    +0.107 C 
BRANCH  11  15
ATOM     15  C   LIG    1      -34.630  77.350  28.030  0.00  0.00    -0.019 A 
ATOM     16  C   LIG    1      -33.566  78.179  27.584  0.00  0.00    -0.017 A 
ATOM     17  C   LIG    1      -33.434  79.486  28.110  0.00  0.00    +0.009 A 
ATOM     18  C   LIG    1      -34.338  79.988  29.042  0.00  0.00    +0.039 A 
ATOM     19  C   LIG    1      -35.371  79.179  29.476  0.00  0.00    +0.124 A 
ATOM     20  F   LIG    1      -36.249  79.650  30.371  0.00  0.00    -0.205 F 
ATOM     21  C   LIG    1      -35.516  77.881  28.994  0.00  0.00    +0.044 A 
BRANCH  16  22
ATOM     22  C   LIG    1      -32.522  77.753  26.576  0.00  0.00    +0.191 C 
BRANCH  22  23
ATOM     23  O   LIG    1      -32.338  78.755  25.589  0.00  0.00    -0.390 OA
ATOM     24  H   LIG    1      -32.525  78.363  24.721  0.00  0.00    +0.210 HD
ENDBRANCH  22  23
ENDBRANCH  16  22
ENDBRANCH  11  15
ENDBRANCH   4  10
BRANCH   1  27
ATOM     25  N   LIG    1      -37.292  71.514  24.776  0.00  0.00    -0.309 N 
ATOM     26  H   LIG    1      -36.679  72.248  25.130  0.00  0.00    +0.149 HD
ATOM     27  C   LIG    1      -38.591  71.857  24.492  0.00  0.00    +0.249 C 
ATOM     28  O   LIG    1      -39.418  71.019  24.107  0.00  0.00    -0.270 OA
BRANCH  25  29
ATOM     29  C   LIG    1      -36.836  70.129  24.706  0.00  0.00    +0.138 C 
BRANCH  29  30
ATOM     30  C   LIG    1      -35.544  69.869  25.502  0.00  0.00    +0.157 C 
BRANCH  30  31
ATOM     31  O   LIG    1      -34.609  70.939  25.283  0.00  0.00    -0.388 OA
ATOM     32  H   LIG    1      -34.362  70.906  24.342  0.00  0.00    +0.210 HD
ENDBRANCH  30  31
BRANCH  30  33
ATOM     33  C   LIG    1      -34.886  68.531  25.143  0.00  0.00    +0.188 C 
BRANCH  33  34
ATOM     34  O   LIG    1      -34.775  68.385  23.728  0.00  0.00    -0.392 OA
ATOM     35  H   LIG    1      -34.432  69.236  23.396  0.00  0.00    +0.210 HD
ENDBRANCH  33  34
ENDBRANCH  30  33
ENDBRANCH  29  30
ENDBRANCH  25  29
ENDBRANCH   1  27
TORSDOF 10
ENDMDL
MODEL 5
REMARK VINA RESULT:      -5.7     12.841     16.699
REMARK  Name = pdb/CHEMBL3675932.pdb
REMARK                            x       y       z     vdW  Elec       q    Type
REMARK                         _______ _______ _______ _____ _____    ______ ____
ROOT
ATOM      1  C   LIG    1      -24.442  79.621  35.594  0.00  0.00    +0.100 A 
ATOM      2  C   LIG    1      -23.111  79.693  35.210  0.00  0.00    +0.170 A 
ATOM      3  N   LIG    1      -22.385  79.035  34.250  0.00  0.00    -0.212 NA
ATOM      4  C   LIG    1      -21.091  79.267  34.212  0.00  0.00    +0.126 A 
ATOM      5  C   LIG    1      -20.386  80.198  35.159  0.00  0.00    +0.063 A 
ATOM      6  C   LIG    1      -21.149  80.839  36.048  0.00  0.00    +0.118 A 
ATOM      7  N   LIG    1      -22.516  80.615  36.082  0.00  0.00    -0.221 N 
ATOM      8  N   LIG    1      -23.413  81.187  36.915  0.00  0.00    -0.173 NA
ATOM      9  C   LIG    1      -24.559  80.579  36.623  0.00  0.00    +0.150 A 
ENDROOT
BRANCH   4  10
ATOM     10  N   LIG    1      -20.304  78.633  33.266  0.00  0.00    -0.308 N 
ATOM     11  C   LIG    1      -20.182  77.158  33.357  0.00  0.00    +0.105 C 
ATOM     12  C   LIG    1      -18.675  76.885  33.252  0.00  0.00    +0.029 C 
ATOM     13  C   LIG    1      -18.134  78.069  32.473  0.00  0.00    +0.021 C 
ATOM     14  C   LIG    1      -18.991  79.221  32.966  0.00  0.00    +0.107 C 
BRANCH  11  15
ATOM     15  C   LIG    1      -21.022  76.463  32.283  0.00  0.00    -0.019 A 
ATOM     16  C   LIG    1      -22.043  75.527  32.597  0.00  0.00    -0.017 A 
ATOM     17  C   LIG    1      -22.790  74.935  31.552  0.00  0.00    +0.009 A 
ATOM     18  C   LIG    1      -22.561  75.266  30.219  0.00  0.00    +0.039 A 
ATOM     19  C   LIG    1      -21.566  76.175  29.916  0.00  0.00    +0.124 A 
ATOM     20  F   LIG    1      -21.337  76.503  28.637  0.00  0.00    -0.205 F 
ATOM     21  C   LIG    1      -20.799  76.760  30.920  0.00  0.00    +0.044 A 
BRANCH  16  22
ATOM     22  C   LIG    1      -22.389  75.087  34.001  0.00  0.00    +0.191 C 
BRANCH  22  23
ATOM     23  O   LIG    1      -23.168  76.074  34.660  0.00  0.00    -0.390 OA
ATOM     24  H   LIG    1      -23.963  75.645  35.015  0.00  0.00    +0.210 HD
ENDBRANCH  22  23
ENDBRANCH  16  22
ENDBRANCH  11  15
ENDBRANCH   4  10
BRANCH   1  27
ATOM     25  N   LIG    1      -25.282  78.089  33.941  0.00  0.00    -0.309 N 
ATOM     26  H   LIG    1      -24.357  78.169  33.519  0.00  0.00    +0.149 HD
ATOM     27  C   LIG    1      -25.510  78.783  35.105  0.00  0.00    +0.249 C 
ATOM     28  O   LIG    1      -26.585  78.702  35.713  0.00  0.00    -0.270 OA
BRANCH  25  29
ATOM     29  C   LIG    1      -26.273  77.164  33.399  0.00  0.00    +0.138 C 
BRANCH  29  30
ATOM     30  C   LIG    1      -26.255  77.080  31.862  0.00  0.00    +0.157 C 
BRANCH  30  31
ATOM     31  O   LIG    1      -26.293  75.704  31.445  0.00  0.00    -0.388 OA
ATOM     32  H   LIG    1      -25.815  75.656  30.598  0.00  0.00    +0.210 HD
ENDBRANCH  30  31
BRANCH  30  33
ATOM     33  C   LIG    1      -25.032  77.770  31.245  0.00  0.00    +0.188 C 
BRANCH  33  34
ATOM     34  O   LIG    1      -25.247  78.039  29.860  0.00  0.00    -0.392 OA
ATOM     35  H   LIG    1      -24.436  78.478  29.542  0.00  0.00    +0.210 HD
ENDBRANCH  33  34
ENDBRANCH  30  33
ENDBRANCH  29  30
ENDBRANCH  25  29
ENDBRANCH   1  27
TORSDOF 10
ENDMDL
MODEL 6
REMARK VINA RESULT:      -5.6     19.061     22.077
REMARK  Name = pdb/CHEMBL3675932.pdb
REMARK                            x       y       z     vdW  Elec       q    Type
REMARK                         _______ _______ _______ _____ _____    ______ ____
ROOT
ATOM      1  C   LIG    1      -18.281  84.732  12.981  0.00  0.00    +0.100 A 
ATOM      2  C   LIG    1      -18.826  83.484  13.246  0.00  0.00    +0.170 A 
ATOM      3  N   LIG    1      -19.927  83.085  13.960  0.00  0.00    -0.212 NA
ATOM      4  C   LIG    1      -20.110  81.791  14.106  0.00  0.00    +0.126 A 
ATOM      5  C   LIG    1      -19.183  80.752  13.540  0.00  0.00    +0.063 A 
ATOM      6  C   LIG    1      -18.149  81.198  12.823  0.00  0.00    +0.118 A 
ATOM      7  N   LIG    1      -17.958  82.559  12.649  0.00  0.00    -0.221 N 
ATOM      8  N   LIG    1      -16.968  83.160  11.952  0.00  0.00    -0.173 NA
ATOM      9  C   LIG    1      -17.163  84.458  12.166  0.00  0.00    +0.150 A 
ENDROOT
BRANCH   4  10
ATOM     10  N   LIG    1      -21.204  81.325  14.815  0.00  0.00    -0.308 N 
ATOM     11  C   LIG    1      -22.384  82.216  14.913  0.00  0.00    +0.105 C 
ATOM     12  C   LIG    1      -22.751  82.216  16.403  0.00  0.00    +0.029 C 
ATOM     13  C   LIG    1      -22.228  80.888  16.918  0.00  0.00    +0.021 C 
ATOM     14  C   LIG    1      -20.952  80.693  16.119  0.00  0.00    +0.107 C 
BRANCH  11  15
ATOM     15  C   LIG    1      -23.512  81.747  13.990  0.00  0.00    -0.019 A 
ATOM     16  C   LIG    1      -23.702  82.275  12.685  0.00  0.00    -0.017 A 
ATOM     17  C   LIG    1      -24.757  81.783  11.882  0.00  0.00    +0.009 A 
ATOM     18  C   LIG    1      -25.604  80.774  12.335  0.00  0.00    +0.039 A 
ATOM     19  C   LIG    1      -25.418  80.263  13.605  0.00  0.00    +0.124 A 
ATOM     20  F   LIG    1      -26.225  79.292  14.051  0.00  0.00    -0.205 F 
ATOM     21  C   LIG    1      -24.402  80.741  14.428  0.00  0.00    +0.044 A 
BRANCH  16  22
ATOM     22  C   LIG    1      -22.851  83.367  12.079  0.00  0.00    +0.191 C 
BRANCH  22  23
ATOM     23  O   LIG    1      -21.767  82.814  11.350  0.00  0.00    -0.390 OA
ATOM     24  H   LIG    1      -20.941  83.106  11.767  0.00  0.00    +0.210 HD
ENDBRANCH  22  23
ENDBRANCH  16  22
ENDBRANCH  11  15
ENDBRANCH   4  10
BRANCH   1  27
ATOM     25  N   LIG    1      -19.861  86.124  14.143  0.00  0.00    -0.309 N 
ATOM     26  H   LIG    1      -20.329  85.249  14.380  0.00  0.00    +0.149 HD
ATOM     27  C   LIG    1      -18.702  86.044  13.411  0.00  0.00    +0.249 C 
ATOM     28  O   LIG    1      -18.041  87.051  13.124  0.00  0.00    -0.270 OA
BRANCH  25  29
ATOM     29  C   LIG    1      -20.337  87.395  14.681  0.00  0.00    +0.138 C 
BRANCH  29  30
ATOM     30  C   LIG    1      -21.802  87.349  15.155  0.00  0.00    +0.157 C 
BRANCH  30  31
ATOM     31  O   LIG    1      -21.856  87.002  16.549  0.00  0.00    -0.388 OA
ATOM     32  H   LIG    1      -22.050  86.049  16.592  0.00  0.00    +0.210 HD
ENDBRANCH  30  31
BRANCH  30  33
ATOM     33  C   LIG    1      -22.655  86.364  14.346  0.00  0.00    +0.188 C 
BRANCH  33  34
ATOM     34  O   LIG    1      -22.720  86.756  12.975  0.00  0.00    -0.392 OA
ATOM     35  H   LIG    1      -23.344  87.505  12.940  0.00  0.00    +0.210 HD
ENDBRANCH  33  34
ENDBRANCH  30  33
ENDBRANCH  29  30
ENDBRANCH  25  29
ENDBRANCH   1  27
TORSDOF 10
ENDMDL
MODEL 7
REMARK VINA RESULT:      -5.5     12.647     16.713
REMARK  Name = pdb/CHEMBL3675932.pdb
REMARK                            x       y       z     vdW  Elec       q    Type
REMARK                         _______ _______ _______ _____ _____    ______ ____
ROOT
ATOM      1  C   LIG    1      -22.894  76.750  30.469  0.00  0.00    +0.100 A 
ATOM      2  C   LIG    1      -22.013  77.333  31.369  0.00  0.00    +0.170 A 
ATOM      3  N   LIG    1      -22.179  77.844  32.630  0.00  0.00    -0.212 NA
ATOM      4  C   LIG    1      -21.139  78.431  33.182  0.00  0.00    +0.126 A 
ATOM      5  C   LIG    1      -19.806  78.567  32.501  0.00  0.00    +0.063 A 
ATOM      6  C   LIG    1      -19.692  78.018  31.289  0.00  0.00    +0.118 A 
ATOM      7  N   LIG    1      -20.777  77.382  30.709  0.00  0.00    -0.221 N 
ATOM      8  N   LIG    1      -20.817  76.780  29.500  0.00  0.00    -0.173 NA
ATOM      9  C   LIG    1      -22.088  76.415  29.361  0.00  0.00    +0.150 A 
ENDROOT
BRANCH   4  10
ATOM     10  N   LIG    1      -21.243  78.966  34.454  0.00  0.00    -0.308 N 
ATOM     11  C   LIG    1      -22.592  79.371  34.916  0.00  0.00    +0.105 C 
ATOM     12  C   LIG    1      -22.402  80.784  35.483  0.00  0.00    +0.029 C 
ATOM     13  C   LIG    1      -20.947  80.825  35.909  0.00  0.00    +0.021 C 
ATOM     14  C   LIG    1      -20.259  79.985  34.848  0.00  0.00    +0.107 C 
BRANCH  11  15
ATOM     15  C   LIG    1      -23.161  78.364  35.919  0.00  0.00    -0.019 A 
ATOM     16  C   LIG    1      -24.377  78.585  36.619  0.00  0.00    -0.017 A 
ATOM     17  C   LIG    1      -24.850  77.603  37.520  0.00  0.00    +0.009 A 
ATOM     18  C   LIG    1      -24.159  76.411  37.722  0.00  0.00    +0.039 A 
ATOM     19  C   LIG    1      -22.975  76.199  37.042  0.00  0.00    +0.124 A 
ATOM     20  F   LIG    1      -22.302  75.056  37.227  0.00  0.00    -0.205 F 
ATOM     21  C   LIG    1      -22.472  77.155  36.164  0.00  0.00    +0.044 A 
BRANCH  16  22
ATOM     22  C   LIG    1      -25.219  79.834  36.485  0.00  0.00    +0.191 C 
BRANCH  22  23
ATOM     23  O   LIG    1      -26.493  79.526  35.941  0.00  0.00    -0.390 OA
ATOM     24  H   LIG    1      -26.372  79.272  35.012  0.00  0.00    +0.210 HD
ENDBRANCH  22  23
ENDBRANCH  16  22
ENDBRANCH  11  15
ENDBRANCH   4  10
BRANCH   1  27
ATOM     25  N   LIG    1      -24.737  75.638  31.543  0.00  0.00    -0.309 N 
ATOM     26  H   LIG    1      -24.029  75.244  32.162  0.00  0.00    +0.149 HD
ATOM     27  C   LIG    1      -24.314  76.515  30.573  0.00  0.00    +0.249 C 
ATOM     28  O   LIG    1      -25.110  77.081  29.813  0.00  0.00    -0.270 OA
BRANCH  25  29
ATOM     29  C   LIG    1      -26.156  75.383  31.773  0.00  0.00    +0.138 C 
BRANCH  29  30
ATOM     30  C   LIG    1      -26.847  76.477  32.608  0.00  0.00    +0.157 C 
BRANCH  30  31
ATOM     31  O   LIG    1      -27.308  77.533  31.747  0.00  0.00    -0.388 OA
ATOM     32  H   LIG    1      -26.562  77.765  31.166  0.00  0.00    +0.210 HD
ENDBRANCH  30  31
BRANCH  30  33
ATOM     33  C   LIG    1      -25.933  77.061  33.693  0.00  0.00    +0.188 C 
BRANCH  33  34
ATOM     34  O   LIG    1      -25.333  78.278  33.248  0.00  0.00    -0.392 OA
ATOM     35  H   LIG    1      -25.980  78.982  33.441  0.00  0.00    +0.210 HD
ENDBRANCH  33  34
ENDBRANCH  30  33
ENDBRANCH  29  30
ENDBRANCH  25  29
ENDBRANCH   1  27
TORSDOF 10
ENDMDL
MODEL 8
REMARK VINA RESULT:      -5.5     19.802     23.059
REMARK  Name = pdb/CHEMBL3675932.pdb
REMARK                            x       y       z     vdW  Elec       q    Type
REMARK                         _______ _______ _______ _____ _____    ______ ____
ROOT
ATOM      1  C   LIG    1      -24.723  82.741  12.056  0.00  0.00    +0.100 A 
ATOM      2  C   LIG    1      -24.199  84.011  11.862  0.00  0.00    +0.170 A 
ATOM      3  N   LIG    1      -23.341  84.783  12.603  0.00  0.00    -0.212 NA
ATOM      4  C   LIG    1      -23.121  86.009  12.181  0.00  0.00    +0.126 A 
ATOM      5  C   LIG    1      -23.760  86.591  10.951  0.00  0.00    +0.063 A 
ATOM      6  C   LIG    1      -24.556  85.781  10.249  0.00  0.00    +0.118 A 
ATOM      7  N   LIG    1      -24.779  84.482  10.677  0.00  0.00    -0.221 N 
ATOM      8  N   LIG    1      -25.551  83.549  10.076  0.00  0.00    -0.173 NA
ATOM      9  C   LIG    1      -25.520  82.516  10.914  0.00  0.00    +0.150 A 
ENDROOT
BRANCH   4  10
ATOM     10  N   LIG    1      -22.264  86.838  12.885  0.00  0.00    -0.308 N 
ATOM     11  C   LIG    1      -21.422  86.216  13.935  0.00  0.00    +0.105 C 
ATOM     12  C   LIG    1      -21.602  87.117  15.164  0.00  0.00    +0.029 C 
ATOM     13  C   LIG    1      -21.956  88.474  14.584  0.00  0.00    +0.021 C 
ATOM     14  C   LIG    1      -22.800  88.116  13.374  0.00  0.00    +0.107 C 
BRANCH  11  15
ATOM     15  C   LIG    1      -19.971  86.071  13.470  0.00  0.00    -0.019 A 
ATOM     16  C   LIG    1      -19.302  84.819  13.429  0.00  0.00    -0.017 A 
ATOM     17  C   LIG    1      -17.964  84.759  12.974  0.00  0.00    +0.009 A 
ATOM     18  C   LIG    1      -17.292  85.901  12.543  0.00  0.00    +0.039 A 
ATOM     19  C   LIG    1      -17.945  87.118  12.585  0.00  0.00    +0.124 A 
ATOM     20  F   LIG    1      -17.311  88.222  12.172  0.00  0.00    -0.205 F 
ATOM     21  C   LIG    1      -19.254  87.213  13.048  0.00  0.00    +0.044 A 
BRANCH  16  22
ATOM     22  C   LIG    1      -19.921  83.511  13.866  0.00  0.00    +0.191 C 
BRANCH  22  23
ATOM     23  O   LIG    1      -20.865  83.057  12.910  0.00  0.00    -0.390 OA
ATOM     24  H   LIG    1      -20.778  82.094  12.830  0.00  0.00    +0.210 HD
ENDBRANCH  22  23
ENDBRANCH  16  22
ENDBRANCH  11  15
ENDBRANCH   4  10
BRANCH   1  27
ATOM     25  N   LIG    1      -23.265  81.630  13.612  0.00  0.00    -0.309 N 
ATOM     26  H   LIG    1      -22.525  82.193  13.192  0.00  0.00    +0.149 HD
ATOM     27  C   LIG    1      -24.544  81.814  13.147  0.00  0.00    +0.249 C 
ATOM     28  O   LIG    1      -25.509  81.211  13.635  0.00  0.00    -0.270 OA
BRANCH  25  29
ATOM     29  C   LIG    1      -22.986  80.765  14.755  0.00  0.00    +0.138 C 
BRANCH  29  30
ATOM     30  C   LIG    1      -22.267  81.488  15.909  0.00  0.00    +0.157 C 
BRANCH  30  31
ATOM     31  O   LIG    1      -22.443  80.754  17.133  0.00  0.00    -0.388 OA
ATOM     32  H   LIG    1      -23.341  80.954  17.451  0.00  0.00    +0.210 HD
ENDBRANCH  30  31
BRANCH  30  33
ATOM     33  C   LIG    1      -22.754  82.930  16.100  0.00  0.00    +0.188 C 
BRANCH  33  34
ATOM     34  O   LIG    1      -22.220  83.489  17.299  0.00  0.00    -0.392 OA
ATOM     35  H   LIG    1      -21.759  84.307  17.032  0.00  0.00    +0.210 HD
ENDBRANCH  33  34
ENDBRANCH  30  33
ENDBRANCH  29  30
ENDBRANCH  25  29
ENDBRANCH   1  27
TORSDOF 10
ENDMDL
MODEL 9
REMARK VINA RESULT:      -5.4      1.762      2.110
REMARK  Name = pdb/CHEMBL3675932.pdb
REMARK                            x       y       z     vdW  Elec       q    Type
REMARK                         _______ _______ _______ _____ _____    ______ ____
ROOT
ATOM      1  C   LIG    1      -36.413  75.648  30.579  0.00  0.00    +0.100 A 
ATOM      2  C   LIG    1      -37.445  75.489  29.665  0.00  0.00    +0.170 A 
ATOM      3  N   LIG    1      -37.560  75.793  28.334  0.00  0.00    -0.212 NA
ATOM      4  C   LIG    1      -38.735  75.604  27.774  0.00  0.00    +0.126 A 
ATOM      5  C   LIG    1      -39.934  75.083  28.516  0.00  0.00    +0.063 A 
ATOM      6  C   LIG    1      -39.752  74.768  29.802  0.00  0.00    +0.118 A 
ATOM      7  N   LIG    1      -38.513  74.948  30.394  0.00  0.00    -0.221 N 
ATOM      8  N   LIG    1      -38.175  74.674  31.674  0.00  0.00    -0.173 NA
ATOM      9  C   LIG    1      -36.922  75.107  31.778  0.00  0.00    +0.150 A 
ENDROOT
BRANCH   4  10
ATOM     10  N   LIG    1      -38.915  75.892  26.432  0.00  0.00    -0.308 N 
ATOM     11  C   LIG    1      -38.140  75.095  25.452  0.00  0.00    +0.105 C 
ATOM     12  C   LIG    1      -37.522  76.133  24.506  0.00  0.00    +0.029 C 
ATOM     13  C   LIG    1      -38.468  77.317  24.580  0.00  0.00    +0.021 C 
ATOM     14  C   LIG    1      -38.911  77.307  26.032  0.00  0.00    +0.107 C 
BRANCH  11  15
ATOM     15  C   LIG    1      -39.024  74.059  24.755  0.00  0.00    -0.019 A 
ATOM     16  C   LIG    1      -38.713  72.673  24.739  0.00  0.00    -0.017 A 
ATOM     17  C   LIG    1      -39.585  71.770  24.087  0.00  0.00    +0.009 A 
ATOM     18  C   LIG    1      -40.758  72.208  23.476  0.00  0.00    +0.039 A 
ATOM     19  C   LIG    1      -41.058  73.557  23.490  0.00  0.00    +0.124 A 
ATOM     20  F   LIG    1      -42.183  73.990  22.908  0.00  0.00    -0.205 F 
ATOM     21  C   LIG    1      -40.209  74.473  24.105  0.00  0.00    +0.044 A 
BRANCH  16  22
ATOM     22  C   LIG    1      -37.475  72.074  25.368  0.00  0.00    +0.191 C 
BRANCH  22  23
ATOM     23  O   LIG    1      -36.560  71.650  24.370  0.00  0.00    -0.390 OA
ATOM     24  H   LIG    1      -36.787  70.741  24.116  0.00  0.00    +0.210 HD
ENDBRANCH  22  23
ENDBRANCH  16  22
ENDBRANCH  11  15
ENDBRANCH   4  10
BRANCH   1  27
ATOM     25  N   LIG    1      -34.624  76.349  29.131  0.00  0.00    -0.309 N 
ATOM     26  H   LIG    1      -35.242  76.064  28.371  0.00  0.00    +0.149 HD
ATOM     27  C   LIG    1      -35.103  76.231  30.413  0.00  0.00    +0.249 C 
ATOM     28  O   LIG    1      -34.442  76.601  31.393  0.00  0.00    -0.270 OA
BRANCH  25  29
ATOM     29  C   LIG    1      -33.340  76.984  28.853  0.00  0.00    +0.138 C 
BRANCH  29  30
ATOM     30  C   LIG    1      -33.397  77.999  27.696  0.00  0.00    +0.157 C 
BRANCH  30  31
ATOM     31  O   LIG    1      -34.723  78.038  27.142  0.00  0.00    -0.388 OA
ATOM     32  H   LIG    1      -34.677  77.599  26.275  0.00  0.00    +0.210 HD
ENDBRANCH  30  31
BRANCH  30  33
ATOM     33  C   LIG    1      -32.386  77.688  26.585  0.00  0.00    +0.188 C 
BRANCH  33  34
ATOM     34  O   LIG    1      -32.299  78.773  25.661  0.00  0.00    -0.392 OA
ATOM     35  H   LIG    1      -32.265  79.584  26.202  0.00  0.00    +0.210 HD
ENDBRANCH  33  34
ENDBRANCH  30  33
ENDBRANCH  29  30
ENDBRANCH  25  29
ENDBRANCH   1  27
TORSDOF 10
ENDMDL
