MODEL 1
REMARK VINA RESULT:      -6.4      0.000      0.000
REMARK  Name = pdb/CHEMBL3673438.pdb
REMARK                            x       y       z     vdW  Elec       q    Type
REMARK                         _______ _______ _______ _____ _____    ______ ____
ROOT
ATOM      1  C   LIG    1      -34.508  70.381  28.929  0.00  0.00    +0.144 C 
ENDROOT
BRANCH   1   2
ATOM      2  N   LIG    1      -33.750  71.632  29.194  0.00  0.00    -0.286 N 
ATOM      3  C   LIG    1      -34.005  72.947  28.850  0.00  0.00    +0.056 A 
ATOM      4  C   LIG    1      -35.067  73.675  28.341  0.00  0.00    +0.026 A 
ATOM      5  C   LIG    1      -34.851  74.963  27.851  0.00  0.00    +0.010 A 
ATOM      6  C   LIG    1      -33.665  75.664  28.077  0.00  0.00    -0.016 A 
ATOM      7  C   LIG    1      -32.663  74.979  28.797  0.00  0.00    +0.035 A 
ATOM      8  C   LIG    1      -32.813  73.612  29.153  0.00  0.00    +0.073 A 
ATOM      9  N   LIG    1      -31.950  72.819  29.832  0.00  0.00    -0.204 NA
ATOM     10  C   LIG    1      -32.563  71.618  29.906  0.00  0.00    +0.227 C 
BRANCH   6  11
ATOM     11  C   LIG    1      -33.548  77.087  27.646  0.00  0.00    -0.015 A 
ATOM     12  C   LIG    1      -32.528  77.521  26.793  0.00  0.00    +0.028 A 
ATOM     13  C   LIG    1      -32.425  78.869  26.472  0.00  0.00    +0.111 A 
ATOM     14  N   LIG    1      -33.256  79.825  26.931  0.00  0.00    -0.263 NA
ATOM     15  C   LIG    1      -34.242  79.410  27.741  0.00  0.00    +0.111 A 
ATOM     16  C   LIG    1      -34.428  78.085  28.109  0.00  0.00    +0.028 A 
ENDBRANCH   6  11
BRANCH  10  17
ATOM     17  N   LIG    1      -32.075  70.593  30.577  0.00  0.00    -0.289 NA
ATOM     18  H   LIG    1      -31.183  70.774  31.030  0.00  0.00    +0.122 HD
ATOM     19  H   LIG    1      -32.694  70.071  31.209  0.00  0.00    +0.122 HD
ENDBRANCH  10  17
ENDBRANCH   1   2
BRANCH   1  23
ATOM     20  C   LIG    1      -35.034  68.866  24.828  0.00  0.00    +0.162 A 
ATOM     21  C   LIG    1      -35.860  69.883  25.305  0.00  0.00    +0.162 A 
ATOM     22  C   LIG    1      -35.659  70.282  26.645  0.00  0.00    +0.054 A 
ATOM     23  C   LIG    1      -34.635  69.864  27.500  0.00  0.00    -0.026 A 
ATOM     24  C   LIG    1      -33.830  68.841  27.008  0.00  0.00    +0.009 A 
ATOM     25  C   LIG    1      -34.044  68.355  25.707  0.00  0.00    +0.050 A 
BRANCH  21  26
ATOM     26  O   LIG    1      -36.626  70.811  24.639  0.00  0.00    -0.491 OA
ATOM     27  C   LIG    1      -37.369  71.854  25.262  0.00  0.00    +0.277 C 
ENDBRANCH  21  26
BRANCH  20  28
ATOM     28  O   LIG    1      -34.923  68.213  23.639  0.00  0.00    -0.484 OA
BRANCH  28  29
ATOM     29  C   LIG    1      -35.695  67.088  23.305  0.00  0.00    +0.264 C 
BRANCH  29  33
ATOM     30  C   LIG    1      -37.143  67.588  19.264  0.00  0.00    +0.120 A 
ATOM     31  C   LIG    1      -36.551  66.384  19.649  0.00  0.00    +0.046 A 
ATOM     32  C   LIG    1      -36.128  66.194  20.973  0.00  0.00    +0.010 A 
ATOM     33  C   LIG    1      -36.285  67.213  21.922  0.00  0.00    -0.010 A 
ATOM     34  C   LIG    1      -36.955  68.377  21.539  0.00  0.00    +0.010 A 
ATOM     35  C   LIG    1      -37.389  68.559  20.229  0.00  0.00    +0.046 A 
BRANCH  30  37
ATOM     36  C   LIG    1      -36.901  66.741  17.079  0.00  0.00    +0.277 C 
ATOM     37  O   LIG    1      -37.472  67.729  17.942  0.00  0.00    -0.495 OA
ENDBRANCH  30  37
ENDBRANCH  29  33
ENDBRANCH  28  29
ENDBRANCH  20  28
ENDBRANCH   1  23
TORSDOF 9
ENDMDL
MODEL 2
REMARK VINA RESULT:      -6.3      4.896      6.620
REMARK  Name = pdb/CHEMBL3673438.pdb
REMARK                            x       y       z     vdW  Elec       q    Type
REMARK                         _______ _______ _______ _____ _____    ______ ____
ROOT
ATOM      1  C   LIG    1      -39.055  68.884  23.684  0.00  0.00    +0.144 C 
ENDROOT
BRANCH   1   2
ATOM      2  N   LIG    1      -38.604  70.158  24.303  0.00  0.00    -0.286 N 
ATOM      3  C   LIG    1      -39.158  71.425  24.298  0.00  0.00    +0.056 A 
ATOM      4  C   LIG    1      -40.363  72.005  23.939  0.00  0.00    +0.026 A 
ATOM      5  C   LIG    1      -40.453  73.390  23.810  0.00  0.00    +0.010 A 
ATOM      6  C   LIG    1      -39.460  74.255  24.274  0.00  0.00    -0.016 A 
ATOM      7  C   LIG    1      -38.321  73.647  24.845  0.00  0.00    +0.035 A 
ATOM      8  C   LIG    1      -38.150  72.237  24.826  0.00  0.00    +0.073 A 
ATOM      9  N   LIG    1      -37.122  71.507  25.322  0.00  0.00    -0.204 NA
ATOM     10  C   LIG    1      -37.441  70.224  25.051  0.00  0.00    +0.227 C 
BRANCH   6  11
ATOM     11  C   LIG    1      -39.678  75.729  24.232  0.00  0.00    -0.015 A 
ATOM     12  C   LIG    1      -38.750  76.630  24.764  0.00  0.00    +0.028 A 
ATOM     13  C   LIG    1      -39.028  77.992  24.758  0.00  0.00    +0.111 A 
ATOM     14  N   LIG    1      -40.159  78.533  24.265  0.00  0.00    -0.263 NA
ATOM     15  C   LIG    1      -41.047  77.671  23.744  0.00  0.00    +0.111 A 
ATOM     16  C   LIG    1      -40.851  76.299  23.700  0.00  0.00    +0.028 A 
ENDBRANCH   6  11
BRANCH  10  17
ATOM     17  N   LIG    1      -36.724  69.194  25.458  0.00  0.00    -0.289 NA
ATOM     18  H   LIG    1      -36.678  68.425  24.794  0.00  0.00    +0.122 HD
ATOM     19  H   LIG    1      -35.797  69.364  25.868  0.00  0.00    +0.122 HD
ENDBRANCH  10  17
ENDBRANCH   1   2
BRANCH   1  23
ATOM     20  C   LIG    1      -37.991  67.843  19.540  0.00  0.00    +0.162 A 
ATOM     21  C   LIG    1      -39.044  67.185  20.173  0.00  0.00    +0.162 A 
ATOM     22  C   LIG    1      -39.294  67.543  21.517  0.00  0.00    +0.054 A 
ATOM     23  C   LIG    1      -38.688  68.579  22.235  0.00  0.00    -0.026 A 
ATOM     24  C   LIG    1      -37.633  69.213  21.588  0.00  0.00    +0.009 A 
ATOM     25  C   LIG    1      -37.295  68.835  20.277  0.00  0.00    +0.050 A 
BRANCH  21  26
ATOM     26  O   LIG    1      -40.108  66.481  19.660  0.00  0.00    -0.491 OA
ATOM     27  C   LIG    1      -40.196  65.061  19.601  0.00  0.00    +0.277 C 
ENDBRANCH  21  26
BRANCH  20  28
ATOM     28  O   LIG    1      -37.442  67.775  18.296  0.00  0.00    -0.484 OA
BRANCH  28  29
ATOM     29  C   LIG    1      -36.779  66.637  17.809  0.00  0.00    +0.264 C 
BRANCH  29  33
ATOM     30  C   LIG    1      -32.567  67.113  18.652  0.00  0.00    +0.120 A 
ATOM     31  C   LIG    1      -33.392  66.456  19.567  0.00  0.00    +0.046 A 
ATOM     32  C   LIG    1      -34.748  66.248  19.276  0.00  0.00    +0.010 A 
ATOM     33  C   LIG    1      -35.295  66.708  18.070  0.00  0.00    -0.010 A 
ATOM     34  C   LIG    1      -34.437  67.288  17.133  0.00  0.00    +0.010 A 
ATOM     35  C   LIG    1      -33.087  67.478  17.414  0.00  0.00    +0.046 A 
BRANCH  30  37
ATOM     36  C   LIG    1      -30.526  66.156  19.338  0.00  0.00    +0.277 C 
ATOM     37  O   LIG    1      -31.269  67.338  19.029  0.00  0.00    -0.495 OA
ENDBRANCH  30  37
ENDBRANCH  29  33
ENDBRANCH  28  29
ENDBRANCH  20  28
ENDBRANCH   1  23
TORSDOF 9
ENDMDL
MODEL 3
REMARK VINA RESULT:      -6.3      6.177     10.846
REMARK  Name = pdb/CHEMBL3673438.pdb
REMARK                            x       y       z     vdW  Elec       q    Type
REMARK                         _______ _______ _______ _____ _____    ______ ____
ROOT
ATOM      1  C   LIG    1      -36.659  66.153  19.273  0.00  0.00    +0.144 C 
ENDROOT
BRANCH   1   2
ATOM      2  N   LIG    1      -35.478  66.455  18.421  0.00  0.00    -0.286 N 
ATOM      3  C   LIG    1      -34.121  66.375  18.676  0.00  0.00    +0.056 A 
ATOM      4  C   LIG    1      -33.303  65.837  19.654  0.00  0.00    +0.026 A 
ATOM      5  C   LIG    1      -31.961  66.211  19.716  0.00  0.00    +0.010 A 
ATOM      6  C   LIG    1      -31.326  66.907  18.686  0.00  0.00    -0.016 A 
ATOM      7  C   LIG    1      -32.133  67.260  17.583  0.00  0.00    +0.035 A 
ATOM      8  C   LIG    1      -33.534  67.029  17.589  0.00  0.00    +0.073 A 
ATOM      9  N   LIG    1      -34.438  67.311  16.621  0.00  0.00    -0.204 NA
ATOM     10  C   LIG    1      -35.624  66.896  17.117  0.00  0.00    +0.227 C 
BRANCH   6  11
ATOM     11  C   LIG    1      -29.858  67.157  18.751  0.00  0.00    -0.015 A 
ATOM     12  C   LIG    1      -29.015  66.407  19.577  0.00  0.00    +0.028 A 
ATOM     13  C   LIG    1      -27.662  66.720  19.650  0.00  0.00    +0.111 A 
ATOM     14  N   LIG    1      -27.077  67.722  18.965  0.00  0.00    -0.263 NA
ATOM     15  C   LIG    1      -27.882  68.437  18.163  0.00  0.00    +0.111 A 
ATOM     16  C   LIG    1      -29.240  68.192  18.021  0.00  0.00    +0.028 A 
ENDBRANCH   6  11
BRANCH  10  17
ATOM     17  N   LIG    1      -36.749  66.919  16.429  0.00  0.00    -0.289 NA
ATOM     18  H   LIG    1      -36.626  67.045  15.427  0.00  0.00    +0.122 HD
ATOM     19  H   LIG    1      -37.458  66.198  16.611  0.00  0.00    +0.122 HD
ENDBRANCH  10  17
ENDBRANCH   1   2
BRANCH   1  23
ATOM     20  C   LIG    1      -38.011  69.015  22.334  0.00  0.00    +0.162 A 
ATOM     21  C   LIG    1      -36.795  68.352  22.492  0.00  0.00    +0.162 A 
ATOM     22  C   LIG    1      -36.454  67.416  21.489  0.00  0.00    +0.054 A 
ATOM     23  C   LIG    1      -37.136  67.183  20.292  0.00  0.00    -0.026 A 
ATOM     24  C   LIG    1      -38.352  67.846  20.162  0.00  0.00    +0.009 A 
ATOM     25  C   LIG    1      -38.773  68.728  21.172  0.00  0.00    +0.050 A 
BRANCH  21  26
ATOM     26  O   LIG    1      -35.696  68.652  23.260  0.00  0.00    -0.491 OA
ATOM     27  C   LIG    1      -35.272  67.915  24.403  0.00  0.00    +0.277 C 
ENDBRANCH  21  26
BRANCH  20  28
ATOM     28  O   LIG    1      -38.682  69.949  23.062  0.00  0.00    -0.484 OA
BRANCH  28  29
ATOM     29  C   LIG    1      -38.133  70.589  24.185  0.00  0.00    +0.264 C 
BRANCH  29  33
ATOM     30  C   LIG    1      -39.609  74.644  24.432  0.00  0.00    +0.120 A 
ATOM     31  C   LIG    1      -40.432  73.630  23.938  0.00  0.00    +0.046 A 
ATOM     32  C   LIG    1      -39.981  72.302  23.906  0.00  0.00    +0.010 A 
ATOM     33  C   LIG    1      -38.694  71.978  24.358  0.00  0.00    -0.010 A 
ATOM     34  C   LIG    1      -37.917  72.991  24.926  0.00  0.00    +0.010 A 
ATOM     35  C   LIG    1      -38.372  74.306  24.973  0.00  0.00    +0.046 A 
BRANCH  30  37
ATOM     36  C   LIG    1      -41.160  76.116  23.444  0.00  0.00    +0.277 C 
ATOM     37  O   LIG    1      -40.089  75.925  24.373  0.00  0.00    -0.495 OA
ENDBRANCH  30  37
ENDBRANCH  29  33
ENDBRANCH  28  29
ENDBRANCH  20  28
ENDBRANCH   1  23
TORSDOF 9
ENDMDL
MODEL 4
REMARK VINA RESULT:      -6.2      5.499      6.876
REMARK  Name = pdb/CHEMBL3673438.pdb
REMARK                            x       y       z     vdW  Elec       q    Type
REMARK                         _______ _______ _______ _____ _____    ______ ____
ROOT
ATOM      1  C   LIG    1      -40.522  70.125  23.927  0.00  0.00    +0.144 C 
ENDROOT
BRANCH   1   2
ATOM      2  N   LIG    1      -40.965  71.476  23.493  0.00  0.00    -0.286 N 
ATOM      3  C   LIG    1      -40.445  72.733  23.741  0.00  0.00    +0.056 A 
ATOM      4  C   LIG    1      -39.281  73.264  24.270  0.00  0.00    +0.026 A 
ATOM      5  C   LIG    1      -39.234  74.611  24.627  0.00  0.00    +0.010 A 
ATOM      6  C   LIG    1      -40.217  75.525  24.244  0.00  0.00    -0.016 A 
ATOM      7  C   LIG    1      -41.301  75.001  23.506  0.00  0.00    +0.035 A 
ATOM      8  C   LIG    1      -41.437  73.605  23.284  0.00  0.00    +0.073 A 
ATOM      9  N   LIG    1      -42.413  72.952  22.608  0.00  0.00    -0.204 NA
ATOM     10  C   LIG    1      -42.079  71.645  22.689  0.00  0.00    +0.227 C 
BRANCH   6  11
ATOM     11  C   LIG    1      -40.040  76.976  24.538  0.00  0.00    -0.015 A 
ATOM     12  C   LIG    1      -40.022  77.940  23.526  0.00  0.00    +0.028 A 
ATOM     13  C   LIG    1      -39.790  79.272  23.845  0.00  0.00    +0.111 A 
ATOM     14  N   LIG    1      -39.574  79.726  25.095  0.00  0.00    -0.263 NA
ATOM     15  C   LIG    1      -39.601  78.804  26.071  0.00  0.00    +0.111 A 
ATOM     16  C   LIG    1      -39.833  77.456  25.846  0.00  0.00    +0.028 A 
ENDBRANCH   6  11
BRANCH  10  17
ATOM     17  N   LIG    1      -42.741  70.686  22.073  0.00  0.00    -0.289 NA
ATOM     18  H   LIG    1      -42.397  69.748  22.264  0.00  0.00    +0.122 HD
ATOM     19  H   LIG    1      -43.768  70.698  22.094  0.00  0.00    +0.122 HD
ENDBRANCH  10  17
ENDBRANCH   1   2
BRANCH   1  23
ATOM     20  C   LIG    1      -36.509  68.635  22.895  0.00  0.00    +0.162 A 
ATOM     21  C   LIG    1      -37.463  68.813  21.894  0.00  0.00    +0.162 A 
ATOM     22  C   LIG    1      -38.740  69.250  22.312  0.00  0.00    +0.054 A 
ATOM     23  C   LIG    1      -39.110  69.652  23.599  0.00  0.00    -0.026 A 
ATOM     24  C   LIG    1      -38.147  69.454  24.583  0.00  0.00    +0.009 A 
ATOM     25  C   LIG    1      -36.885  68.946  24.227  0.00  0.00    +0.050 A 
BRANCH  21  26
ATOM     26  O   LIG    1      -37.328  68.961  20.534  0.00  0.00    -0.491 OA
ATOM     27  C   LIG    1      -37.073  67.900  19.618  0.00  0.00    +0.277 C 
ENDBRANCH  21  26
BRANCH  20  28
ATOM     28  O   LIG    1      -35.211  68.228  22.905  0.00  0.00    -0.484 OA
BRANCH  28  29
ATOM     29  C   LIG    1      -34.818  66.921  23.238  0.00  0.00    +0.264 C 
BRANCH  29  33
ATOM     30  C   LIG    1      -33.763  64.470  19.838  0.00  0.00    +0.120 A 
ATOM     31  C   LIG    1      -34.684  64.002  20.777  0.00  0.00    +0.046 A 
ATOM     32  C   LIG    1      -35.074  64.813  21.853  0.00  0.00    +0.010 A 
ATOM     33  C   LIG    1      -34.535  66.098  22.006  0.00  0.00    -0.010 A 
ATOM     34  C   LIG    1      -33.679  66.580  21.012  0.00  0.00    +0.010 A 
ATOM     35  C   LIG    1      -33.306  65.780  19.935  0.00  0.00    +0.046 A 
BRANCH  30  37
ATOM     36  C   LIG    1      -32.845  64.229  17.682  0.00  0.00    +0.277 C 
ATOM     37  O   LIG    1      -33.379  63.601  18.851  0.00  0.00    -0.495 OA
ENDBRANCH  30  37
ENDBRANCH  29  33
ENDBRANCH  28  29
ENDBRANCH  20  28
ENDBRANCH   1  23
TORSDOF 9
ENDMDL
MODEL 5
REMARK VINA RESULT:      -6.2      4.789      6.998
REMARK  Name = pdb/CHEMBL3673438.pdb
REMARK                            x       y       z     vdW  Elec       q    Type
REMARK                         _______ _______ _______ _____ _____    ______ ____
ROOT
ATOM      1  C   LIG    1      -36.507  67.438  24.280  0.00  0.00    +0.144 C 
ENDROOT
BRANCH   1   2
ATOM      2  N   LIG    1      -36.556  68.864  24.699  0.00  0.00    -0.286 N 
ATOM      3  C   LIG    1      -37.568  69.804  24.628  0.00  0.00    +0.056 A 
ATOM      4  C   LIG    1      -38.927  69.815  24.365  0.00  0.00    +0.026 A 
ATOM      5  C   LIG    1      -39.571  71.024  24.102  0.00  0.00    +0.010 A 
ATOM      6  C   LIG    1      -38.972  72.262  24.341  0.00  0.00    -0.016 A 
ATOM      7  C   LIG    1      -37.647  72.231  24.825  0.00  0.00    +0.035 A 
ATOM      8  C   LIG    1      -36.930  71.010  24.935  0.00  0.00    +0.073 A 
ATOM      9  N   LIG    1      -35.663  70.814  25.373  0.00  0.00    -0.204 NA
ATOM     10  C   LIG    1      -35.463  69.481  25.282  0.00  0.00    +0.227 C 
BRANCH   6  11
ATOM     11  C   LIG    1      -39.762  73.515  24.171  0.00  0.00    -0.015 A 
ATOM     12  C   LIG    1      -41.036  73.515  23.595  0.00  0.00    +0.028 A 
ATOM     13  C   LIG    1      -41.706  74.718  23.400  0.00  0.00    +0.111 A 
ATOM     14  N   LIG    1      -41.209  75.925  23.731  0.00  0.00    -0.263 NA
ATOM     15  C   LIG    1      -39.990  75.928  24.294  0.00  0.00    +0.111 A 
ATOM     16  C   LIG    1      -39.253  74.778  24.534  0.00  0.00    +0.028 A 
ENDBRANCH   6  11
BRANCH  10  17
ATOM     17  N   LIG    1      -34.368  68.880  25.703  0.00  0.00    -0.289 NA
ATOM     18  H   LIG    1      -33.683  68.695  24.973  0.00  0.00    +0.122 HD
ATOM     19  H   LIG    1      -33.900  69.231  26.547  0.00  0.00    +0.122 HD
ENDBRANCH  10  17
ENDBRANCH   1   2
BRANCH   1  23
ATOM     20  C   LIG    1      -34.948  66.256  20.336  0.00  0.00    +0.162 A 
ATOM     21  C   LIG    1      -36.317  66.451  20.512  0.00  0.00    +0.162 A 
ATOM     22  C   LIG    1      -36.743  66.784  21.817  0.00  0.00    +0.054 A 
ATOM     23  C   LIG    1      -35.930  67.071  22.917  0.00  0.00    -0.026 A 
ATOM     24  C   LIG    1      -34.569  66.859  22.722  0.00  0.00    +0.009 A 
ATOM     25  C   LIG    1      -34.105  66.449  21.460  0.00  0.00    +0.050 A 
BRANCH  21  26
ATOM     26  O   LIG    1      -37.318  66.702  19.603  0.00  0.00    -0.491 OA
ATOM     27  C   LIG    1      -37.308  67.760  18.649  0.00  0.00    +0.277 C 
ENDBRANCH  21  26
BRANCH  20  28
ATOM     28  O   LIG    1      -34.167  65.923  19.272  0.00  0.00    -0.484 OA
BRANCH  28  29
ATOM     29  C   LIG    1      -33.582  66.875  18.420  0.00  0.00    +0.264 C 
BRANCH  29  33
ATOM     30  C   LIG    1      -29.304  67.197  18.941  0.00  0.00    +0.120 A 
ATOM     31  C   LIG    1      -30.043  68.308  18.528  0.00  0.00    +0.046 A 
ATOM     32  C   LIG    1      -31.438  68.227  18.410  0.00  0.00    +0.010 A 
ATOM     33  C   LIG    1      -32.107  67.028  18.694  0.00  0.00    -0.010 A 
ATOM     34  C   LIG    1      -31.360  65.954  19.185  0.00  0.00    +0.010 A 
ATOM     35  C   LIG    1      -29.977  66.040  19.318  0.00  0.00    +0.046 A 
BRANCH  30  37
ATOM     36  C   LIG    1      -27.237  66.414  18.127  0.00  0.00    +0.277 C 
ATOM     37  O   LIG    1      -27.940  67.329  18.971  0.00  0.00    -0.495 OA
ENDBRANCH  30  37
ENDBRANCH  29  33
ENDBRANCH  28  29
ENDBRANCH  20  28
ENDBRANCH   1  23
TORSDOF 9
ENDMDL
MODEL 6
REMARK VINA RESULT:      -6.1      6.851      9.229
REMARK  Name = pdb/CHEMBL3673438.pdb
REMARK                            x       y       z     vdW  Elec       q    Type
REMARK                         _______ _______ _______ _____ _____    ______ ____
ROOT
ATOM      1  C   LIG    1      -28.760  74.356  32.697  0.00  0.00    +0.144 C 
ENDROOT
BRANCH   1   2
ATOM      2  N   LIG    1      -27.925  75.441  32.118  0.00  0.00    -0.286 N 
ATOM      3  C   LIG    1      -26.601  75.464  31.720  0.00  0.00    +0.056 A 
ATOM      4  C   LIG    1      -25.593  74.542  31.495  0.00  0.00    +0.026 A 
ATOM      5  C   LIG    1      -24.273  74.975  31.371  0.00  0.00    +0.010 A 
ATOM      6  C   LIG    1      -23.937  76.320  31.204  0.00  0.00    -0.016 A 
ATOM      7  C   LIG    1      -25.009  77.237  31.215  0.00  0.00    +0.035 A 
ATOM      8  C   LIG    1      -26.335  76.819  31.508  0.00  0.00    +0.073 A 
ATOM      9  N   LIG    1      -27.461  77.570  31.562  0.00  0.00    -0.204 NA
ATOM     10  C   LIG    1      -28.446  76.701  31.877  0.00  0.00    +0.227 C 
BRANCH   6  11
ATOM     11  C   LIG    1      -22.521  76.705  30.938  0.00  0.00    -0.015 A 
ATOM     12  C   LIG    1      -21.750  77.390  31.882  0.00  0.00    +0.028 A 
ATOM     13  C   LIG    1      -20.455  77.783  31.562  0.00  0.00    +0.111 A 
ATOM     14  N   LIG    1      -19.863  77.549  30.375  0.00  0.00    -0.263 NA
ATOM     15  C   LIG    1      -20.597  76.883  29.470  0.00  0.00    +0.111 A 
ATOM     16  C   LIG    1      -21.892  76.445  29.704  0.00  0.00    +0.028 A 
ENDBRANCH   6  11
BRANCH  10  17
ATOM     17  N   LIG    1      -29.720  77.036  31.937  0.00  0.00    -0.289 NA
ATOM     18  H   LIG    1      -29.943  77.712  32.663  0.00  0.00    +0.122 HD
ATOM     19  H   LIG    1      -30.213  77.273  31.067  0.00  0.00    +0.122 HD
ENDBRANCH  10  17
ENDBRANCH   1   2
BRANCH   1  23
ATOM     20  C   LIG    1      -30.311  71.241  29.999  0.00  0.00    +0.162 A 
ATOM     21  C   LIG    1      -29.228  70.963  30.832  0.00  0.00    +0.162 A 
ATOM     22  C   LIG    1      -28.761  72.028  31.634  0.00  0.00    +0.054 A 
ATOM     23  C   LIG    1      -29.349  73.287  31.783  0.00  0.00    -0.026 A 
ATOM     24  C   LIG    1      -30.420  73.547  30.934  0.00  0.00    +0.009 A 
ATOM     25  C   LIG    1      -30.872  72.543  30.060  0.00  0.00    +0.050 A 
BRANCH  21  26
ATOM     26  O   LIG    1      -28.715  69.768  31.277  0.00  0.00    -0.491 OA
ATOM     27  C   LIG    1      -29.371  68.883  32.180  0.00  0.00    +0.277 C 
ENDBRANCH  21  26
BRANCH  20  28
ATOM     28  O   LIG    1      -31.023  70.514  29.096  0.00  0.00    -0.484 OA
BRANCH  28  29
ATOM     29  C   LIG    1      -32.244  69.891  29.402  0.00  0.00    +0.264 C 
BRANCH  29  33
ATOM     30  C   LIG    1      -34.940  70.601  26.099  0.00  0.00    +0.120 A 
ATOM     31  C   LIG    1      -34.210  69.412  26.161  0.00  0.00    +0.046 A 
ATOM     32  C   LIG    1      -33.375  69.150  27.257  0.00  0.00    +0.010 A 
ATOM     33  C   LIG    1      -33.254  70.081  28.297  0.00  0.00    -0.010 A 
ATOM     34  C   LIG    1      -34.055  71.225  28.258  0.00  0.00    +0.010 A 
ATOM     35  C   LIG    1      -34.897  71.478  27.179  0.00  0.00    +0.046 A 
BRANCH  30  37
ATOM     36  C   LIG    1      -37.093  70.639  25.143  0.00  0.00    +0.277 C 
ATOM     37  O   LIG    1      -35.685  70.820  24.970  0.00  0.00    -0.495 OA
ENDBRANCH  30  37
ENDBRANCH  29  33
ENDBRANCH  28  29
ENDBRANCH  20  28
ENDBRANCH   1  23
TORSDOF 9
ENDMDL
MODEL 7
REMARK VINA RESULT:      -6.1     15.485     18.574
REMARK  Name = pdb/CHEMBL3673438.pdb
REMARK                            x       y       z     vdW  Elec       q    Type
REMARK                         _______ _______ _______ _____ _____    ______ ____
ROOT
ATOM      1  C   LIG    1      -28.992  77.169  10.464  0.00  0.00    +0.144 C 
ENDROOT
BRANCH   1   2
ATOM      2  N   LIG    1      -30.396  77.657  10.478  0.00  0.00    -0.286 N 
ATOM      3  C   LIG    1      -30.924  78.928  10.343  0.00  0.00    +0.056 A 
ATOM      4  C   LIG    1      -30.472  80.180   9.961  0.00  0.00    +0.026 A 
ATOM      5  C   LIG    1      -31.248  81.307  10.228  0.00  0.00    +0.010 A 
ATOM      6  C   LIG    1      -32.582  81.223  10.633  0.00  0.00    -0.016 A 
ATOM      7  C   LIG    1      -33.099  79.921  10.806  0.00  0.00    +0.035 A 
ATOM      8  C   LIG    1      -32.267  78.775  10.698  0.00  0.00    +0.073 A 
ATOM      9  N   LIG    1      -32.607  77.472  10.841  0.00  0.00    -0.204 NA
ATOM     10  C   LIG    1      -31.460  76.787  10.641  0.00  0.00    +0.227 C 
BRANCH   6  11
ATOM     11  C   LIG    1      -33.398  82.463  10.768  0.00  0.00    -0.015 A 
ATOM     12  C   LIG    1      -32.812  83.717  10.967  0.00  0.00    +0.028 A 
ATOM     13  C   LIG    1      -33.619  84.834  11.151  0.00  0.00    +0.111 A 
ATOM     14  N   LIG    1      -34.966  84.806  11.154  0.00  0.00    -0.263 NA
ATOM     15  C   LIG    1      -35.531  83.605  10.953  0.00  0.00    +0.111 A 
ATOM     16  C   LIG    1      -34.807  82.439  10.752  0.00  0.00    +0.028 A 
ENDBRANCH   6  11
BRANCH  10  17
ATOM     17  N   LIG    1      -31.395  75.470  10.609  0.00  0.00    -0.289 NA
ATOM     18  H   LIG    1      -30.515  75.102  10.256  0.00  0.00    +0.122 HD
ATOM     19  H   LIG    1      -31.698  74.937  11.433  0.00  0.00    +0.122 HD
ENDBRANCH  10  17
ENDBRANCH   1   2
BRANCH   1  23
ATOM     20  C   LIG    1      -26.580  77.701  14.109  0.00  0.00    +0.162 A 
ATOM     21  C   LIG    1      -27.324  76.536  13.932  0.00  0.00    +0.162 A 
ATOM     22  C   LIG    1      -28.107  76.460  12.758  0.00  0.00    +0.054 A 
ATOM     23  C   LIG    1      -28.112  77.366  11.694  0.00  0.00    -0.026 A 
ATOM     24  C   LIG    1      -27.373  78.527  11.897  0.00  0.00    +0.009 A 
ATOM     25  C   LIG    1      -26.639  78.683  13.087  0.00  0.00    +0.050 A 
BRANCH  21  26
ATOM     26  O   LIG    1      -27.207  75.294  14.510  0.00  0.00    -0.491 OA
ATOM     27  C   LIG    1      -27.127  74.064  13.795  0.00  0.00    +0.277 C 
ENDBRANCH  21  26
BRANCH  20  28
ATOM     28  O   LIG    1      -25.738  78.150  15.080  0.00  0.00    -0.484 OA
BRANCH  28  29
ATOM     29  C   LIG    1      -25.357  79.496  15.204  0.00  0.00    +0.264 C 
BRANCH  29  33
ATOM     30  C   LIG    1      -21.133  79.804  16.067  0.00  0.00    +0.120 A 
ATOM     31  C   LIG    1      -21.636  78.662  15.441  0.00  0.00    +0.046 A 
ATOM     32  C   LIG    1      -22.996  78.577  15.108  0.00  0.00    +0.010 A 
ATOM     33  C   LIG    1      -23.868  79.632  15.408  0.00  0.00    -0.010 A 
ATOM     34  C   LIG    1      -23.331  80.799  15.958  0.00  0.00    +0.010 A 
ATOM     35  C   LIG    1      -21.978  80.889  16.273  0.00  0.00    +0.046 A 
BRANCH  30  37
ATOM     36  C   LIG    1      -19.144  78.547  16.192  0.00  0.00    +0.277 C 
ATOM     37  O   LIG    1      -19.810  79.792  16.422  0.00  0.00    -0.495 OA
ENDBRANCH  30  37
ENDBRANCH  29  33
ENDBRANCH  28  29
ENDBRANCH  20  28
ENDBRANCH   1  23
TORSDOF 9
ENDMDL
MODEL 8
REMARK VINA RESULT:      -6.0      6.271      8.673
REMARK  Name = pdb/CHEMBL3673438.pdb
REMARK                            x       y       z     vdW  Elec       q    Type
REMARK                         _______ _______ _______ _____ _____    ______ ____
ROOT
ATOM      1  C   LIG    1      -38.994  66.788  22.577  0.00  0.00    +0.144 C 
ENDROOT
BRANCH   1   2
ATOM      2  N   LIG    1      -39.867  67.854  22.017  0.00  0.00    -0.286 N 
ATOM      3  C   LIG    1      -40.026  69.183  22.365  0.00  0.00    +0.056 A 
ATOM      4  C   LIG    1      -39.376  70.108  23.162  0.00  0.00    +0.026 A 
ATOM      5  C   LIG    1      -40.011  71.306  23.492  0.00  0.00    +0.010 A 
ATOM      6  C   LIG    1      -41.172  71.741  22.853  0.00  0.00    -0.016 A 
ATOM      7  C   LIG    1      -41.706  70.877  21.874  0.00  0.00    +0.035 A 
ATOM      8  C   LIG    1      -41.160  69.585  21.652  0.00  0.00    +0.073 A 
ATOM      9  N   LIG    1      -41.558  68.643  20.763  0.00  0.00    -0.204 NA
ATOM     10  C   LIG    1      -40.715  67.605  20.952  0.00  0.00    +0.227 C 
BRANCH   6  11
ATOM     11  C   LIG    1      -41.725  73.093  23.153  0.00  0.00    -0.015 A 
ATOM     12  C   LIG    1      -42.987  73.494  22.704  0.00  0.00    +0.028 A 
ATOM     13  C   LIG    1      -43.431  74.787  22.956  0.00  0.00    +0.111 A 
ATOM     14  N   LIG    1      -42.719  75.718  23.621  0.00  0.00    -0.263 NA
ATOM     15  C   LIG    1      -41.511  75.333  24.062  0.00  0.00    +0.111 A 
ATOM     16  C   LIG    1      -40.990  74.062  23.865  0.00  0.00    +0.028 A 
ENDBRANCH   6  11
BRANCH  10  17
ATOM     17  N   LIG    1      -40.722  66.517  20.207  0.00  0.00    -0.289 NA
ATOM     18  H   LIG    1      -39.802  66.214  19.897  0.00  0.00    +0.122 HD
ATOM     19  H   LIG    1      -41.277  65.708  20.512  0.00  0.00    +0.122 HD
ENDBRANCH  10  17
ENDBRANCH   1   2
BRANCH   1  23
ATOM     20  C   LIG    1      -34.664  67.062  21.827  0.00  0.00    +0.162 A 
ATOM     21  C   LIG    1      -35.221  67.712  22.927  0.00  0.00    +0.162 A 
ATOM     22  C   LIG    1      -36.623  67.614  23.073  0.00  0.00    +0.054 A 
ATOM     23  C   LIG    1      -37.492  66.827  22.313  0.00  0.00    -0.026 A 
ATOM     24  C   LIG    1      -36.917  66.197  21.214  0.00  0.00    +0.009 A 
ATOM     25  C   LIG    1      -35.537  66.330  20.982  0.00  0.00    +0.050 A 
BRANCH  21  26
ATOM     26  O   LIG    1      -34.650  68.168  24.091  0.00  0.00    -0.491 OA
ATOM     27  C   LIG    1      -35.359  68.777  25.166  0.00  0.00    +0.277 C 
ENDBRANCH  21  26
BRANCH  20  28
ATOM     28  O   LIG    1      -33.398  66.932  21.344  0.00  0.00    -0.484 OA
BRANCH  28  29
ATOM     29  C   LIG    1      -33.057  66.040  20.314  0.00  0.00    +0.264 C 
BRANCH  29  33
ATOM     30  C   LIG    1      -29.713  67.734  18.160  0.00  0.00    +0.120 A 
ATOM     31  C   LIG    1      -29.543  66.568  18.909  0.00  0.00    +0.046 A 
ATOM     32  C   LIG    1      -30.635  65.981  19.566  0.00  0.00    +0.010 A 
ATOM     33  C   LIG    1      -31.907  66.564  19.488  0.00  0.00    -0.010 A 
ATOM     34  C   LIG    1      -32.075  67.681  18.667  0.00  0.00    +0.010 A 
ATOM     35  C   LIG    1      -30.994  68.254  18.002  0.00  0.00    +0.046 A 
BRANCH  30  37
ATOM     36  C   LIG    1      -27.625  68.754  18.544  0.00  0.00    +0.277 C 
ATOM     37  O   LIG    1      -28.593  68.287  17.600  0.00  0.00    -0.495 OA
ENDBRANCH  30  37
ENDBRANCH  29  33
ENDBRANCH  28  29
ENDBRANCH  20  28
ENDBRANCH   1  23
TORSDOF 9
ENDMDL
MODEL 9
REMARK VINA RESULT:      -6.0      5.386      6.676
REMARK  Name = pdb/CHEMBL3673438.pdb
REMARK                            x       y       z     vdW  Elec       q    Type
REMARK                         _______ _______ _______ _____ _____    ______ ____
ROOT
ATOM      1  C   LIG    1      -40.242  69.394  24.120  0.00  0.00    +0.144 C 
ENDROOT
BRANCH   1   2
ATOM      2  N   LIG    1      -40.722  70.723  23.659  0.00  0.00    -0.286 N 
ATOM      3  C   LIG    1      -40.216  71.996  23.851  0.00  0.00    +0.056 A 
ATOM      4  C   LIG    1      -39.045  72.562  24.325  0.00  0.00    +0.026 A 
ATOM      5  C   LIG    1      -39.011  73.920  24.638  0.00  0.00    +0.010 A 
ATOM      6  C   LIG    1      -40.022  74.805  24.259  0.00  0.00    -0.016 A 
ATOM      7  C   LIG    1      -41.119  74.241  23.574  0.00  0.00    +0.035 A 
ATOM      8  C   LIG    1      -41.238  72.837  23.400  0.00  0.00    +0.073 A 
ATOM      9  N   LIG    1      -42.223  72.146  22.777  0.00  0.00    -0.204 NA
ATOM     10  C   LIG    1      -41.864  70.849  22.887  0.00  0.00    +0.227 C 
BRANCH   6  11
ATOM     11  C   LIG    1      -39.860  76.268  24.503  0.00  0.00    -0.015 A 
ATOM     12  C   LIG    1      -39.543  76.777  25.766  0.00  0.00    +0.028 A 
ATOM     13  C   LIG    1      -39.466  78.152  25.956  0.00  0.00    +0.111 A 
ATOM     14  N   LIG    1      -39.681  79.065  24.988  0.00  0.00    -0.263 NA
ATOM     15  C   LIG    1      -39.976  78.578  23.773  0.00  0.00    +0.111 A 
ATOM     16  C   LIG    1      -40.066  77.224  23.489  0.00  0.00    +0.028 A 
ENDBRANCH   6  11
BRANCH  10  17
ATOM     17  N   LIG    1      -42.529  69.860  22.323  0.00  0.00    -0.289 NA
ATOM     18  H   LIG    1      -43.277  70.157  21.701  0.00  0.00    +0.122 HD
ATOM     19  H   LIG    1      -42.005  69.084  21.900  0.00  0.00    +0.122 HD
ENDBRANCH  10  17
ENDBRANCH   1   2
BRANCH   1  23
ATOM     20  C   LIG    1      -36.066  68.243  23.329  0.00  0.00    +0.162 A 
ATOM     21  C   LIG    1      -36.539  68.284  24.639  0.00  0.00    +0.162 A 
ATOM     22  C   LIG    1      -37.876  68.707  24.813  0.00  0.00    +0.054 A 
ATOM     23  C   LIG    1      -38.814  68.958  23.808  0.00  0.00    -0.026 A 
ATOM     24  C   LIG    1      -38.317  68.923  22.509  0.00  0.00    +0.009 A 
ATOM     25  C   LIG    1      -36.970  68.585  22.290  0.00  0.00    +0.050 A 
BRANCH  21  26
ATOM     26  O   LIG    1      -36.073  67.687  25.787  0.00  0.00    -0.491 OA
ATOM     27  C   LIG    1      -35.721  66.312  25.907  0.00  0.00    +0.277 C 
ENDBRANCH  21  26
BRANCH  20  28
ATOM     28  O   LIG    1      -34.873  67.914  22.761  0.00  0.00    -0.484 OA
BRANCH  28  29
ATOM     29  C   LIG    1      -34.564  66.617  22.321  0.00  0.00    +0.264 C 
BRANCH  29  33
ATOM     30  C   LIG    1      -33.732  66.838  18.085  0.00  0.00    +0.120 A 
ATOM     31  C   LIG    1      -32.680  66.764  19.000  0.00  0.00    +0.046 A 
ATOM     32  C   LIG    1      -32.942  66.636  20.372  0.00  0.00    +0.010 A 
ATOM     33  C   LIG    1      -34.261  66.593  20.843  0.00  0.00    -0.010 A 
ATOM     34  C   LIG    1      -35.298  66.584  19.907  0.00  0.00    +0.010 A 
ATOM     35  C   LIG    1      -35.038  66.694  18.544  0.00  0.00    +0.046 A 
BRANCH  30  37
ATOM     36  C   LIG    1      -32.321  67.935  16.550  0.00  0.00    +0.277 C 
ATOM     37  O   LIG    1      -33.405  67.027  16.768  0.00  0.00    -0.495 OA
ENDBRANCH  30  37
ENDBRANCH  29  33
ENDBRANCH  28  29
ENDBRANCH  20  28
ENDBRANCH   1  23
TORSDOF 9
ENDMDL
