MODEL 1
REMARK VINA RESULT:      -5.1      0.000      0.000
REMARK  Name = pdb/CHEMBL3675965.pdb
REMARK                            x       y       z     vdW  Elec       q    Type
REMARK                         _______ _______ _______ _____ _____    ______ ____
ROOT
ATOM      1  C   LIG    1      -20.776  79.376  35.679  0.00  0.00    +0.109 C 
ATOM      2  N   LIG    1      -21.918  80.151  35.096  0.00  0.00    -0.308 N 
ATOM      3  C   LIG    1      -21.933  81.502  35.710  0.00  0.00    +0.107 C 
ATOM      4  C   LIG    1      -21.072  81.398  36.948  0.00  0.00    +0.021 C 
ATOM      5  C   LIG    1      -19.999  80.457  36.467  0.00  0.00    +0.029 C 
ENDROOT
BRANCH   2   6
ATOM      6  C   LIG    1      -23.168  79.612  34.767  0.00  0.00    +0.126 A 
ATOM      7  N   LIG    1      -23.380  78.925  33.664  0.00  0.00    -0.212 NA
ATOM      8  C   LIG    1      -24.611  78.330  33.492  0.00  0.00    +0.170 A 
ATOM      9  C   LIG    1      -25.175  77.599  32.456  0.00  0.00    +0.100 A 
ATOM     10  C   LIG    1      -26.423  77.173  32.957  0.00  0.00    +0.150 A 
ATOM     11  N   LIG    1      -26.684  77.639  34.176  0.00  0.00    -0.173 NA
ATOM     12  N   LIG    1      -25.595  78.378  34.485  0.00  0.00    -0.221 N 
ATOM     13  C   LIG    1      -25.416  79.152  35.614  0.00  0.00    +0.118 A 
ATOM     14  C   LIG    1      -24.277  79.827  35.782  0.00  0.00    +0.063 A 
BRANCH   9  15
ATOM     15  C   LIG    1      -24.659  77.298  31.135  0.00  0.00    +0.249 C 
ATOM     16  N   LIG    1      -23.293  77.446  31.012  0.00  0.00    -0.308 N 
ATOM     17  H   LIG    1      -22.775  77.696  31.842  0.00  0.00    +0.149 HD
ATOM     18  O   LIG    1      -25.399  77.016  30.205  0.00  0.00    -0.270 OA
BRANCH  16  19
ATOM     19  C   LIG    1      -22.611  77.300  29.772  0.00  0.00    +0.073 C 
ATOM     20  C   LIG    1      -21.834  76.045  29.493  0.00  0.00    +0.024 C 
ATOM     21  C   LIG    1      -21.110  77.341  29.705  0.00  0.00    +0.024 C 
ENDBRANCH  16  19
ENDBRANCH   9  15
ENDBRANCH   2   6
BRANCH   1  23
ATOM     22  C   LIG    1      -20.216  77.256  34.212  0.00  0.00    +0.126 A 
ATOM     23  C   LIG    1      -19.945  78.574  34.662  0.00  0.00    +0.017 A 
ATOM     24  C   LIG    1      -18.883  79.239  34.019  0.00  0.00    +0.047 A 
ATOM     25  C   LIG    1      -18.108  78.637  33.035  0.00  0.00    +0.124 A 
ATOM     26  F   LIG    1      -17.124  79.335  32.452  0.00  0.00    -0.205 F 
ATOM     27  C   LIG    1      -18.347  77.336  32.648  0.00  0.00    +0.042 A 
ATOM     28  C   LIG    1      -19.395  76.641  33.245  0.00  0.00    +0.049 A 
BRANCH  22  29
ATOM     29  O   LIG    1      -21.278  76.583  34.752  0.00  0.00    -0.489 OA
BRANCH  29  30
ATOM     30  C   LIG    1      -21.025  75.685  35.836  0.00  0.00    +0.257 C 
BRANCH  30  31
ATOM     31  C   LIG    1      -22.246  75.685  36.754  0.00  0.00    +0.200 C 
BRANCH  31  33
ATOM     32  C   LIG    1      -24.330  75.227  35.755  0.00  0.00    +0.194 C 
ATOM     33  O   LIG    1      -23.372  76.232  36.067  0.00  0.00    -0.380 OA
ENDBRANCH  31  33
ENDBRANCH  30  31
ENDBRANCH  29  30
ENDBRANCH  22  29
ENDBRANCH   1  23
TORSDOF 8
ENDMDL
MODEL 2
REMARK VINA RESULT:      -5.0     14.609     17.626
REMARK  Name = pdb/CHEMBL3675965.pdb
REMARK                            x       y       z     vdW  Elec       q    Type
REMARK                         _______ _______ _______ _____ _____    ______ ____
ROOT
ATOM      1  C   LIG    1      -37.665  76.494  26.996  0.00  0.00    +0.109 C 
ATOM      2  N   LIG    1      -38.030  76.350  25.550  0.00  0.00    -0.308 N 
ATOM      3  C   LIG    1      -38.595  77.637  25.075  0.00  0.00    +0.107 C 
ATOM      4  C   LIG    1      -38.953  78.411  26.324  0.00  0.00    +0.021 C 
ATOM      5  C   LIG    1      -37.823  78.014  27.236  0.00  0.00    +0.029 C 
ENDROOT
BRANCH   2   6
ATOM      6  C   LIG    1      -38.564  75.192  24.970  0.00  0.00    +0.126 A 
ATOM      7  N   LIG    1      -37.974  74.019  25.046  0.00  0.00    -0.212 NA
ATOM      8  C   LIG    1      -38.641  72.918  24.551  0.00  0.00    +0.170 A 
ATOM      9  C   LIG    1      -38.300  71.579  24.426  0.00  0.00    +0.100 A 
ATOM     10  C   LIG    1      -39.473  70.955  23.952  0.00  0.00    +0.150 A 
ATOM     11  N   LIG    1      -40.465  71.812  23.720  0.00  0.00    -0.173 NA
ATOM     12  N   LIG    1      -39.943  73.015  24.047  0.00  0.00    -0.221 N 
ATOM     13  C   LIG    1      -40.547  74.246  23.895  0.00  0.00    +0.118 A 
ATOM     14  C   LIG    1      -39.903  75.353  24.270  0.00  0.00    +0.063 A 
BRANCH   9  15
ATOM     15  C   LIG    1      -37.049  70.903  24.702  0.00  0.00    +0.249 C 
ATOM     16  N   LIG    1      -36.391  71.362  25.824  0.00  0.00    -0.308 N 
ATOM     17  H   LIG    1      -36.848  72.077  26.372  0.00  0.00    +0.149 HD
ATOM     18  O   LIG    1      -36.595  70.056  23.948  0.00  0.00    -0.270 OA
BRANCH  16  19
ATOM     19  C   LIG    1      -35.099  70.901  26.203  0.00  0.00    +0.073 C 
ATOM     20  C   LIG    1      -34.937  69.511  26.749  0.00  0.00    +0.024 C 
ATOM     21  C   LIG    1      -34.745  70.694  27.649  0.00  0.00    +0.024 C 
ENDBRANCH  16  19
ENDBRANCH   9  15
ENDBRANCH   2   6
BRANCH   1  23
ATOM     22  C   LIG    1      -36.065  74.590  27.877  0.00  0.00    +0.126 A 
ATOM     23  C   LIG    1      -36.300  75.901  27.387  0.00  0.00    +0.017 A 
ATOM     24  C   LIG    1      -35.154  76.677  27.128  0.00  0.00    +0.047 A 
ATOM     25  C   LIG    1      -33.865  76.218  27.376  0.00  0.00    +0.124 A 
ATOM     26  F   LIG    1      -32.819  77.004  27.088  0.00  0.00    -0.205 F 
ATOM     27  C   LIG    1      -33.655  74.963  27.905  0.00  0.00    +0.042 A 
ATOM     28  C   LIG    1      -34.756  74.153  28.166  0.00  0.00    +0.049 A 
BRANCH  22  29
ATOM     29  O   LIG    1      -37.136  73.765  28.085  0.00  0.00    -0.489 OA
BRANCH  29  30
ATOM     30  C   LIG    1      -37.343  73.250  29.403  0.00  0.00    +0.257 C 
BRANCH  30  31
ATOM     31  C   LIG    1      -37.952  71.854  29.284  0.00  0.00    +0.200 C 
BRANCH  31  33
ATOM     32  C   LIG    1      -39.797  71.513  27.859  0.00  0.00    +0.194 C 
ATOM     33  O   LIG    1      -38.380  71.623  27.942  0.00  0.00    -0.380 OA
ENDBRANCH  31  33
ENDBRANCH  30  31
ENDBRANCH  29  30
ENDBRANCH  22  29
ENDBRANCH   1  23
TORSDOF 8
ENDMDL
MODEL 3
REMARK VINA RESULT:      -5.0     14.052     17.273
REMARK  Name = pdb/CHEMBL3675965.pdb
REMARK                            x       y       z     vdW  Elec       q    Type
REMARK                         _______ _______ _______ _____ _____    ______ ____
ROOT
ATOM      1  C   LIG    1      -37.399  76.097  27.125  0.00  0.00    +0.109 C 
ATOM      2  N   LIG    1      -37.677  75.965  25.658  0.00  0.00    -0.308 N 
ATOM      3  C   LIG    1      -38.063  77.296  25.129  0.00  0.00    +0.107 C 
ATOM      4  C   LIG    1      -38.419  78.130  26.339  0.00  0.00    +0.021 C 
ATOM      5  C   LIG    1      -37.405  77.631  27.334  0.00  0.00    +0.029 C 
ENDROOT
BRANCH   2   6
ATOM      6  C   LIG    1      -38.294  74.862  25.055  0.00  0.00    +0.126 A 
ATOM      7  N   LIG    1      -37.757  73.660  25.049  0.00  0.00    -0.212 NA
ATOM      8  C   LIG    1      -38.500  72.616  24.541  0.00  0.00    +0.170 A 
ATOM      9  C   LIG    1      -38.229  71.270  24.339  0.00  0.00    +0.100 A 
ATOM     10  C   LIG    1      -39.453  70.722  23.899  0.00  0.00    +0.150 A 
ATOM     11  N   LIG    1      -40.413  71.633  23.758  0.00  0.00    -0.173 NA
ATOM     12  N   LIG    1      -39.819  72.794  24.110  0.00  0.00    -0.221 N 
ATOM     13  C   LIG    1      -40.371  74.058  24.044  0.00  0.00    +0.118 A 
ATOM     14  C   LIG    1      -39.657  75.115  24.434  0.00  0.00    +0.063 A 
BRANCH   9  15
ATOM     15  C   LIG    1      -37.000  70.526  24.519  0.00  0.00    +0.249 C 
ATOM     16  N   LIG    1      -36.224  70.957  25.576  0.00  0.00    -0.308 N 
ATOM     17  H   LIG    1      -36.593  71.702  26.150  0.00  0.00    +0.149 HD
ATOM     18  O   LIG    1      -36.659  69.647  23.742  0.00  0.00    -0.270 OA
BRANCH  16  19
ATOM     19  C   LIG    1      -34.933  70.426  25.852  0.00  0.00    +0.073 C 
ATOM     20  C   LIG    1      -34.806  69.144  26.624  0.00  0.00    +0.024 C 
ATOM     21  C   LIG    1      -34.375  70.437  27.247  0.00  0.00    +0.024 C 
ENDBRANCH  16  19
ENDBRANCH   9  15
ENDBRANCH   2   6
BRANCH   1  23
ATOM     22  C   LIG    1      -34.803  75.838  27.516  0.00  0.00    +0.126 A 
ATOM     23  C   LIG    1      -36.138  75.367  27.618  0.00  0.00    +0.017 A 
ATOM     24  C   LIG    1      -36.317  74.176  28.347  0.00  0.00    +0.047 A 
ATOM     25  C   LIG    1      -35.257  73.467  28.900  0.00  0.00    +0.124 A 
ATOM     26  F   LIG    1      -35.503  72.350  29.597  0.00  0.00    -0.205 F 
ATOM     27  C   LIG    1      -33.960  73.907  28.744  0.00  0.00    +0.042 A 
ATOM     28  C   LIG    1      -33.732  75.087  28.043  0.00  0.00    +0.049 A 
BRANCH  22  29
ATOM     29  O   LIG    1      -34.572  77.025  26.877  0.00  0.00    -0.489 OA
BRANCH  29  30
ATOM     30  C   LIG    1      -33.244  77.555  26.900  0.00  0.00    +0.257 C 
BRANCH  30  31
ATOM     31  C   LIG    1      -33.258  78.851  27.709  0.00  0.00    +0.200 C 
BRANCH  31  33
ATOM     32  C   LIG    1      -34.746  80.675  27.613  0.00  0.00    +0.194 C 
ATOM     33  O   LIG    1      -33.767  79.918  26.909  0.00  0.00    -0.380 OA
ENDBRANCH  31  33
ENDBRANCH  30  31
ENDBRANCH  29  30
ENDBRANCH  22  29
ENDBRANCH   1  23
TORSDOF 8
ENDMDL
MODEL 4
REMARK VINA RESULT:      -5.0     13.515     17.488
REMARK  Name = pdb/CHEMBL3675965.pdb
REMARK                            x       y       z     vdW  Elec       q    Type
REMARK                         _______ _______ _______ _____ _____    ______ ____
ROOT
ATOM      1  C   LIG    1      -38.869  77.642  24.700  0.00  0.00    +0.109 C 
ATOM      2  N   LIG    1      -39.495  78.246  25.921  0.00  0.00    -0.308 N 
ATOM      3  C   LIG    1      -40.323  79.404  25.503  0.00  0.00    +0.107 C 
ATOM      4  C   LIG    1      -39.868  79.748  24.102  0.00  0.00    +0.021 C 
ATOM      5  C   LIG    1      -39.598  78.374  23.548  0.00  0.00    +0.029 C 
ENDROOT
BRANCH   2   6
ATOM      6  C   LIG    1      -38.871  78.355  27.170  0.00  0.00    +0.126 A 
ATOM      7  N   LIG    1      -37.647  78.815  27.318  0.00  0.00    -0.212 NA
ATOM      8  C   LIG    1      -37.170  79.001  28.599  0.00  0.00    +0.170 A 
ATOM      9  C   LIG    1      -35.943  79.408  29.103  0.00  0.00    +0.100 A 
ATOM     10  C   LIG    1      -36.146  79.508  30.496  0.00  0.00    +0.150 A 
ATOM     11  N   LIG    1      -37.366  79.134  30.875  0.00  0.00    -0.173 NA
ATOM     12  N   LIG    1      -37.976  78.786  29.721  0.00  0.00    -0.221 N 
ATOM     13  C   LIG    1      -39.236  78.238  29.586  0.00  0.00    +0.118 A 
ATOM     14  C   LIG    1      -39.707  77.948  28.372  0.00  0.00    +0.063 A 
BRANCH   9  15
ATOM     15  C   LIG    1      -34.697  79.688  28.420  0.00  0.00    +0.249 C 
ATOM     16  N   LIG    1      -33.879  78.589  28.259  0.00  0.00    -0.308 N 
ATOM     17  H   LIG    1      -34.229  77.697  28.577  0.00  0.00    +0.149 HD
ATOM     18  O   LIG    1      -34.382  80.823  28.094  0.00  0.00    -0.270 OA
BRANCH  16  19
ATOM     19  C   LIG    1      -32.570  78.676  27.708  0.00  0.00    +0.073 C 
ATOM     20  C   LIG    1      -32.396  78.841  26.225  0.00  0.00    +0.024 C 
ATOM     21  C   LIG    1      -31.999  77.555  26.886  0.00  0.00    +0.024 C 
ENDBRANCH  16  19
ENDBRANCH   9  15
ENDBRANCH   2   6
BRANCH   1  23
ATOM     22  C   LIG    1      -38.024  75.216  25.300  0.00  0.00    +0.126 A 
ATOM     23  C   LIG    1      -38.910  76.105  24.639  0.00  0.00    +0.017 A 
ATOM     24  C   LIG    1      -39.993  75.508  23.965  0.00  0.00    +0.047 A 
ATOM     25  C   LIG    1      -40.171  74.131  23.902  0.00  0.00    +0.124 A 
ATOM     26  F   LIG    1      -41.235  73.632  23.258  0.00  0.00    -0.205 F 
ATOM     27  C   LIG    1      -39.270  73.277  24.502  0.00  0.00    +0.042 A 
ATOM     28  C   LIG    1      -38.190  73.820  25.192  0.00  0.00    +0.049 A 
BRANCH  22  29
ATOM     29  O   LIG    1      -36.990  75.739  26.027  0.00  0.00    -0.489 OA
BRANCH  29  30
ATOM     30  C   LIG    1      -36.761  75.222  27.341  0.00  0.00    +0.257 C 
BRANCH  30  31
ATOM     31  C   LIG    1      -35.284  75.413  27.682  0.00  0.00    +0.200 C 
BRANCH  31  33
ATOM     32  C   LIG    1      -36.113  75.615  29.878  0.00  0.00    +0.194 C 
ATOM     33  O   LIG    1      -35.158  76.087  28.933  0.00  0.00    -0.380 OA
ENDBRANCH  31  33
ENDBRANCH  30  31
ENDBRANCH  29  30
ENDBRANCH  22  29
ENDBRANCH   1  23
TORSDOF 8
ENDMDL
MODEL 5
REMARK VINA RESULT:      -4.9     18.497     21.218
REMARK  Name = pdb/CHEMBL3675965.pdb
REMARK                            x       y       z     vdW  Elec       q    Type
REMARK                         _______ _______ _______ _____ _____    ______ ____
ROOT
ATOM      1  C   LIG    1      -40.154  69.929  23.668  0.00  0.00    +0.109 C 
ATOM      2  N   LIG    1      -39.743  69.513  22.288  0.00  0.00    -0.308 N 
ATOM      3  C   LIG    1      -40.921  68.931  21.599  0.00  0.00    +0.107 C 
ATOM      4  C   LIG    1      -41.919  68.618  22.692  0.00  0.00    +0.021 C 
ATOM      5  C   LIG    1      -41.693  69.780  23.622  0.00  0.00    +0.029 C 
ENDROOT
BRANCH   2   6
ATOM      6  C   LIG    1      -38.501  68.957  21.955  0.00  0.00    +0.126 A 
ATOM      7  N   LIG    1      -37.574  68.693  22.852  0.00  0.00    -0.212 NA
ATOM      8  C   LIG    1      -36.436  68.032  22.440  0.00  0.00    +0.170 A 
ATOM      9  C   LIG    1      -35.272  67.653  23.092  0.00  0.00    +0.100 A 
ATOM     10  C   LIG    1      -34.555  66.903  22.136  0.00  0.00    +0.150 A 
ATOM     11  N   LIG    1      -35.158  66.854  20.950  0.00  0.00    -0.173 NA
ATOM     12  N   LIG    1      -36.286  67.578  21.126  0.00  0.00    -0.221 N 
ATOM     13  C   LIG    1      -37.214  67.908  20.159  0.00  0.00    +0.118 A 
ATOM     14  C   LIG    1      -38.287  68.631  20.487  0.00  0.00    +0.063 A 
BRANCH   9  15
ATOM     15  C   LIG    1      -34.825  67.926  24.443  0.00  0.00    +0.249 C 
ATOM     16  N   LIG    1      -35.011  66.882  25.324  0.00  0.00    -0.308 N 
ATOM     17  H   LIG    1      -35.386  66.020  24.953  0.00  0.00    +0.149 HD
ATOM     18  O   LIG    1      -34.396  69.023  24.770  0.00  0.00    -0.270 OA
BRANCH  16  19
ATOM     19  C   LIG    1      -34.735  66.988  26.716  0.00  0.00    +0.073 C 
ATOM     20  C   LIG    1      -33.798  66.011  27.366  0.00  0.00    +0.024 C 
ATOM     21  C   LIG    1      -35.261  65.971  27.690  0.00  0.00    +0.024 C 
ENDBRANCH  16  19
ENDBRANCH   9  15
ENDBRANCH   2   6
BRANCH   1  23
ATOM     22  C   LIG    1      -38.431  71.561  24.821  0.00  0.00    +0.126 A 
ATOM     23  C   LIG    1      -39.635  71.307  24.115  0.00  0.00    +0.017 A 
ATOM     24  C   LIG    1      -40.350  72.443  23.687  0.00  0.00    +0.047 A 
ATOM     25  C   LIG    1      -39.939  73.739  23.972  0.00  0.00    +0.124 A 
ATOM     26  F   LIG    1      -40.658  74.774  23.518  0.00  0.00    -0.205 F 
ATOM     27  C   LIG    1      -38.796  73.969  24.708  0.00  0.00    +0.042 A 
ATOM     28  C   LIG    1      -38.048  72.879  25.142  0.00  0.00    +0.049 A 
BRANCH  22  29
ATOM     29  O   LIG    1      -37.659  70.499  25.205  0.00  0.00    -0.489 OA
BRANCH  29  30
ATOM     30  C   LIG    1      -37.322  70.376  26.589  0.00  0.00    +0.257 C 
BRANCH  30  31
ATOM     31  C   LIG    1      -37.880  69.050  27.104  0.00  0.00    +0.200 C 
BRANCH  31  33
ATOM     32  C   LIG    1      -39.077  67.336  26.017  0.00  0.00    +0.194 C 
ATOM     33  O   LIG    1      -37.861  68.077  26.059  0.00  0.00    -0.380 OA
ENDBRANCH  31  33
ENDBRANCH  30  31
ENDBRANCH  29  30
ENDBRANCH  22  29
ENDBRANCH   1  23
TORSDOF 8
ENDMDL
MODEL 6
REMARK VINA RESULT:      -4.8     18.777     22.339
REMARK  Name = pdb/CHEMBL3675965.pdb
REMARK                            x       y       z     vdW  Elec       q    Type
REMARK                         _______ _______ _______ _____ _____    ______ ____
ROOT
ATOM      1  C   LIG    1      -22.825  81.945  14.734  0.00  0.00    +0.109 C 
ATOM      2  N   LIG    1      -21.528  81.263  14.421  0.00  0.00    -0.308 N 
ATOM      3  C   LIG    1      -21.216  80.314  15.518  0.00  0.00    +0.107 C 
ATOM      4  C   LIG    1      -22.098  80.724  16.676  0.00  0.00    +0.021 C 
ATOM      5  C   LIG    1      -23.348  81.136  15.946  0.00  0.00    +0.029 C 
ENDROOT
BRANCH   2   6
ATOM      6  C   LIG    1      -20.428  81.876  13.808  0.00  0.00    +0.126 A 
ATOM      7  N   LIG    1      -20.176  83.164  13.918  0.00  0.00    -0.212 NA
ATOM      8  C   LIG    1      -19.002  83.648  13.382  0.00  0.00    +0.170 A 
ATOM      9  C   LIG    1      -18.462  84.922  13.276  0.00  0.00    +0.100 A 
ATOM     10  C   LIG    1      -17.177  84.720  12.731  0.00  0.00    +0.150 A 
ATOM     11  N   LIG    1      -16.925  83.446  12.441  0.00  0.00    -0.173 NA
ATOM     12  N   LIG    1      -18.055  82.798  12.801  0.00  0.00    -0.221 N 
ATOM     13  C   LIG    1      -18.335  81.459  12.614  0.00  0.00    +0.118 A 
ATOM     14  C   LIG    1      -19.500  80.960  13.029  0.00  0.00    +0.063 A 
BRANCH   9  15
ATOM     15  C   LIG    1      -19.027  86.209  13.626  0.00  0.00    +0.249 C 
ATOM     16  N   LIG    1      -20.225  86.137  14.307  0.00  0.00    -0.308 N 
ATOM     17  H   LIG    1      -20.572  85.218  14.542  0.00  0.00    +0.149 HD
ATOM     18  O   LIG    1      -18.511  87.257  13.268  0.00  0.00    -0.270 OA
BRANCH  16  19
ATOM     19  C   LIG    1      -20.990  87.288  14.646  0.00  0.00    +0.073 C 
ATOM     20  C   LIG    1      -21.837  87.279  15.886  0.00  0.00    +0.024 C 
ATOM     21  C   LIG    1      -22.489  87.281  14.537  0.00  0.00    +0.024 C 
ENDBRANCH  16  19
ENDBRANCH   9  15
ENDBRANCH   2   6
BRANCH   1  23
ATOM     22  C   LIG    1      -23.802  83.093  12.569  0.00  0.00    +0.126 A 
ATOM     23  C   LIG    1      -23.800  82.068  13.550  0.00  0.00    +0.017 A 
ATOM     24  C   LIG    1      -24.705  81.010  13.338  0.00  0.00    +0.047 A 
ATOM     25  C   LIG    1      -25.585  80.980  12.263  0.00  0.00    +0.124 A 
ATOM     26  F   LIG    1      -26.407  79.932  12.112  0.00  0.00    -0.205 F 
ATOM     27  C   LIG    1      -25.614  82.011  11.348  0.00  0.00    +0.042 A 
ATOM     28  C   LIG    1      -24.729  83.073  11.508  0.00  0.00    +0.049 A 
BRANCH  22  29
ATOM     29  O   LIG    1      -22.899  84.114  12.685  0.00  0.00    -0.489 OA
BRANCH  29  30
ATOM     30  C   LIG    1      -22.821  85.068  11.623  0.00  0.00    +0.257 C 
BRANCH  30  31
ATOM     31  C   LIG    1      -21.426  84.989  11.005  0.00  0.00    +0.200 C 
BRANCH  31  33
ATOM     32  C   LIG    1      -21.967  87.280  10.924  0.00  0.00    +0.194 C 
ATOM     33  O   LIG    1      -21.008  86.286  10.581  0.00  0.00    -0.380 OA
ENDBRANCH  31  33
ENDBRANCH  30  31
ENDBRANCH  29  30
ENDBRANCH  22  29
ENDBRANCH   1  23
TORSDOF 8
ENDMDL
MODEL 7
REMARK VINA RESULT:      -4.8     16.168     20.102
REMARK  Name = pdb/CHEMBL3675965.pdb
REMARK                            x       y       z     vdW  Elec       q    Type
REMARK                         _______ _______ _______ _____ _____    ______ ____
ROOT
ATOM      1  C   LIG    1      -38.664  70.141  24.873  0.00  0.00    +0.109 C 
ATOM      2  N   LIG    1      -37.837  71.391  24.872  0.00  0.00    -0.308 N 
ATOM      3  C   LIG    1      -36.655  71.176  25.742  0.00  0.00    +0.107 C 
ATOM      4  C   LIG    1      -36.983  69.964  26.586  0.00  0.00    +0.021 C 
ATOM      5  C   LIG    1      -37.743  69.126  25.592  0.00  0.00    +0.029 C 
ENDROOT
BRANCH   2   6
ATOM      6  C   LIG    1      -38.353  72.693  24.847  0.00  0.00    +0.126 A 
ATOM      7  N   LIG    1      -37.709  73.725  25.349  0.00  0.00    -0.212 NA
ATOM      8  C   LIG    1      -38.244  74.982  25.163  0.00  0.00    +0.170 A 
ATOM      9  C   LIG    1      -37.865  76.246  25.591  0.00  0.00    +0.100 A 
ATOM     10  C   LIG    1      -38.769  77.124  24.956  0.00  0.00    +0.150 A 
ATOM     11  N   LIG    1      -39.695  76.491  24.239  0.00  0.00    -0.173 NA
ATOM     12  N   LIG    1      -39.398  75.183  24.399  0.00  0.00    -0.221 N 
ATOM     13  C   LIG    1      -40.124  74.107  23.927  0.00  0.00    +0.118 A 
ATOM     14  C   LIG    1      -39.699  72.865  24.164  0.00  0.00    +0.063 A 
BRANCH   9  15
ATOM     15  C   LIG    1      -36.796  76.651  26.482  0.00  0.00    +0.249 C 
ATOM     16  N   LIG    1      -35.952  75.627  26.857  0.00  0.00    -0.308 N 
ATOM     17  H   LIG    1      -36.115  74.717  26.452  0.00  0.00    +0.149 HD
ATOM     18  O   LIG    1      -36.716  77.791  26.914  0.00  0.00    -0.270 OA
BRANCH  16  19
ATOM     19  C   LIG    1      -34.907  75.799  27.808  0.00  0.00    +0.073 C 
ATOM     20  C   LIG    1      -33.535  76.193  27.342  0.00  0.00    +0.024 C 
ATOM     21  C   LIG    1      -33.770  74.820  27.895  0.00  0.00    +0.024 C 
ENDBRANCH  16  19
ENDBRANCH   9  15
ENDBRANCH   2   6
BRANCH   1  23
ATOM     22  C   LIG    1      -38.395  69.218  22.416  0.00  0.00    +0.126 A 
ATOM     23  C   LIG    1      -39.183  69.701  23.493  0.00  0.00    +0.017 A 
ATOM     24  C   LIG    1      -40.578  69.654  23.306  0.00  0.00    +0.047 A 
ATOM     25  C   LIG    1      -41.162  69.209  22.125  0.00  0.00    +0.124 A 
ATOM     26  F   LIG    1      -42.497  69.174  22.023  0.00  0.00    -0.205 F 
ATOM     27  C   LIG    1      -40.382  68.796  21.066  0.00  0.00    +0.042 A 
ATOM     28  C   LIG    1      -38.997  68.811  21.208  0.00  0.00    +0.049 A 
BRANCH  22  29
ATOM     29  O   LIG    1      -37.036  69.176  22.564  0.00  0.00    -0.489 OA
BRANCH  29  30
ATOM     30  C   LIG    1      -36.329  68.075  21.986  0.00  0.00    +0.257 C 
BRANCH  30  31
ATOM     31  C   LIG    1      -35.333  67.549  23.018  0.00  0.00    +0.200 C 
BRANCH  31  33
ATOM     32  C   LIG    1      -34.309  66.496  21.176  0.00  0.00    +0.194 C 
ATOM     33  O   LIG    1      -34.097  67.225  22.380  0.00  0.00    -0.380 OA
ENDBRANCH  31  33
ENDBRANCH  30  31
ENDBRANCH  29  30
ENDBRANCH  22  29
ENDBRANCH   1  23
TORSDOF 8
ENDMDL
MODEL 8
REMARK VINA RESULT:      -4.7     19.307     21.916
REMARK  Name = pdb/CHEMBL3675965.pdb
REMARK                            x       y       z     vdW  Elec       q    Type
REMARK                         _______ _______ _______ _____ _____    ______ ____
ROOT
ATOM      1  C   LIG    1      -22.712  85.602  14.527  0.00  0.00    +0.109 C 
ATOM      2  N   LIG    1      -22.814  85.974  13.079  0.00  0.00    -0.308 N 
ATOM      3  C   LIG    1      -22.446  87.403  12.931  0.00  0.00    +0.107 C 
ATOM      4  C   LIG    1      -22.529  87.992  14.322  0.00  0.00    +0.021 C 
ATOM      5  C   LIG    1      -22.021  86.840  15.147  0.00  0.00    +0.029 C 
ENDROOT
BRANCH   2   6
ATOM      6  C   LIG    1      -23.790  85.496  12.195  0.00  0.00    +0.126 A 
ATOM      7  N   LIG    1      -24.197  84.244  12.192  0.00  0.00    -0.212 NA
ATOM      8  C   LIG    1      -25.250  83.902  11.370  0.00  0.00    +0.170 A 
ATOM      9  C   LIG    1      -25.881  82.699  11.089  0.00  0.00    +0.100 A 
ATOM     10  C   LIG    1      -26.965  83.050  10.257  0.00  0.00    +0.150 A 
ATOM     11  N   LIG    1      -27.000  84.349   9.964  0.00  0.00    -0.173 NA
ATOM     12  N   LIG    1      -25.929  84.860  10.610  0.00  0.00    -0.221 N 
ATOM     13  C   LIG    1      -25.470  86.161  10.548  0.00  0.00    +0.118 A 
ATOM     14  C   LIG    1      -24.395  86.520  11.250  0.00  0.00    +0.063 A 
BRANCH   9  15
ATOM     15  C   LIG    1      -25.560  81.352  11.515  0.00  0.00    +0.249 C 
ATOM     16  N   LIG    1      -25.465  81.197  12.883  0.00  0.00    -0.308 N 
ATOM     17  H   LIG    1      -25.671  82.002  13.458  0.00  0.00    +0.149 HD
ATOM     18  O   LIG    1      -25.320  80.463  10.713  0.00  0.00    -0.270 OA
BRANCH  16  19
ATOM     19  C   LIG    1      -25.056  79.980  13.495  0.00  0.00    +0.073 C 
ATOM     20  C   LIG    1      -25.926  79.344  14.542  0.00  0.00    +0.024 C 
ATOM     21  C   LIG    1      -24.609  79.946  14.929  0.00  0.00    +0.024 C 
ENDBRANCH  16  19
ENDBRANCH   9  15
ENDBRANCH   2   6
BRANCH   1  23
ATOM     22  C   LIG    1      -20.805  83.801  14.252  0.00  0.00    +0.126 A 
ATOM     23  C   LIG    1      -22.029  84.253  14.808  0.00  0.00    +0.017 A 
ATOM     24  C   LIG    1      -22.597  83.428  15.799  0.00  0.00    +0.047 A 
ATOM     25  C   LIG    1      -22.030  82.219  16.184  0.00  0.00    +0.124 A 
ATOM     26  F   LIG    1      -22.616  81.493  17.146  0.00  0.00    -0.205 F 
ATOM     27  C   LIG    1      -20.870  81.766  15.594  0.00  0.00    +0.042 A 
ATOM     28  C   LIG    1      -20.263  82.552  14.620  0.00  0.00    +0.049 A 
BRANCH  22  29
ATOM     29  O   LIG    1      -20.170  84.591  13.333  0.00  0.00    -0.489 OA
BRANCH  29  30
ATOM     30  C   LIG    1      -18.792  84.328  13.056  0.00  0.00    +0.257 C 
BRANCH  30  31
ATOM     31  C   LIG    1      -18.058  85.664  12.957  0.00  0.00    +0.200 C 
BRANCH  31  33
ATOM     32  C   LIG    1      -18.893  87.841  12.625  0.00  0.00    +0.194 C 
ATOM     33  O   LIG    1      -18.874  86.708  13.487  0.00  0.00    -0.380 OA
ENDBRANCH  31  33
ENDBRANCH  30  31
ENDBRANCH  29  30
ENDBRANCH  22  29
ENDBRANCH   1  23
TORSDOF 8
ENDMDL
MODEL 9
REMARK VINA RESULT:      -4.7     14.435     18.168
REMARK  Name = pdb/CHEMBL3675965.pdb
REMARK                            x       y       z     vdW  Elec       q    Type
REMARK                         _______ _______ _______ _____ _____    ______ ____
ROOT
ATOM      1  C   LIG    1      -39.144  78.016  24.595  0.00  0.00    +0.109 C 
ATOM      2  N   LIG    1      -39.769  78.581  25.835  0.00  0.00    -0.308 N 
ATOM      3  C   LIG    1      -40.780  79.591  25.437  0.00  0.00    +0.107 C 
ATOM      4  C   LIG    1      -40.471  79.932  23.996  0.00  0.00    +0.021 C 
ATOM      5  C   LIG    1      -40.044  78.587  23.473  0.00  0.00    +0.029 C 
ENDROOT
BRANCH   2   6
ATOM      6  C   LIG    1      -39.088  78.832  27.033  0.00  0.00    +0.126 A 
ATOM      7  N   LIG    1      -38.294  79.869  27.198  0.00  0.00    -0.212 NA
ATOM      8  C   LIG    1      -37.770  80.097  28.452  0.00  0.00    +0.170 A 
ATOM      9  C   LIG    1      -36.882  81.039  28.952  0.00  0.00    +0.100 A 
ATOM     10  C   LIG    1      -36.853  80.800  30.342  0.00  0.00    +0.150 A 
ATOM     11  N   LIG    1      -37.594  79.757  30.709  0.00  0.00    -0.173 NA
ATOM     12  N   LIG    1      -38.120  79.304  29.550  0.00  0.00    -0.221 N 
ATOM     13  C   LIG    1      -38.894  78.173  29.380  0.00  0.00    +0.118 A 
ATOM     14  C   LIG    1      -39.347  77.854  28.167  0.00  0.00    +0.063 A 
BRANCH   9  15
ATOM     15  C   LIG    1      -36.123  82.065  28.267  0.00  0.00    +0.249 C 
ATOM     16  N   LIG    1      -36.655  82.450  27.054  0.00  0.00    -0.308 N 
ATOM     17  H   LIG    1      -37.532  82.032  26.776  0.00  0.00    +0.149 HD
ATOM     18  O   LIG    1      -35.062  82.483  28.706  0.00  0.00    -0.270 OA
BRANCH  16  19
ATOM     19  C   LIG    1      -36.004  83.366  26.181  0.00  0.00    +0.073 C 
ATOM     20  C   LIG    1      -36.372  84.821  26.221  0.00  0.00    +0.024 C 
ATOM     21  C   LIG    1      -36.736  83.991  25.027  0.00  0.00    +0.024 C 
ENDBRANCH  16  19
ENDBRANCH   9  15
ENDBRANCH   2   6
BRANCH   1  23
ATOM     22  C   LIG    1      -37.867  75.769  25.121  0.00  0.00    +0.126 A 
ATOM     23  C   LIG    1      -38.970  76.488  24.591  0.00  0.00    +0.017 A 
ATOM     24  C   LIG    1      -40.049  75.710  24.130  0.00  0.00    +0.047 A 
ATOM     25  C   LIG    1      -40.031  74.319  24.142  0.00  0.00    +0.124 A 
ATOM     26  F   LIG    1      -41.101  73.643  23.704  0.00  0.00    -0.205 F 
ATOM     27  C   LIG    1      -38.930  73.634  24.608  0.00  0.00    +0.042 A 
ATOM     28  C   LIG    1      -37.843  74.359  25.087  0.00  0.00    +0.049 A 
BRANCH  22  29
ATOM     29  O   LIG    1      -36.817  76.470  25.645  0.00  0.00    -0.489 OA
BRANCH  29  30
ATOM     30  C   LIG    1      -36.264  76.027  26.888  0.00  0.00    +0.257 C 
BRANCH  30  31
ATOM     31  C   LIG    1      -35.704  77.241  27.626  0.00  0.00    +0.200 C 
BRANCH  31  33
ATOM     32  C   LIG    1      -33.530  76.430  27.217  0.00  0.00    +0.194 C 
ATOM     33  O   LIG    1      -34.402  77.553  27.131  0.00  0.00    -0.380 OA
ENDBRANCH  31  33
ENDBRANCH  30  31
ENDBRANCH  29  30
ENDBRANCH  22  29
ENDBRANCH   1  23
TORSDOF 8
ENDMDL
