MODEL 1
REMARK VINA RESULT:      -6.2      0.000      0.000
REMARK  Name = pdb/CHEMBL3676092.pdb
REMARK                            x       y       z     vdW  Elec       q    Type
REMARK                         _______ _______ _______ _____ _____    ______ ____
ROOT
ATOM      1  C   LIG    1      -23.704  79.831  35.071  0.00  0.00    +0.126 A 
ATOM      2  N   LIG    1      -23.745  79.160  33.937  0.00  0.00    -0.212 NA
ATOM      3  C   LIG    1      -24.838  78.353  33.697  0.00  0.00    +0.170 A 
ATOM      4  C   LIG    1      -25.234  77.590  32.611  0.00  0.00    +0.100 A 
ATOM      5  C   LIG    1      -26.424  76.963  33.026  0.00  0.00    +0.150 A 
ATOM      6  N   LIG    1      -26.798  77.312  34.256  0.00  0.00    -0.173 NA
ATOM      7  N   LIG    1      -25.859  78.206  34.641  0.00  0.00    -0.221 N 
ATOM      8  C   LIG    1      -25.853  78.946  35.808  0.00  0.00    +0.118 A 
ATOM      9  C   LIG    1      -24.846  79.785  36.064  0.00  0.00    +0.063 A 
ENDROOT
BRANCH   1  11
ATOM     10  C   LIG    1      -21.434  80.075  36.141  0.00  0.00    +0.110 C 
ATOM     11  N   LIG    1      -22.593  80.610  35.391  0.00  0.00    -0.308 N 
ATOM     12  C   LIG    1      -22.701  82.057  35.613  0.00  0.00    +0.107 C 
ATOM     13  C   LIG    1      -21.741  82.364  36.751  0.00  0.00    +0.021 C 
ATOM     14  C   LIG    1      -20.652  81.334  36.556  0.00  0.00    +0.029 C 
BRANCH  10  19
ATOM     15  C   LIG    1      -19.168  75.645  35.677  0.00  0.00    +0.152 C 
ATOM     16  N   LIG    1      -19.485  76.962  35.149  0.00  0.00    -0.315 N 
ATOM     17  C   LIG    1      -20.275  77.827  35.912  0.00  0.00    +0.256 A 
ATOM     18  O   LIG    1      -20.714  77.546  37.025  0.00  0.00    -0.267 OA
ATOM     19  C   LIG    1      -20.557  79.179  35.311  0.00  0.00    +0.040 A 
ATOM     20  C   LIG    1      -20.000  79.490  34.126  0.00  0.00    +0.050 A 
ATOM     21  C   LIG    1      -19.166  78.555  33.429  0.00  0.00    +0.140 A 
ATOM     22  F   LIG    1      -18.620  78.929  32.257  0.00  0.00    -0.204 F 
ATOM     23  C   LIG    1      -18.934  77.342  33.937  0.00  0.00    +0.127 A 
ENDBRANCH  10  19
ENDBRANCH   1  11
BRANCH   4  24
ATOM     24  C   LIG    1      -24.622  77.423  31.311  0.00  0.00    +0.249 C 
ATOM     25  N   LIG    1      -23.250  77.565  31.279  0.00  0.00    -0.308 N 
ATOM     26  H   LIG    1      -22.795  77.789  32.154  0.00  0.00    +0.149 HD
ATOM     27  O   LIG    1      -25.283  77.137  30.329  0.00  0.00    -0.270 OA
BRANCH  25  28
ATOM     28  C   LIG    1      -22.499  77.414  30.029  0.00  0.00    +0.073 C 
ATOM     29  C   LIG    1      -21.980  75.981  29.762  0.00  0.00    +0.022 C 
ATOM     30  C   LIG    1      -20.699  76.641  29.207  0.00  0.00    +0.004 C 
ATOM     31  C   LIG    1      -21.013  77.838  30.128  0.00  0.00    +0.022 C 
ENDBRANCH  25  28
ENDBRANCH   4  24
TORSDOF 4
ENDMDL
MODEL 2
REMARK VINA RESULT:      -5.8     18.608     22.030
REMARK  Name = pdb/CHEMBL3676092.pdb
REMARK                            x       y       z     vdW  Elec       q    Type
REMARK                         _______ _______ _______ _____ _____    ______ ____
ROOT
ATOM      1  C   LIG    1      -20.209  81.887  13.910  0.00  0.00    +0.126 A 
ATOM      2  N   LIG    1      -19.964  83.182  13.950  0.00  0.00    -0.212 NA
ATOM      3  C   LIG    1      -18.841  83.652  13.301  0.00  0.00    +0.170 A 
ATOM      4  C   LIG    1      -18.336  84.923  13.079  0.00  0.00    +0.100 A 
ATOM      5  C   LIG    1      -17.125  84.713  12.393  0.00  0.00    +0.150 A 
ATOM      6  N   LIG    1      -16.876  83.427  12.151  0.00  0.00    -0.173 NA
ATOM      7  N   LIG    1      -17.954  82.785  12.654  0.00  0.00    -0.221 N 
ATOM      8  C   LIG    1      -18.230  81.435  12.560  0.00  0.00    +0.118 A 
ATOM      9  C   LIG    1      -19.334  80.935  13.122  0.00  0.00    +0.063 A 
ENDROOT
BRANCH   1  11
ATOM     10  C   LIG    1      -22.524  82.128  14.880  0.00  0.00    +0.110 C 
ATOM     11  N   LIG    1      -21.295  81.352  14.603  0.00  0.00    -0.308 N 
ATOM     12  C   LIG    1      -21.123  80.313  15.626  0.00  0.00    +0.107 C 
ATOM     13  C   LIG    1      -22.134  80.646  16.712  0.00  0.00    +0.021 C 
ATOM     14  C   LIG    1      -23.262  81.283  15.934  0.00  0.00    +0.029 C 
BRANCH  10  19
ATOM     15  C   LIG    1      -24.161  85.176  11.274  0.00  0.00    +0.152 C 
ATOM     16  N   LIG    1      -24.142  83.868  11.908  0.00  0.00    -0.315 N 
ATOM     17  C   LIG    1      -23.363  83.682  13.054  0.00  0.00    +0.256 A 
ATOM     18  O   LIG    1      -22.694  84.571  13.576  0.00  0.00    -0.267 OA
ATOM     19  C   LIG    1      -23.395  82.306  13.667  0.00  0.00    +0.040 A 
ATOM     20  C   LIG    1      -24.197  81.373  13.121  0.00  0.00    +0.050 A 
ATOM     21  C   LIG    1      -24.996  81.663  11.967  0.00  0.00    +0.140 A 
ATOM     22  F   LIG    1      -25.794  80.696  11.477  0.00  0.00    -0.204 F 
ATOM     23  C   LIG    1      -24.952  82.870  11.397  0.00  0.00    +0.127 A 
ENDBRANCH  10  19
ENDBRANCH   1  11
BRANCH   4  24
ATOM     24  C   LIG    1      -18.870  86.218  13.436  0.00  0.00    +0.249 C 
ATOM     25  N   LIG    1      -20.013  86.196  14.208  0.00  0.00    -0.308 N 
ATOM     26  H   LIG    1      -20.387  85.285  14.442  0.00  0.00    +0.149 HD
ATOM     27  O   LIG    1      -18.313  87.249  13.103  0.00  0.00    -0.270 OA
BRANCH  25  28
ATOM     28  C   LIG    1      -20.657  87.437  14.649  0.00  0.00    +0.073 C 
ATOM     29  C   LIG    1      -21.802  87.238  15.670  0.00  0.00    +0.022 C 
ATOM     30  C   LIG    1      -22.546  88.369  14.928  0.00  0.00    +0.004 C 
ATOM     31  C   LIG    1      -21.738  87.969  13.676  0.00  0.00    +0.022 C 
ENDBRANCH  25  28
ENDBRANCH   4  24
TORSDOF 4
ENDMDL
MODEL 3
REMARK VINA RESULT:      -5.7      6.727     11.050
REMARK  Name = pdb/CHEMBL3676092.pdb
REMARK                            x       y       z     vdW  Elec       q    Type
REMARK                         _______ _______ _______ _____ _____    ______ ____
ROOT
ATOM      1  C   LIG    1      -31.297  75.539  30.910  0.00  0.00    +0.126 A 
ATOM      2  N   LIG    1      -29.981  75.613  30.930  0.00  0.00    -0.212 NA
ATOM      3  C   LIG    1      -29.378  76.214  32.016  0.00  0.00    +0.170 A 
ATOM      4  C   LIG    1      -28.057  76.389  32.390  0.00  0.00    +0.100 A 
ATOM      5  C   LIG    1      -28.117  77.132  33.585  0.00  0.00    +0.150 A 
ATOM      6  N   LIG    1      -29.364  77.387  33.980  0.00  0.00    -0.173 NA
ATOM      7  N   LIG    1      -30.133  76.775  33.052  0.00  0.00    -0.221 N 
ATOM      8  C   LIG    1      -31.508  76.655  33.068  0.00  0.00    +0.118 A 
ATOM      9  C   LIG    1      -32.139  76.032  32.069  0.00  0.00    +0.063 A 
ENDROOT
BRANCH   1  11
ATOM     10  C   LIG    1      -33.294  75.468  29.373  0.00  0.00    +0.110 C 
ATOM     11  N   LIG    1      -31.959  75.000  29.808  0.00  0.00    -0.308 N 
ATOM     12  C   LIG    1      -31.764  73.604  29.395  0.00  0.00    +0.107 C 
ATOM     13  C   LIG    1      -33.132  73.125  28.936  0.00  0.00    +0.021 C 
ATOM     14  C   LIG    1      -33.758  74.385  28.382  0.00  0.00    +0.029 C 
BRANCH  10  19
ATOM     15  C   LIG    1      -34.692  80.265  29.403  0.00  0.00    +0.152 C 
ATOM     16  N   LIG    1      -33.973  79.165  28.783  0.00  0.00    -0.315 N 
ATOM     17  C   LIG    1      -34.015  77.903  29.384  0.00  0.00    +0.256 A 
ATOM     18  O   LIG    1      -34.643  77.658  30.412  0.00  0.00    -0.267 OA
ATOM     19  C   LIG    1      -33.256  76.805  28.686  0.00  0.00    +0.040 A 
ATOM     20  C   LIG    1      -32.641  77.082  27.522  0.00  0.00    +0.050 A 
ATOM     21  C   LIG    1      -32.685  78.397  26.953  0.00  0.00    +0.140 A 
ATOM     22  F   LIG    1      -32.067  78.611  25.776  0.00  0.00    -0.204 F 
ATOM     23  C   LIG    1      -33.327  79.386  27.579  0.00  0.00    +0.127 A 
ENDBRANCH  10  19
ENDBRANCH   1  11
BRANCH   4  24
ATOM     24  C   LIG    1      -26.837  75.942  31.756  0.00  0.00    +0.249 C 
ATOM     25  N   LIG    1      -25.929  76.935  31.451  0.00  0.00    -0.308 N 
ATOM     26  H   LIG    1      -26.198  77.883  31.677  0.00  0.00    +0.149 HD
ATOM     27  O   LIG    1      -26.624  74.761  31.551  0.00  0.00    -0.270 OA
BRANCH  25  28
ATOM     28  C   LIG    1      -24.646  76.621  30.813  0.00  0.00    +0.073 C 
ATOM     29  C   LIG    1      -23.405  76.928  31.684  0.00  0.00    +0.022 C 
ATOM     30  C   LIG    1      -22.720  77.409  30.387  0.00  0.00    +0.004 C 
ATOM     31  C   LIG    1      -24.133  77.722  29.852  0.00  0.00    +0.022 C 
ENDBRANCH  25  28
ENDBRANCH   4  24
TORSDOF 4
ENDMDL
MODEL 4
REMARK VINA RESULT:      -5.7     18.720     21.818
REMARK  Name = pdb/CHEMBL3676092.pdb
REMARK                            x       y       z     vdW  Elec       q    Type
REMARK                         _______ _______ _______ _____ _____    ______ ____
ROOT
ATOM      1  C   LIG    1      -23.043  86.054  12.222  0.00  0.00    +0.126 A 
ATOM      2  N   LIG    1      -23.514  84.912  12.683  0.00  0.00    -0.212 NA
ATOM      3  C   LIG    1      -24.252  84.119  11.828  0.00  0.00    +0.170 A 
ATOM      4  C   LIG    1      -24.815  82.860  11.951  0.00  0.00    +0.100 A 
ATOM      5  C   LIG    1      -25.484  82.644  10.731  0.00  0.00    +0.150 A 
ATOM      6  N   LIG    1      -25.341  83.652   9.871  0.00  0.00    -0.173 NA
ATOM      7  N   LIG    1      -24.539  84.525  10.521  0.00  0.00    -0.221 N 
ATOM      8  C   LIG    1      -24.006  85.693  10.011  0.00  0.00    +0.118 A 
ATOM      9  C   LIG    1      -23.238  86.470  10.779  0.00  0.00    +0.063 A 
ENDROOT
BRANCH   1  11
ATOM     10  C   LIG    1      -21.476  86.441  14.159  0.00  0.00    +0.110 C 
ATOM     11  N   LIG    1      -22.346  86.922  13.062  0.00  0.00    -0.308 N 
ATOM     12  C   LIG    1      -22.854  88.262  13.382  0.00  0.00    +0.107 C 
ATOM     13  C   LIG    1      -22.500  88.488  14.844  0.00  0.00    +0.021 C 
ATOM     14  C   LIG    1      -21.218  87.703  15.002  0.00  0.00    +0.029 C 
BRANCH  10  19
ATOM     15  C   LIG    1      -18.709  82.375  13.275  0.00  0.00    +0.152 C 
ATOM     16  N   LIG    1      -18.875  83.819  13.247  0.00  0.00    -0.315 N 
ATOM     17  C   LIG    1      -20.068  84.374  13.721  0.00  0.00    +0.256 A 
ATOM     18  O   LIG    1      -20.994  83.709  14.179  0.00  0.00    -0.267 OA
ATOM     19  C   LIG    1      -20.171  85.876  13.672  0.00  0.00    +0.040 A 
ATOM     20  C   LIG    1      -19.112  86.584  13.237  0.00  0.00    +0.050 A 
ATOM     21  C   LIG    1      -17.909  85.933  12.809  0.00  0.00    +0.140 A 
ATOM     22  F   LIG    1      -16.875  86.694  12.402  0.00  0.00    -0.204 F 
ATOM     23  C   LIG    1      -17.817  84.601  12.817  0.00  0.00    +0.127 A 
ENDBRANCH  10  19
ENDBRANCH   1  11
BRANCH   4  24
ATOM     24  C   LIG    1      -24.770  81.917  13.046  0.00  0.00    +0.249 C 
ATOM     25  N   LIG    1      -23.871  82.216  14.049  0.00  0.00    -0.308 N 
ATOM     26  H   LIG    1      -23.313  83.050  13.926  0.00  0.00    +0.149 HD
ATOM     27  O   LIG    1      -25.512  80.952  13.085  0.00  0.00    -0.270 OA
BRANCH  25  28
ATOM     28  C   LIG    1      -23.728  81.350  15.224  0.00  0.00    +0.073 C 
ATOM     29  C   LIG    1      -22.872  81.952  16.363  0.00  0.00    +0.022 C 
ATOM     30  C   LIG    1      -22.304  80.532  16.571  0.00  0.00    +0.004 C 
ATOM     31  C   LIG    1      -22.624  80.273  15.084  0.00  0.00    +0.022 C 
ENDBRANCH  25  28
ENDBRANCH   4  24
TORSDOF 4
ENDMDL
MODEL 5
REMARK VINA RESULT:      -5.3     20.864     23.253
REMARK  Name = pdb/CHEMBL3676092.pdb
REMARK                            x       y       z     vdW  Elec       q    Type
REMARK                         _______ _______ _______ _____ _____    ______ ____
ROOT
ATOM      1  C   LIG    1      -33.905  92.533  20.101  0.00  0.00    +0.126 A 
ATOM      2  N   LIG    1      -33.448  92.728  21.322  0.00  0.00    -0.212 NA
ATOM      3  C   LIG    1      -32.315  93.499  21.479  0.00  0.00    +0.170 A 
ATOM      4  C   LIG    1      -31.626  93.959  22.589  0.00  0.00    +0.100 A 
ATOM      5  C   LIG    1      -30.520  94.653  22.063  0.00  0.00    +0.150 A 
ATOM      6  N   LIG    1      -30.504  94.681  20.731  0.00  0.00    -0.173 NA
ATOM      7  N   LIG    1      -31.633  94.026  20.377  0.00  0.00    -0.221 N 
ATOM      8  C   LIG    1      -32.132  93.874  19.098  0.00  0.00    +0.118 A 
ATOM      9  C   LIG    1      -33.258  93.184  18.897  0.00  0.00    +0.063 A 
ENDROOT
BRANCH   1  11
ATOM     10  C   LIG    1      -35.619  91.535  18.545  0.00  0.00    +0.110 C 
ATOM     11  N   LIG    1      -35.009  91.709  19.882  0.00  0.00    -0.308 N 
ATOM     12  C   LIG    1      -36.018  91.476  20.923  0.00  0.00    +0.107 C 
ATOM     13  C   LIG    1      -37.349  91.427  20.189  0.00  0.00    +0.021 C 
ATOM     14  C   LIG    1      -36.968  90.854  18.843  0.00  0.00    +0.029 C 
BRANCH  10  19
ATOM     15  C   LIG    1      -33.896  90.721  13.926  0.00  0.00    +0.152 C 
ATOM     16  N   LIG    1      -33.975  90.344  15.327  0.00  0.00    -0.315 N 
ATOM     17  C   LIG    1      -34.754  91.117  16.194  0.00  0.00    +0.256 A 
ATOM     18  O   LIG    1      -35.396  92.102  15.839  0.00  0.00    -0.267 OA
ATOM     19  C   LIG    1      -34.800  90.667  17.631  0.00  0.00    +0.040 A 
ATOM     20  C   LIG    1      -34.149  89.541  17.978  0.00  0.00    +0.050 A 
ATOM     21  C   LIG    1      -33.408  88.784  17.012  0.00  0.00    +0.140 A 
ATOM     22  F   LIG    1      -32.794  87.655  17.413  0.00  0.00    -0.204 F 
ATOM     23  C   LIG    1      -33.333  89.191  15.742  0.00  0.00    +0.127 A 
ENDBRANCH  10  19
ENDBRANCH   1  11
BRANCH   4  24
ATOM     24  C   LIG    1      -31.912  93.806  23.998  0.00  0.00    +0.249 C 
ATOM     25  N   LIG    1      -33.065  93.110  24.296  0.00  0.00    -0.308 N 
ATOM     26  H   LIG    1      -33.616  92.784  23.513  0.00  0.00    +0.149 HD
ATOM     27  O   LIG    1      -31.155  94.234  24.850  0.00  0.00    -0.270 OA
BRANCH  25  28
ATOM     28  C   LIG    1      -33.473  92.874  25.685  0.00  0.00    +0.073 C 
ATOM     29  C   LIG    1      -32.980  91.533  26.279  0.00  0.00    +0.022 C 
ATOM     30  C   LIG    1      -34.351  91.438  26.980  0.00  0.00    +0.004 C 
ATOM     31  C   LIG    1      -34.907  92.311  25.836  0.00  0.00    +0.022 C 
ENDBRANCH  25  28
ENDBRANCH   4  24
TORSDOF 4
ENDMDL
MODEL 6
REMARK VINA RESULT:      -5.3     12.629     15.975
REMARK  Name = pdb/CHEMBL3676092.pdb
REMARK                            x       y       z     vdW  Elec       q    Type
REMARK                         _______ _______ _______ _____ _____    ______ ____
ROOT
ATOM      1  C   LIG    1      -33.527  74.298  28.704  0.00  0.00    +0.126 A 
ATOM      2  N   LIG    1      -34.102  73.546  27.787  0.00  0.00    -0.212 NA
ATOM      3  C   LIG    1      -34.109  72.179  27.976  0.00  0.00    +0.170 A 
ATOM      4  C   LIG    1      -34.675  71.128  27.275  0.00  0.00    +0.100 A 
ATOM      5  C   LIG    1      -34.264  69.972  27.966  0.00  0.00    +0.150 A 
ATOM      6  N   LIG    1      -33.528  70.241  29.044  0.00  0.00    -0.173 NA
ATOM      7  N   LIG    1      -33.485  71.592  29.081  0.00  0.00    -0.221 N 
ATOM      8  C   LIG    1      -32.927  72.373  30.074  0.00  0.00    +0.118 A 
ATOM      9  C   LIG    1      -32.944  73.704  29.969  0.00  0.00    +0.063 A 
ENDROOT
BRANCH   1  11
ATOM     10  C   LIG    1      -34.315  76.424  27.601  0.00  0.00    +0.110 C 
ATOM     11  N   LIG    1      -33.437  75.679  28.531  0.00  0.00    -0.308 N 
ATOM     12  C   LIG    1      -32.168  76.398  28.699  0.00  0.00    +0.107 C 
ATOM     13  C   LIG    1      -32.169  77.474  27.624  0.00  0.00    +0.021 C 
ATOM     14  C   LIG    1      -33.638  77.802  27.481  0.00  0.00    +0.029 C 
BRANCH  10  19
ATOM     15  C   LIG    1      -39.188  76.749  26.543  0.00  0.00    +0.152 C 
ATOM     16  N   LIG    1      -38.107  76.722  27.514  0.00  0.00    -0.315 N 
ATOM     17  C   LIG    1      -36.790  76.600  27.060  0.00  0.00    +0.256 A 
ATOM     18  O   LIG    1      -36.482  76.526  25.873  0.00  0.00    -0.267 OA
ATOM     19  C   LIG    1      -35.718  76.588  28.118  0.00  0.00    +0.040 A 
ATOM     20  C   LIG    1      -36.076  76.748  29.405  0.00  0.00    +0.050 A 
ATOM     21  C   LIG    1      -37.450  76.910  29.779  0.00  0.00    +0.140 A 
ATOM     22  F   LIG    1      -37.747  77.087  31.081  0.00  0.00    -0.204 F 
ATOM     23  C   LIG    1      -38.412  76.891  28.853  0.00  0.00    +0.127 A 
ENDBRANCH  10  19
ENDBRANCH   1  11
BRANCH   4  24
ATOM     24  C   LIG    1      -35.511  71.131  26.095  0.00  0.00    +0.249 C 
ATOM     25  N   LIG    1      -36.503  72.090  26.074  0.00  0.00    -0.308 N 
ATOM     26  H   LIG    1      -36.571  72.692  26.885  0.00  0.00    +0.149 HD
ATOM     27  O   LIG    1      -35.314  70.359  25.174  0.00  0.00    -0.270 OA
BRANCH  25  28
ATOM     28  C   LIG    1      -37.418  72.212  24.936  0.00  0.00    +0.073 C 
ATOM     29  C   LIG    1      -38.187  73.553  24.872  0.00  0.00    +0.022 C 
ATOM     30  C   LIG    1      -39.407  72.733  24.399  0.00  0.00    +0.004 C 
ATOM     31  C   LIG    1      -38.794  71.537  25.156  0.00  0.00    +0.022 C 
ENDBRANCH  25  28
ENDBRANCH   4  24
TORSDOF 4
ENDMDL
MODEL 7
REMARK VINA RESULT:      -5.3     16.021     20.137
REMARK  Name = pdb/CHEMBL3676092.pdb
REMARK                            x       y       z     vdW  Elec       q    Type
REMARK                         _______ _______ _______ _____ _____    ______ ____
ROOT
ATOM      1  C   LIG    1      -38.158  72.019  24.697  0.00  0.00    +0.126 A 
ATOM      2  N   LIG    1      -37.707  73.192  25.094  0.00  0.00    -0.212 NA
ATOM      3  C   LIG    1      -38.502  74.301  24.883  0.00  0.00    +0.170 A 
ATOM      4  C   LIG    1      -38.380  75.635  25.231  0.00  0.00    +0.100 A 
ATOM      5  C   LIG    1      -39.510  76.258  24.669  0.00  0.00    +0.150 A 
ATOM      6  N   LIG    1      -40.320  75.406  24.042  0.00  0.00    -0.173 NA
ATOM      7  N   LIG    1      -39.732  74.202  24.225  0.00  0.00    -0.221 N 
ATOM      8  C   LIG    1      -40.238  72.972  23.854  0.00  0.00    +0.118 A 
ATOM      9  C   LIG    1      -39.534  71.860  24.086  0.00  0.00    +0.063 A 
ENDROOT
BRANCH   1  11
ATOM     10  C   LIG    1      -37.927  69.509  24.747  0.00  0.00    +0.110 C 
ATOM     11  N   LIG    1      -37.368  70.877  24.828  0.00  0.00    -0.308 N 
ATOM     12  C   LIG    1      -36.152  70.869  25.650  0.00  0.00    +0.107 C 
ATOM     13  C   LIG    1      -36.124  69.501  26.315  0.00  0.00    +0.021 C 
ATOM     14  C   LIG    1      -36.794  68.617  25.287  0.00  0.00    +0.029 C 
BRANCH  10  19
ATOM     15  C   LIG    1      -41.240  67.359  21.687  0.00  0.00    +0.152 C 
ATOM     16  N   LIG    1      -39.972  68.036  21.897  0.00  0.00    -0.315 N 
ATOM     17  C   LIG    1      -39.608  68.406  23.196  0.00  0.00    +0.256 A 
ATOM     18  O   LIG    1      -40.296  68.178  24.188  0.00  0.00    -0.267 OA
ATOM     19  C   LIG    1      -38.277  69.096  23.344  0.00  0.00    +0.040 A 
ATOM     20  C   LIG    1      -37.508  69.264  22.252  0.00  0.00    +0.050 A 
ATOM     21  C   LIG    1      -37.943  68.815  20.962  0.00  0.00    +0.140 A 
ATOM     22  F   LIG    1      -37.123  68.992  19.909  0.00  0.00    -0.204 F 
ATOM     23  C   LIG    1      -39.134  68.231  20.813  0.00  0.00    +0.127 A 
ENDBRANCH  10  19
ENDBRANCH   1  11
BRANCH   4  24
ATOM     24  C   LIG    1      -37.359  76.313  25.998  0.00  0.00    +0.249 C 
ATOM     25  N   LIG    1      -36.384  75.500  26.537  0.00  0.00    -0.308 N 
ATOM     26  H   LIG    1      -36.475  74.506  26.368  0.00  0.00    +0.149 HD
ATOM     27  O   LIG    1      -37.352  77.526  26.115  0.00  0.00    -0.270 OA
BRANCH  25  28
ATOM     28  C   LIG    1      -35.283  76.055  27.331  0.00  0.00    +0.073 C 
ATOM     29  C   LIG    1      -34.179  75.036  27.697  0.00  0.00    +0.022 C 
ATOM     30  C   LIG    1      -34.109  75.735  29.072  0.00  0.00    +0.004 C 
ATOM     31  C   LIG    1      -35.580  76.145  28.848  0.00  0.00    +0.022 C 
ENDBRANCH  25  28
ENDBRANCH   4  24
TORSDOF 4
ENDMDL
MODEL 8
REMARK VINA RESULT:      -5.3     12.948     16.437
REMARK  Name = pdb/CHEMBL3676092.pdb
REMARK                            x       y       z     vdW  Elec       q    Type
REMARK                         _______ _______ _______ _____ _____    ______ ____
ROOT
ATOM      1  C   LIG    1      -34.553  80.072  28.192  0.00  0.00    +0.126 A 
ATOM      2  N   LIG    1      -35.090  80.906  27.324  0.00  0.00    -0.212 NA
ATOM      3  C   LIG    1      -35.666  82.064  27.805  0.00  0.00    +0.170 A 
ATOM      4  C   LIG    1      -36.236  83.167  27.190  0.00  0.00    +0.100 A 
ATOM      5  C   LIG    1      -36.685  83.977  28.249  0.00  0.00    +0.150 A 
ATOM      6  N   LIG    1      -36.402  83.474  29.450  0.00  0.00    -0.173 NA
ATOM      7  N   LIG    1      -35.728  82.334  29.176  0.00  0.00    -0.221 N 
ATOM      8  C   LIG    1      -35.122  81.494  30.089  0.00  0.00    +0.118 A 
ATOM      9  C   LIG    1      -34.500  80.388  29.672  0.00  0.00    +0.063 A 
ENDROOT
BRANCH   1  11
ATOM     10  C   LIG    1      -34.504  77.552  28.261  0.00  0.00    +0.110 C 
ATOM     11  N   LIG    1      -34.015  78.858  27.765  0.00  0.00    -0.308 N 
ATOM     12  C   LIG    1      -32.612  78.737  27.351  0.00  0.00    +0.107 C 
ATOM     13  C   LIG    1      -32.154  77.383  27.867  0.00  0.00    +0.021 C 
ATOM     14  C   LIG    1      -33.419  76.558  27.808  0.00  0.00    +0.029 C 
BRANCH  10  19
ATOM     15  C   LIG    1      -39.458  77.280  28.858  0.00  0.00    +0.152 C 
ATOM     16  N   LIG    1      -38.272  77.075  28.043  0.00  0.00    -0.315 N 
ATOM     17  C   LIG    1      -37.020  77.405  28.571  0.00  0.00    +0.256 A 
ATOM     18  O   LIG    1      -36.855  77.851  29.704  0.00  0.00    -0.267 OA
ATOM     19  C   LIG    1      -35.833  77.159  27.677  0.00  0.00    +0.040 A 
ATOM     20  C   LIG    1      -36.035  76.598  26.471  0.00  0.00    +0.050 A 
ATOM     21  C   LIG    1      -37.353  76.251  26.025  0.00  0.00    +0.140 A 
ATOM     22  F   LIG    1      -37.492  75.674  24.816  0.00  0.00    -0.204 F 
ATOM     23  C   LIG    1      -38.416  76.494  26.795  0.00  0.00    +0.127 A 
ENDBRANCH  10  19
ENDBRANCH   1  11
BRANCH   4  24
ATOM     24  C   LIG    1      -36.375  83.488  25.787  0.00  0.00    +0.249 C 
ATOM     25  N   LIG    1      -37.631  83.285  25.253  0.00  0.00    -0.308 N 
ATOM     26  H   LIG    1      -38.336  82.914  25.877  0.00  0.00    +0.149 HD
ATOM     27  O   LIG    1      -35.446  83.945  25.145  0.00  0.00    -0.270 OA
BRANCH  25  28
ATOM     28  C   LIG    1      -37.915  83.577  23.845  0.00  0.00    +0.073 C 
ATOM     29  C   LIG    1      -38.397  85.021  23.575  0.00  0.00    +0.022 C 
ATOM     30  C   LIG    1      -39.367  84.412  22.539  0.00  0.00    +0.004 C 
ATOM     31  C   LIG    1      -39.316  83.116  23.374  0.00  0.00    +0.022 C 
ENDBRANCH  25  28
ENDBRANCH   4  24
TORSDOF 4
ENDMDL
MODEL 9
REMARK VINA RESULT:      -5.2     18.646     21.618
REMARK  Name = pdb/CHEMBL3676092.pdb
REMARK                            x       y       z     vdW  Elec       q    Type
REMARK                         _______ _______ _______ _____ _____    ______ ____
ROOT
ATOM      1  C   LIG    1      -21.231  82.526  14.475  0.00  0.00    +0.126 A 
ATOM      2  N   LIG    1      -22.329  82.381  13.759  0.00  0.00    -0.212 NA
ATOM      3  C   LIG    1      -23.300  81.519  14.223  0.00  0.00    +0.170 A 
ATOM      4  C   LIG    1      -24.571  81.193  13.779  0.00  0.00    +0.100 A 
ATOM      5  C   LIG    1      -25.022  80.203  14.673  0.00  0.00    +0.150 A 
ATOM      6  N   LIG    1      -24.145  79.931  15.638  0.00  0.00    -0.173 NA
ATOM      7  N   LIG    1      -23.119  80.777  15.396  0.00  0.00    -0.221 N 
ATOM      8  C   LIG    1      -21.998  80.962  16.181  0.00  0.00    +0.118 A 
ATOM      9  C   LIG    1      -21.052  81.828  15.807  0.00  0.00    +0.063 A 
ENDROOT
BRANCH   1  11
ATOM     10  C   LIG    1      -20.380  84.353  12.961  0.00  0.00    +0.110 C 
ATOM     11  N   LIG    1      -20.192  83.336  14.019  0.00  0.00    -0.308 N 
ATOM     12  C   LIG    1      -18.796  82.879  14.026  0.00  0.00    +0.107 C 
ATOM     13  C   LIG    1      -18.183  83.438  12.751  0.00  0.00    +0.021 C 
ATOM     14  C   LIG    1      -18.944  84.729  12.553  0.00  0.00    +0.029 C 
BRANCH  10  19
ATOM     15  C   LIG    1      -23.414  88.164  11.843  0.00  0.00    +0.152 C 
ATOM     16  N   LIG    1      -22.627  87.420  12.813  0.00  0.00    -0.315 N 
ATOM     17  C   LIG    1      -21.913  86.295  12.388  0.00  0.00    +0.256 A 
ATOM     18  O   LIG    1      -21.897  85.897  11.226  0.00  0.00    -0.267 OA
ATOM     19  C   LIG    1      -21.112  85.576  13.441  0.00  0.00    +0.040 A 
ATOM     20  C   LIG    1      -21.084  86.078  14.690  0.00  0.00    +0.050 A 
ATOM     21  C   LIG    1      -21.814  87.264  15.029  0.00  0.00    +0.140 A 
ATOM     22  F   LIG    1      -21.733  87.731  16.290  0.00  0.00    -0.204 F 
ATOM     23  C   LIG    1      -22.554  87.892  14.112  0.00  0.00    +0.127 A 
ENDBRANCH  10  19
ENDBRANCH   1  11
BRANCH   4  24
ATOM     24  C   LIG    1      -25.333  81.709  12.664  0.00  0.00    +0.249 C 
ATOM     25  N   LIG    1      -25.227  83.068  12.451  0.00  0.00    -0.308 N 
ATOM     26  H   LIG    1      -24.646  83.586  13.097  0.00  0.00    +0.149 HD
ATOM     27  O   LIG    1      -25.987  80.973  11.947  0.00  0.00    -0.270 OA
BRANCH  25  28
ATOM     28  C   LIG    1      -25.941  83.722  11.349  0.00  0.00    +0.073 C 
ATOM     29  C   LIG    1      -25.264  85.010  10.823  0.00  0.00    +0.022 C 
ATOM     30  C   LIG    1      -26.685  85.595  10.679  0.00  0.00    +0.004 C 
ATOM     31  C   LIG    1      -27.110  84.629  11.805  0.00  0.00    +0.022 C 
ENDBRANCH  25  28
ENDBRANCH   4  24
TORSDOF 4
ENDMDL
