MODEL 1
REMARK VINA RESULT:      -7.2      0.000      0.000
REMARK  Name = pdb/CHEMBL281948.pdb
REMARK                            x       y       z     vdW  Elec       q    Type
REMARK                         _______ _______ _______ _____ _____    ______ ____
ROOT
ATOM      1  C   LIG    1      -42.140  70.353  21.436  0.00  0.00    +0.214 C 
ATOM      2  C   LIG    1      -42.073  70.524  22.974  0.00  0.00    +0.186 C 
ATOM      3  N   LIG    1      -40.916  71.321  23.419  0.00  0.00    -0.306 N 
ATOM      4  C   LIG    1      -40.781  72.671  23.616  0.00  0.00    +0.077 A 
ATOM      5  C   LIG    1      -41.696  73.668  23.290  0.00  0.00    +0.077 A 
ATOM      6  N   LIG    1      -42.888  73.459  22.685  0.00  0.00    -0.311 N 
ATOM      7  C   LIG    1      -43.393  74.759  22.594  0.00  0.00    +0.052 A 
ATOM      8  C   LIG    1      -44.625  75.188  22.067  0.00  0.00    +0.026 A 
ATOM      9  C   LIG    1      -44.933  76.549  22.069  0.00  0.00    +0.002 A 
ATOM     10  C   LIG    1      -44.040  77.480  22.578  0.00  0.00    +0.001 A 
ATOM     11  C   LIG    1      -42.808  77.076  23.104  0.00  0.00    +0.010 A 
ATOM     12  C   LIG    1      -42.443  75.710  23.135  0.00  0.00    +0.008 A 
ATOM     13  C   LIG    1      -43.414  72.221  22.192  0.00  0.00    +0.226 C 
ATOM     14  C   LIG    1      -41.314  74.979  23.589  0.00  0.00    +0.022 A 
ATOM     15  C   LIG    1      -40.125  75.485  24.150  0.00  0.00    +0.052 A 
ATOM     16  C   LIG    1      -39.567  76.770  24.465  0.00  0.00    +0.245 C 
ATOM     17  O   LIG    1      -39.955  77.915  24.366  0.00  0.00    -0.270 OA
ATOM     18  N   LIG    1      -38.303  76.454  24.970  0.00  0.00    -0.307 N 
ATOM     19  H   LIG    1      -37.685  77.202  25.250  0.00  0.00    +0.149 HD
ATOM     20  C   LIG    1      -37.956  75.042  25.016  0.00  0.00    +0.141 C 
ATOM     21  C   LIG    1      -39.190  74.483  24.472  0.00  0.00    -0.008 A 
ATOM     22  C   LIG    1      -39.602  73.168  24.179  0.00  0.00    +0.015 A 
ATOM     23  C   LIG    1      -38.847  71.989  24.360  0.00  0.00    +0.008 A 
ATOM     24  C   LIG    1      -37.565  71.708  24.891  0.00  0.00    +0.010 A 
ATOM     25  C   LIG    1      -37.059  70.408  24.898  0.00  0.00    +0.001 A 
ATOM     26  C   LIG    1      -37.795  69.368  24.356  0.00  0.00    +0.002 A 
ATOM     27  C   LIG    1      -39.064  69.592  23.815  0.00  0.00    +0.026 A 
ATOM     28  C   LIG    1      -39.631  70.884  23.841  0.00  0.00    +0.053 A 
ATOM     29  C   LIG    1      -42.226  69.223  23.778  0.00  0.00    +0.070 C 
ATOM     30  O   LIG    1      -43.263  71.289  23.270  0.00  0.00    -0.327 OA
ATOM     31  C   LIG    1      -42.635  71.712  20.976  0.00  0.00    +0.106 C 
ENDROOT
BRANCH   1  32
ATOM     32  C   LIG    1      -43.149  69.277  20.984  0.00  0.00    +0.344 C 
ATOM     33  O   LIG    1      -44.363  69.448  21.031  0.00  0.00    -0.247 OA
BRANCH  32  35
ATOM     34  C   LIG    1      -43.192  66.911  21.013  0.00  0.00    +0.280 C 
ATOM     35  O   LIG    1      -42.549  68.122  20.600  0.00  0.00    -0.466 OA
ENDBRANCH  32  35
ENDBRANCH   1  32
BRANCH   1  36
ATOM     36  O   LIG    1      -40.872  70.056  20.844  0.00  0.00    -0.374 OA
ATOM     37  H   LIG    1      -40.939  69.173  20.428  0.00  0.00    +0.211 HD
ENDBRANCH   1  36
TORSDOF 3
ENDMDL
MODEL 2
REMARK VINA RESULT:      -6.9      3.888      6.095
REMARK  Name = pdb/CHEMBL281948.pdb
REMARK                            x       y       z     vdW  Elec       q    Type
REMARK                         _______ _______ _______ _____ _____    ______ ____
ROOT
ATOM      1  C   LIG    1      -35.828  70.551  25.621  0.00  0.00    +0.214 C 
ATOM      2  C   LIG    1      -36.419  71.068  26.956  0.00  0.00    +0.186 C 
ATOM      3  N   LIG    1      -36.086  72.478  27.229  0.00  0.00    -0.306 N 
ATOM      4  C   LIG    1      -36.744  73.634  26.896  0.00  0.00    +0.077 A 
ATOM      5  C   LIG    1      -37.851  73.766  26.061  0.00  0.00    +0.077 A 
ATOM      6  N   LIG    1      -38.452  72.747  25.405  0.00  0.00    -0.311 N 
ATOM      7  C   LIG    1      -39.479  73.412  24.730  0.00  0.00    +0.052 A 
ATOM      8  C   LIG    1      -40.469  72.873  23.886  0.00  0.00    +0.026 A 
ATOM      9  C   LIG    1      -41.407  73.725  23.302  0.00  0.00    +0.002 A 
ATOM     10  C   LIG    1      -41.372  75.091  23.537  0.00  0.00    +0.001 A 
ATOM     11  C   LIG    1      -40.396  75.649  24.370  0.00  0.00    +0.010 A 
ATOM     12  C   LIG    1      -39.423  74.836  24.995  0.00  0.00    +0.008 A 
ATOM     13  C   LIG    1      -38.050  71.374  25.364  0.00  0.00    +0.226 C 
ATOM     14  C   LIG    1      -38.332  75.065  25.876  0.00  0.00    +0.022 A 
ATOM     15  C   LIG    1      -37.868  76.298  26.374  0.00  0.00    +0.052 A 
ATOM     16  C   LIG    1      -38.206  77.687  26.241  0.00  0.00    +0.245 C 
ATOM     17  O   LIG    1      -39.060  78.303  25.637  0.00  0.00    -0.270 OA
ATOM     18  N   LIG    1      -37.242  78.327  27.025  0.00  0.00    -0.307 N 
ATOM     19  H   LIG    1      -37.245  79.335  27.082  0.00  0.00    +0.149 HD
ATOM     20  C   LIG    1      -36.264  77.470  27.680  0.00  0.00    +0.141 C 
ATOM     21  C   LIG    1      -36.742  76.173  27.210  0.00  0.00    -0.008 A 
ATOM     22  C   LIG    1      -36.284  74.855  27.398  0.00  0.00    +0.015 A 
ATOM     23  C   LIG    1      -35.157  74.454  28.148  0.00  0.00    +0.008 A 
ATOM     24  C   LIG    1      -34.206  75.137  28.944  0.00  0.00    +0.010 A 
ATOM     25  C   LIG    1      -33.148  74.453  29.545  0.00  0.00    +0.001 A 
ATOM     26  C   LIG    1      -32.993  73.092  29.347  0.00  0.00    +0.002 A 
ATOM     27  C   LIG    1      -33.901  72.371  28.566  0.00  0.00    +0.026 A 
ATOM     28  C   LIG    1      -35.014  73.019  27.989  0.00  0.00    +0.053 A 
ATOM     29  C   LIG    1      -36.161  70.165  28.172  0.00  0.00    +0.070 C 
ATOM     30  O   LIG    1      -37.844  70.997  26.731  0.00  0.00    -0.327 OA
ATOM     31  C   LIG    1      -36.744  71.183  24.589  0.00  0.00    +0.106 C 
ENDROOT
BRANCH   1  32
ATOM     32  C   LIG    1      -35.898  69.016  25.475  0.00  0.00    +0.344 C 
ATOM     33  O   LIG    1      -36.962  68.409  25.395  0.00  0.00    -0.247 OA
BRANCH  32  35
ATOM     34  C   LIG    1      -34.586  67.210  26.260  0.00  0.00    +0.280 C 
ATOM     35  O   LIG    1      -34.676  68.427  25.512  0.00  0.00    -0.466 OA
ENDBRANCH  32  35
ENDBRANCH   1  32
BRANCH   1  36
ATOM     36  O   LIG    1      -34.473  70.960  25.406  0.00  0.00    -0.374 OA
ATOM     37  H   LIG    1      -34.189  71.467  26.191  0.00  0.00    +0.211 HD
ENDBRANCH   1  36
TORSDOF 3
ENDMDL
MODEL 3
REMARK VINA RESULT:      -6.7      4.693      9.871
REMARK  Name = pdb/CHEMBL281948.pdb
REMARK                            x       y       z     vdW  Elec       q    Type
REMARK                         _______ _______ _______ _____ _____    ______ ____
ROOT
ATOM      1  C   LIG    1      -35.873  76.046  27.402  0.00  0.00    +0.214 C 
ATOM      2  C   LIG    1      -36.990  75.075  27.860  0.00  0.00    +0.186 C 
ATOM      3  N   LIG    1      -37.295  74.032  26.865  0.00  0.00    -0.306 N 
ATOM      4  C   LIG    1      -36.764  72.780  26.687  0.00  0.00    +0.077 A 
ATOM      5  C   LIG    1      -35.665  72.228  27.340  0.00  0.00    +0.077 A 
ATOM      6  N   LIG    1      -34.908  72.869  28.259  0.00  0.00    -0.311 N 
ATOM      7  C   LIG    1      -33.966  71.889  28.584  0.00  0.00    +0.052 A 
ATOM      8  C   LIG    1      -32.910  71.958  29.513  0.00  0.00    +0.026 A 
ATOM      9  C   LIG    1      -32.074  70.853  29.680  0.00  0.00    +0.002 A 
ATOM     10  C   LIG    1      -32.266  69.696  28.941  0.00  0.00    +0.001 A 
ATOM     11  C   LIG    1      -33.308  69.606  28.011  0.00  0.00    +0.010 A 
ATOM     12  C   LIG    1      -34.191  70.690  27.802  0.00  0.00    +0.008 A 
ATOM     13  C   LIG    1      -35.017  74.230  28.688  0.00  0.00    +0.226 C 
ATOM     14  C   LIG    1      -35.319  70.925  26.971  0.00  0.00    +0.022 A 
ATOM     15  C   LIG    1      -35.881  70.060  26.012  0.00  0.00    +0.052 A 
ATOM     16  C   LIG    1      -35.620  68.750  25.488  0.00  0.00    +0.245 C 
ATOM     17  O   LIG    1      -34.794  67.889  25.713  0.00  0.00    -0.270 OA
ATOM     18  N   LIG    1      -36.608  68.593  24.511  0.00  0.00    -0.307 N 
ATOM     19  H   LIG    1      -36.630  67.744  23.966  0.00  0.00    +0.149 HD
ATOM     20  C   LIG    1      -37.523  69.710  24.329  0.00  0.00    +0.141 C 
ATOM     21  C   LIG    1      -36.986  70.616  25.340  0.00  0.00    -0.008 A 
ATOM     22  C   LIG    1      -37.330  71.922  25.739  0.00  0.00    +0.015 A 
ATOM     23  C   LIG    1      -38.361  72.723  25.202  0.00  0.00    +0.008 A 
ATOM     24  C   LIG    1      -39.356  72.522  24.215  0.00  0.00    +0.010 A 
ATOM     25  C   LIG    1      -40.235  73.547  23.861  0.00  0.00    +0.001 A 
ATOM     26  C   LIG    1      -40.128  74.794  24.451  0.00  0.00    +0.002 A 
ATOM     27  C   LIG    1      -39.160  75.047  25.427  0.00  0.00    +0.026 A 
ATOM     28  C   LIG    1      -38.291  74.019  25.851  0.00  0.00    +0.053 A 
ATOM     29  C   LIG    1      -38.260  75.754  28.398  0.00  0.00    +0.070 C 
ATOM     30  O   LIG    1      -36.402  74.419  29.005  0.00  0.00    -0.327 OA
ATOM     31  C   LIG    1      -34.618  75.212  27.584  0.00  0.00    +0.106 C 
ENDROOT
BRANCH   1  32
ATOM     32  C   LIG    1      -35.763  77.309  28.282  0.00  0.00    +0.344 C 
ATOM     33  O   LIG    1      -35.402  77.268  29.454  0.00  0.00    -0.247 OA
BRANCH  32  35
ATOM     34  C   LIG    1      -35.514  79.648  28.023  0.00  0.00    +0.280 C 
ATOM     35  O   LIG    1      -36.168  78.434  27.639  0.00  0.00    -0.466 OA
ENDBRANCH  32  35
ENDBRANCH   1  32
BRANCH   1  36
ATOM     36  O   LIG    1      -36.007  76.459  26.039  0.00  0.00    -0.374 OA
ATOM     37  H   LIG    1      -35.716  75.716  25.474  0.00  0.00    +0.211 HD
ENDBRANCH   1  36
TORSDOF 3
ENDMDL
MODEL 4
REMARK VINA RESULT:      -6.7      2.697      6.607
REMARK  Name = pdb/CHEMBL281948.pdb
REMARK                            x       y       z     vdW  Elec       q    Type
REMARK                         _______ _______ _______ _____ _____    ______ ____
ROOT
ATOM      1  C   LIG    1      -39.245  76.953  26.376  0.00  0.00    +0.214 C 
ATOM      2  C   LIG    1      -38.906  76.510  24.931  0.00  0.00    +0.186 C 
ATOM      3  N   LIG    1      -39.673  75.331  24.491  0.00  0.00    -0.306 N 
ATOM      4  C   LIG    1      -40.887  75.235  23.860  0.00  0.00    +0.077 A 
ATOM      5  C   LIG    1      -41.789  76.265  23.604  0.00  0.00    +0.077 A 
ATOM      6  N   LIG    1      -41.618  77.555  23.973  0.00  0.00    -0.311 N 
ATOM      7  C   LIG    1      -42.784  78.148  23.484  0.00  0.00    +0.052 A 
ATOM      8  C   LIG    1      -43.177  79.498  23.545  0.00  0.00    +0.026 A 
ATOM      9  C   LIG    1      -44.399  79.881  22.992  0.00  0.00    +0.002 A 
ATOM     10  C   LIG    1      -45.231  78.949  22.390  0.00  0.00    +0.001 A 
ATOM     11  C   LIG    1      -44.862  77.601  22.320  0.00  0.00    +0.010 A 
ATOM     12  C   LIG    1      -43.633  77.154  22.857  0.00  0.00    +0.008 A 
ATOM     13  C   LIG    1      -40.549  78.109  24.749  0.00  0.00    +0.226 C 
ATOM     14  C   LIG    1      -42.969  75.903  22.948  0.00  0.00    +0.022 A 
ATOM     15  C   LIG    1      -43.430  74.645  22.513  0.00  0.00    +0.052 A 
ATOM     16  C   LIG    1      -44.606  74.108  21.889  0.00  0.00    +0.245 C 
ATOM     17  O   LIG    1      -45.650  74.580  21.487  0.00  0.00    -0.270 OA
ATOM     18  N   LIG    1      -44.332  72.740  21.814  0.00  0.00    -0.307 N 
ATOM     19  H   LIG    1      -45.028  72.120  21.426  0.00  0.00    +0.149 HD
ATOM     20  C   LIG    1      -43.052  72.304  22.350  0.00  0.00    +0.141 C 
ATOM     21  C   LIG    1      -42.528  73.598  22.779  0.00  0.00    -0.008 A 
ATOM     22  C   LIG    1      -41.338  73.986  23.425  0.00  0.00    +0.015 A 
ATOM     23  C   LIG    1      -40.291  73.137  23.843  0.00  0.00    +0.008 A 
ATOM     24  C   LIG    1      -40.043  71.747  23.736  0.00  0.00    +0.010 A 
ATOM     25  C   LIG    1      -38.903  71.174  24.302  0.00  0.00    +0.001 A 
ATOM     26  C   LIG    1      -38.005  71.957  25.007  0.00  0.00    +0.002 A 
ATOM     27  C   LIG    1      -38.204  73.333  25.146  0.00  0.00    +0.026 A 
ATOM     28  C   LIG    1      -39.316  73.956  24.540  0.00  0.00    +0.053 A 
ATOM     29  C   LIG    1      -37.405  76.371  24.631  0.00  0.00    +0.070 C 
ATOM     30  O   LIG    1      -39.346  77.632  24.134  0.00  0.00    -0.327 OA
ATOM     31  C   LIG    1      -40.591  77.633  26.203  0.00  0.00    +0.106 C 
ENDROOT
BRANCH   1  32
ATOM     32  C   LIG    1      -38.242  77.973  26.954  0.00  0.00    +0.344 C 
ATOM     33  O   LIG    1      -38.241  79.156  26.627  0.00  0.00    -0.247 OA
BRANCH  32  35
ATOM     34  C   LIG    1      -36.081  78.075  27.913  0.00  0.00    +0.280 C 
ATOM     35  O   LIG    1      -37.341  77.406  27.795  0.00  0.00    -0.466 OA
ENDBRANCH  32  35
ENDBRANCH   1  32
BRANCH   1  36
ATOM     36  O   LIG    1      -39.351  75.859  27.293  0.00  0.00    -0.374 OA
ATOM     37  H   LIG    1      -40.047  76.084  27.942  0.00  0.00    +0.211 HD
ENDBRANCH   1  36
TORSDOF 3
ENDMDL
MODEL 5
REMARK VINA RESULT:      -6.6     20.195     24.242
REMARK  Name = pdb/CHEMBL281948.pdb
REMARK                            x       y       z     vdW  Elec       q    Type
REMARK                         _______ _______ _______ _____ _____    ______ ____
ROOT
ATOM      1  C   LIG    1      -23.658  79.175  36.475  0.00  0.00    +0.214 C 
ATOM      2  C   LIG    1      -22.679  80.198  35.845  0.00  0.00    +0.186 C 
ATOM      3  N   LIG    1      -21.325  79.653  35.640  0.00  0.00    -0.306 N 
ATOM      4  C   LIG    1      -20.776  78.998  34.568  0.00  0.00    +0.077 A 
ATOM      5  C   LIG    1      -21.434  78.543  33.429  0.00  0.00    +0.077 A 
ATOM      6  N   LIG    1      -22.763  78.654  33.205  0.00  0.00    -0.311 N 
ATOM      7  C   LIG    1      -22.892  78.052  31.951  0.00  0.00    +0.052 A 
ATOM      8  C   LIG    1      -24.052  77.882  31.172  0.00  0.00    +0.026 A 
ATOM      9  C   LIG    1      -23.958  77.241  29.936  0.00  0.00    +0.002 A 
ATOM     10  C   LIG    1      -22.741  76.767  29.471  0.00  0.00    +0.001 A 
ATOM     11  C   LIG    1      -21.575  76.924  30.228  0.00  0.00    +0.010 A 
ATOM     12  C   LIG    1      -21.607  77.570  31.486  0.00  0.00    +0.008 A 
ATOM     13  C   LIG    1      -23.760  79.173  34.093  0.00  0.00    +0.226 C 
ATOM     14  C   LIG    1      -20.643  77.893  32.477  0.00  0.00    +0.022 A 
ATOM     15  C   LIG    1      -19.268  77.584  32.480  0.00  0.00    +0.052 A 
ATOM     16  C   LIG    1      -18.338  76.896  31.631  0.00  0.00    +0.245 C 
ATOM     17  O   LIG    1      -18.417  76.330  30.560  0.00  0.00    -0.270 OA
ATOM     18  N   LIG    1      -17.137  76.975  32.342  0.00  0.00    -0.307 N 
ATOM     19  H   LIG    1      -16.311  76.536  31.962  0.00  0.00    +0.149 HD
ATOM     20  C   LIG    1      -17.185  77.665  33.622  0.00  0.00    +0.141 C 
ATOM     21  C   LIG    1      -18.598  78.032  33.634  0.00  0.00    -0.008 A 
ATOM     22  C   LIG    1      -19.410  78.700  34.572  0.00  0.00    +0.015 A 
ATOM     23  C   LIG    1      -19.005  79.208  35.825  0.00  0.00    +0.008 A 
ATOM     24  C   LIG    1      -17.768  79.280  36.509  0.00  0.00    +0.010 A 
ATOM     25  C   LIG    1      -17.686  79.820  37.793  0.00  0.00    +0.001 A 
ATOM     26  C   LIG    1      -18.827  80.271  38.435  0.00  0.00    +0.002 A 
ATOM     27  C   LIG    1      -20.074  80.218  37.806  0.00  0.00    +0.026 A 
ATOM     28  C   LIG    1      -20.186  79.730  36.487  0.00  0.00    +0.053 A 
ATOM     29  C   LIG    1      -22.653  81.575  36.527  0.00  0.00    +0.070 C 
ATOM     30  O   LIG    1      -23.250  80.435  34.540  0.00  0.00    -0.327 OA
ATOM     31  C   LIG    1      -23.976  78.263  35.305  0.00  0.00    +0.106 C 
ENDROOT
BRANCH   1  32
ATOM     32  C   LIG    1      -24.969  79.815  36.979  0.00  0.00    +0.344 C 
ATOM     33  O   LIG    1      -25.794  80.314  36.220  0.00  0.00    -0.247 OA
BRANCH  32  35
ATOM     34  C   LIG    1      -25.385  81.076  38.937  0.00  0.00    +0.280 C 
ATOM     35  O   LIG    1      -25.065  79.819  38.333  0.00  0.00    -0.466 OA
ENDBRANCH  32  35
ENDBRANCH   1  32
BRANCH   1  36
ATOM     36  O   LIG    1      -23.081  78.428  37.551  0.00  0.00    -0.374 OA
ATOM     37  H   LIG    1      -23.493  78.739  38.381  0.00  0.00    +0.211 HD
ENDBRANCH   1  36
TORSDOF 3
ENDMDL
MODEL 6
REMARK VINA RESULT:      -6.6      2.056      3.194
REMARK  Name = pdb/CHEMBL281948.pdb
REMARK                            x       y       z     vdW  Elec       q    Type
REMARK                         _______ _______ _______ _____ _____    ______ ____
ROOT
ATOM      1  C   LIG    1      -44.230  73.458  21.040  0.00  0.00    +0.214 C 
ATOM      2  C   LIG    1      -44.048  73.099  22.535  0.00  0.00    +0.186 C 
ATOM      3  N   LIG    1      -42.635  72.960  22.930  0.00  0.00    -0.306 N 
ATOM      4  C   LIG    1      -41.742  73.885  23.406  0.00  0.00    +0.077 A 
ATOM      5  C   LIG    1      -41.922  75.263  23.497  0.00  0.00    +0.077 A 
ATOM      6  N   LIG    1      -43.028  75.929  23.092  0.00  0.00    -0.311 N 
ATOM      7  C   LIG    1      -42.693  77.250  23.402  0.00  0.00    +0.052 A 
ATOM      8  C   LIG    1      -43.463  78.415  23.227  0.00  0.00    +0.026 A 
ATOM      9  C   LIG    1      -42.931  79.649  23.603  0.00  0.00    +0.002 A 
ATOM     10  C   LIG    1      -41.654  79.740  24.138  0.00  0.00    +0.001 A 
ATOM     11  C   LIG    1      -40.871  78.595  24.318  0.00  0.00    +0.010 A 
ATOM     12  C   LIG    1      -41.358  77.317  23.962  0.00  0.00    +0.008 A 
ATOM     13  C   LIG    1      -44.180  75.392  22.432  0.00  0.00    +0.226 C 
ATOM     14  C   LIG    1      -40.848  75.993  24.016  0.00  0.00    +0.022 A 
ATOM     15  C   LIG    1      -39.575  75.574  24.447  0.00  0.00    +0.052 A 
ATOM     16  C   LIG    1      -38.373  76.183  24.943  0.00  0.00    +0.245 C 
ATOM     17  O   LIG    1      -38.032  77.322  25.187  0.00  0.00    -0.270 OA
ATOM     18  N   LIG    1      -37.512  75.096  25.116  0.00  0.00    -0.307 N 
ATOM     19  H   LIG    1      -36.571  75.262  25.442  0.00  0.00    +0.149 HD
ATOM     20  C   LIG    1      -38.041  73.786  24.768  0.00  0.00    +0.141 C 
ATOM     21  C   LIG    1      -39.382  74.183  24.348  0.00  0.00    -0.008 A 
ATOM     22  C   LIG    1      -40.481  73.464  23.840  0.00  0.00    +0.015 A 
ATOM     23  C   LIG    1      -40.540  72.075  23.598  0.00  0.00    +0.008 A 
ATOM     24  C   LIG    1      -39.645  70.998  23.801  0.00  0.00    +0.010 A 
ATOM     25  C   LIG    1      -39.980  69.700  23.411  0.00  0.00    +0.001 A 
ATOM     26  C   LIG    1      -41.191  69.449  22.790  0.00  0.00    +0.002 A 
ATOM     27  C   LIG    1      -42.110  70.477  22.561  0.00  0.00    +0.026 A 
ATOM     28  C   LIG    1      -41.828  71.791  22.991  0.00  0.00    +0.053 A 
ATOM     29  C   LIG    1      -44.906  71.923  23.029  0.00  0.00    +0.070 C 
ATOM     30  O   LIG    1      -44.573  74.259  23.216  0.00  0.00    -0.327 OA
ATOM     31  C   LIG    1      -43.860  74.930  21.008  0.00  0.00    +0.106 C 
ENDROOT
BRANCH   1  32
ATOM     32  C   LIG    1      -45.683  73.299  20.546  0.00  0.00    +0.344 C 
ATOM     33  O   LIG    1      -46.579  74.073  20.870  0.00  0.00    -0.247 OA
BRANCH  32  35
ATOM     34  C   LIG    1      -46.614  72.370  18.578  0.00  0.00    +0.280 C 
ATOM     35  O   LIG    1      -45.861  72.191  19.782  0.00  0.00    -0.466 OA
ENDBRANCH  32  35
ENDBRANCH   1  32
BRANCH   1  36
ATOM     36  O   LIG    1      -43.376  72.709  20.169  0.00  0.00    -0.374 OA
ATOM     37  H   LIG    1      -42.511  73.164  20.139  0.00  0.00    +0.211 HD
ENDBRANCH   1  36
TORSDOF 3
ENDMDL
MODEL 7
REMARK VINA RESULT:      -6.4      1.812      7.976
REMARK  Name = pdb/CHEMBL281948.pdb
REMARK                            x       y       z     vdW  Elec       q    Type
REMARK                         _______ _______ _______ _____ _____    ______ ____
ROOT
ATOM      1  C   LIG    1      -38.611  76.637  25.068  0.00  0.00    +0.214 C 
ATOM      2  C   LIG    1      -39.890  75.982  25.645  0.00  0.00    +0.186 C 
ATOM      3  N   LIG    1      -40.733  75.350  24.615  0.00  0.00    -0.306 N 
ATOM      4  C   LIG    1      -40.730  74.074  24.114  0.00  0.00    +0.077 A 
ATOM      5  C   LIG    1      -39.797  73.071  24.363  0.00  0.00    +0.077 A 
ATOM      6  N   LIG    1      -38.699  73.209  25.140  0.00  0.00    -0.311 N 
ATOM      7  C   LIG    1      -38.126  71.938  25.052  0.00  0.00    +0.052 A 
ATOM      8  C   LIG    1      -36.957  71.455  25.672  0.00  0.00    +0.026 A 
ATOM      9  C   LIG    1      -36.555  70.139  25.441  0.00  0.00    +0.002 A 
ATOM     10  C   LIG    1      -37.287  69.306  24.608  0.00  0.00    +0.001 A 
ATOM     11  C   LIG    1      -38.450  69.766  23.980  0.00  0.00    +0.010 A 
ATOM     12  C   LIG    1      -38.911  71.087  24.180  0.00  0.00    +0.008 A 
ATOM     13  C   LIG    1      -38.230  74.397  25.788  0.00  0.00    +0.226 C 
ATOM     14  C   LIG    1      -40.017  71.849  23.719  0.00  0.00    +0.022 A 
ATOM     15  C   LIG    1      -41.025  71.453  22.818  0.00  0.00    +0.052 A 
ATOM     16  C   LIG    1      -41.355  70.288  22.048  0.00  0.00    +0.245 C 
ATOM     17  O   LIG    1      -40.865  69.186  21.914  0.00  0.00    -0.270 OA
ATOM     18  N   LIG    1      -42.502  70.680  21.351  0.00  0.00    -0.307 N 
ATOM     19  H   LIG    1      -42.931  70.033  20.706  0.00  0.00    +0.149 HD
ATOM     20  C   LIG    1      -42.974  72.036  21.589  0.00  0.00    +0.141 C 
ATOM     21  C   LIG    1      -41.965  72.466  22.553  0.00  0.00    -0.008 A 
ATOM     22  C   LIG    1      -41.736  73.682  23.225  0.00  0.00    +0.015 A 
ATOM     23  C   LIG    1      -42.496  74.866  23.107  0.00  0.00    +0.008 A 
ATOM     24  C   LIG    1      -43.667  75.222  22.396  0.00  0.00    +0.010 A 
ATOM     25  C   LIG    1      -44.172  76.522  22.446  0.00  0.00    +0.001 A 
ATOM     26  C   LIG    1      -43.514  77.499  23.174  0.00  0.00    +0.002 A 
ATOM     27  C   LIG    1      -42.352  77.202  23.890  0.00  0.00    +0.026 A 
ATOM     28  C   LIG    1      -41.843  75.886  23.908  0.00  0.00    +0.053 A 
ATOM     29  C   LIG    1      -40.704  76.875  26.594  0.00  0.00    +0.070 C 
ATOM     30  O   LIG    1      -39.366  74.926  26.481  0.00  0.00    -0.327 OA
ATOM     31  C   LIG    1      -37.727  75.436  24.783  0.00  0.00    +0.106 C 
ENDROOT
BRANCH   1  32
ATOM     32  C   LIG    1      -37.890  77.560  26.072  0.00  0.00    +0.344 C 
ATOM     33  O   LIG    1      -36.906  77.199  26.712  0.00  0.00    -0.247 OA
BRANCH  32  35
ATOM     34  C   LIG    1      -38.054  79.574  27.304  0.00  0.00    +0.280 C 
ATOM     35  O   LIG    1      -38.498  78.765  26.209  0.00  0.00    -0.466 OA
ENDBRANCH  32  35
ENDBRANCH   1  32
BRANCH   1  36
ATOM     36  O   LIG    1      -38.848  77.379  23.867  0.00  0.00    -0.374 OA
ATOM     37  H   LIG    1      -38.323  76.965  23.154  0.00  0.00    +0.211 HD
ENDBRANCH   1  36
TORSDOF 3
ENDMDL
MODEL 8
REMARK VINA RESULT:      -6.4     21.854     25.176
REMARK  Name = pdb/CHEMBL281948.pdb
REMARK                            x       y       z     vdW  Elec       q    Type
REMARK                         _______ _______ _______ _____ _____    ______ ____
ROOT
ATOM      1  C   LIG    1      -20.616  86.235  12.655  0.00  0.00    +0.214 C 
ATOM      2  C   LIG    1      -22.110  86.530  12.936  0.00  0.00    +0.186 C 
ATOM      3  N   LIG    1      -23.026  85.756  12.080  0.00  0.00    -0.306 N 
ATOM      4  C   LIG    1      -23.598  84.523  12.265  0.00  0.00    +0.077 A 
ATOM      5  C   LIG    1      -23.326  83.609  13.279  0.00  0.00    +0.077 A 
ATOM      6  N   LIG    1      -22.406  83.786  14.256  0.00  0.00    -0.311 N 
ATOM      7  C   LIG    1      -22.536  82.602  14.986  0.00  0.00    +0.052 A 
ATOM      8  C   LIG    1      -21.846  82.205  16.148  0.00  0.00    +0.026 A 
ATOM      9  C   LIG    1      -22.128  80.964  16.720  0.00  0.00    +0.002 A 
ATOM     10  C   LIG    1      -23.072  80.118  16.156  0.00  0.00    +0.001 A 
ATOM     11  C   LIG    1      -23.767  80.491  15.001  0.00  0.00    +0.010 A 
ATOM     12  C   LIG    1      -23.529  81.738  14.379  0.00  0.00    +0.008 A 
ATOM     13  C   LIG    1      -21.490  84.876  14.408  0.00  0.00    +0.226 C 
ATOM     14  C   LIG    1      -24.045  82.411  13.240  0.00  0.00    +0.022 A 
ATOM     15  C   LIG    1      -25.000  81.942  12.317  0.00  0.00    +0.052 A 
ATOM     16  C   LIG    1      -25.772  80.749  12.109  0.00  0.00    +0.245 C 
ATOM     17  O   LIG    1      -25.883  79.692  12.694  0.00  0.00    -0.270 OA
ATOM     18  N   LIG    1      -26.478  81.027  10.935  0.00  0.00    -0.307 N 
ATOM     19  H   LIG    1      -27.091  80.322  10.552  0.00  0.00    +0.149 HD
ATOM     20  C   LIG    1      -26.238  82.326  10.325  0.00  0.00    +0.141 C 
ATOM     21  C   LIG    1      -25.272  82.856  11.283  0.00  0.00    -0.008 A 
ATOM     22  C   LIG    1      -24.551  84.064  11.350  0.00  0.00    +0.015 A 
ATOM     23  C   LIG    1      -24.600  85.128  10.424  0.00  0.00    +0.008 A 
ATOM     24  C   LIG    1      -25.344  85.378   9.246  0.00  0.00    +0.010 A 
ATOM     25  C   LIG    1      -25.137  86.538   8.498  0.00  0.00    +0.001 A 
ATOM     26  C   LIG    1      -24.173  87.455   8.882  0.00  0.00    +0.002 A 
ATOM     27  C   LIG    1      -23.408  87.253  10.034  0.00  0.00    +0.026 A 
ATOM     28  C   LIG    1      -23.628  86.120  10.845  0.00  0.00    +0.053 A 
ATOM     29  C   LIG    1      -22.479  88.022  12.980  0.00  0.00    +0.070 C 
ATOM     30  O   LIG    1      -22.286  86.061  14.291  0.00  0.00    -0.327 OA
ATOM     31  C   LIG    1      -20.420  84.881  13.313  0.00  0.00    +0.106 C 
ENDROOT
BRANCH   1  32
ATOM     32  C   LIG    1      -19.658  87.251  13.311  0.00  0.00    +0.344 C 
ATOM     33  O   LIG    1      -19.500  87.320  14.526  0.00  0.00    -0.247 OA
BRANCH  32  35
ATOM     34  C   LIG    1      -17.672  87.898  12.199  0.00  0.00    +0.280 C 
ATOM     35  O   LIG    1      -19.076  88.082  12.410  0.00  0.00    -0.466 OA
ENDBRANCH  32  35
ENDBRANCH   1  32
BRANCH   1  36
ATOM     36  O   LIG    1      -20.307  86.163  11.259  0.00  0.00    -0.374 OA
ATOM     37  H   LIG    1      -21.070  86.525  10.768  0.00  0.00    +0.211 HD
ENDBRANCH   1  36
TORSDOF 3
ENDMDL
MODEL 9
REMARK VINA RESULT:      -6.3     16.480     20.359
REMARK  Name = pdb/CHEMBL281948.pdb
REMARK                            x       y       z     vdW  Elec       q    Type
REMARK                         _______ _______ _______ _____ _____    ______ ____
ROOT
ATOM      1  C   LIG    1      -26.832  74.955  32.856  0.00  0.00    +0.214 C 
ATOM      2  C   LIG    1      -27.006  76.479  32.644  0.00  0.00    +0.186 C 
ATOM      3  N   LIG    1      -26.312  77.289  33.661  0.00  0.00    -0.306 N 
ATOM      4  C   LIG    1      -25.037  77.794  33.688  0.00  0.00    +0.077 A 
ATOM      5  C   LIG    1      -24.005  77.529  32.791  0.00  0.00    +0.077 A 
ATOM      6  N   LIG    1      -24.091  76.686  31.738  0.00  0.00    -0.311 N 
ATOM      7  C   LIG    1      -22.811  76.787  31.187  0.00  0.00    +0.052 A 
ATOM      8  C   LIG    1      -22.292  76.149  30.045  0.00  0.00    +0.026 A 
ATOM      9  C   LIG    1      -20.969  76.388  29.669  0.00  0.00    +0.002 A 
ATOM     10  C   LIG    1      -20.162  77.239  30.409  0.00  0.00    +0.001 A 
ATOM     11  C   LIG    1      -20.656  77.882  31.549  0.00  0.00    +0.010 A 
ATOM     12  C   LIG    1      -21.990  77.684  31.976  0.00  0.00    +0.008 A 
ATOM     13  C   LIG    1      -25.196  75.851  31.373  0.00  0.00    +0.226 C 
ATOM     14  C   LIG    1      -22.788  78.168  33.045  0.00  0.00    +0.022 A 
ATOM     15  C   LIG    1      -22.403  79.032  34.089  0.00  0.00    +0.052 A 
ATOM     16  C   LIG    1      -21.213  79.713  34.514  0.00  0.00    +0.245 C 
ATOM     17  O   LIG    1      -20.079  79.794  34.089  0.00  0.00    -0.270 OA
ATOM     18  N   LIG    1      -21.615  80.360  35.685  0.00  0.00    -0.307 N 
ATOM     19  H   LIG    1      -20.940  80.902  36.204  0.00  0.00    +0.149 HD
ATOM     20  C   LIG    1      -22.998  80.163  36.094  0.00  0.00    +0.141 C 
ATOM     21  C   LIG    1      -23.439  79.295  35.006  0.00  0.00    -0.008 A 
ATOM     22  C   LIG    1      -24.662  78.656  34.722  0.00  0.00    +0.015 A 
ATOM     23  C   LIG    1      -25.841  78.713  35.496  0.00  0.00    +0.008 A 
ATOM     24  C   LIG    1      -26.215  79.396  36.678  0.00  0.00    +0.010 A 
ATOM     25  C   LIG    1      -27.478  79.215  37.244  0.00  0.00    +0.001 A 
ATOM     26  C   LIG    1      -28.381  78.336  36.670  0.00  0.00    +0.002 A 
ATOM     27  C   LIG    1      -28.060  77.634  35.505  0.00  0.00    +0.026 A 
ATOM     28  C   LIG    1      -26.814  77.834  34.874  0.00  0.00    +0.053 A 
ATOM     29  C   LIG    1      -28.455  76.943  32.423  0.00  0.00    +0.070 C 
ATOM     30  O   LIG    1      -26.342  76.711  31.382  0.00  0.00    -0.327 OA
ATOM     31  C   LIG    1      -25.412  74.716  32.378  0.00  0.00    +0.106 C 
ENDROOT
BRANCH   1  32
ATOM     32  C   LIG    1      -27.796  74.105  32.001  0.00  0.00    +0.344 C 
ATOM     33  O   LIG    1      -29.007  74.301  31.980  0.00  0.00    -0.247 OA
BRANCH  32  35
ATOM     34  C   LIG    1      -27.576  71.770  31.687  0.00  0.00    +0.280 C 
ATOM     35  O   LIG    1      -27.167  73.098  31.344  0.00  0.00    -0.466 OA
ENDBRANCH  32  35
ENDBRANCH   1  32
BRANCH   1  36
ATOM     36  O   LIG    1      -26.974  74.554  34.223  0.00  0.00    -0.374 OA
ATOM     37  H   LIG    1      -26.781  73.597  34.273  0.00  0.00    +0.211 HD
ENDBRANCH   1  36
TORSDOF 3
ENDMDL
