MODEL 1
REMARK VINA RESULT:      -7.3      0.000      0.000
REMARK  Name = pdb/CHEMBL3928224.pdb
REMARK                            x       y       z     vdW  Elec       q    Type
REMARK                         _______ _______ _______ _____ _____    ______ ____
ROOT
ATOM      1  C   LIG    1      -26.225  82.717  37.183  0.00  0.00    +0.323 A 
ATOM      2  N   LIG    1      -27.451  82.284  37.509  0.00  0.00    -0.201 NA
ATOM      3  C   LIG    1      -28.485  83.038  37.084  0.00  0.00    +0.145 A 
ATOM      4  C   LIG    1      -28.364  84.207  36.360  0.00  0.00    +0.105 A 
ATOM      5  C   LIG    1      -27.047  84.582  36.145  0.00  0.00    +0.145 A 
ATOM      6  N   LIG    1      -25.962  83.864  36.536  0.00  0.00    -0.201 NA
ENDROOT
BRANCH   4   7
ATOM      7  N   LIG    1      -29.432  85.029  35.920  0.00  0.00    -0.196 NA
ATOM      8  C   LIG    1      -29.967  84.897  34.759  0.00  0.00    +0.285 C 
BRANCH   8   9
ATOM      9  N   LIG    1      -31.024  85.588  34.238  0.00  0.00    -0.267 N 
ATOM     10  H   LIG    1      -31.957  85.298  34.518  0.00  0.00    +0.157 HD
BRANCH   9  11
ATOM     11  C   LIG    1      -31.050  86.356  33.052  0.00  0.00    +0.061 A 
ATOM     12  C   LIG    1      -30.131  87.414  32.842  0.00  0.00    +0.087 A 
ATOM     13  C   LIG    1      -30.130  88.117  31.624  0.00  0.00    +0.030 A 
ATOM     14  C   LIG    1      -31.030  87.779  30.612  0.00  0.00    +0.014 A 
ATOM     15  C   LIG    1      -31.942  86.736  30.796  0.00  0.00    +0.057 A 
ATOM     16  C   LIG    1      -31.950  86.050  32.018  0.00  0.00    +0.037 A 
BRANCH  12  17
ATOM     17  N   LIG    1      -29.206  87.803  33.855  0.00  0.00    -0.238 N 
ATOM     18  N   LIG    1      -29.614  88.477  34.976  0.00  0.00    -0.175 NA
ATOM     19  C   LIG    1      -28.486  88.682  35.666  0.00  0.00    +0.135 A 
ATOM     20  C   LIG    1      -27.369  88.085  35.067  0.00  0.00    +0.041 A 
ATOM     21  C   LIG    1      -27.850  87.549  33.897  0.00  0.00    +0.114 A 
ENDBRANCH  12  17
BRANCH  15  22
ATOM     22  C   LIG    1      -32.893  86.342  29.693  0.00  0.00    +0.417 C 
ATOM     23  F   LIG    1      -33.024  87.321  28.755  0.00  0.00    -0.166 F 
ATOM     24  F   LIG    1      -34.150  86.096  30.156  0.00  0.00    -0.166 F 
ATOM     25  F   LIG    1      -32.519  85.223  29.015  0.00  0.00    -0.166 F 
ENDBRANCH  15  22
ENDBRANCH   9  11
ENDBRANCH   8   9
BRANCH   8  26
ATOM     26  O   LIG    1      -29.525  84.000  33.860  0.00  0.00    -0.481 OA
ATOM     27  H   LIG    1      -28.645  84.239  33.538  0.00  0.00    +0.295 HD
ENDBRANCH   8  26
ENDBRANCH   4   7
BRANCH   1  28
ATOM     28  O   LIG    1      -25.128  81.954  37.565  0.00  0.00    -0.424 OA
BRANCH  28  32
ATOM     29  C   LIG    1      -23.442  79.495  34.591  0.00  0.00    +0.002 A 
ATOM     30  C   LIG    1      -22.824  80.687  35.006  0.00  0.00    +0.013 A 
ATOM     31  C   LIG    1      -23.395  81.487  36.010  0.00  0.00    +0.047 A 
ATOM     32  C   LIG    1      -24.589  81.103  36.622  0.00  0.00    +0.132 A 
ATOM     33  C   LIG    1      -25.222  79.935  36.197  0.00  0.00    +0.047 A 
ATOM     34  C   LIG    1      -24.652  79.144  35.199  0.00  0.00    +0.013 A 
BRANCH  29  38
ATOM     35  C   LIG    1      -25.274  77.214  31.376  0.00  0.00    +0.233 A 
ATOM     36  N   LIG    1      -24.918  77.949  32.372  0.00  0.00    -0.127 NA
ATOM     37  N   LIG    1      -23.554  77.969  32.551  0.00  0.00    -0.209 N 
ATOM     38  C   LIG    1      -22.854  78.659  33.535  0.00  0.00    +0.093 A 
ATOM     39  C   LIG    1      -21.526  78.371  33.255  0.00  0.00    +0.141 A 
ATOM     40  N   LIG    1      -21.388  77.548  32.166  0.00  0.00    -0.234 NA
ATOM     41  C   LIG    1      -22.615  77.313  31.764  0.00  0.00    +0.155 A 
ATOM     42  C   LIG    1      -23.093  76.523  30.691  0.00  0.00    +0.053 A 
ATOM     43  C   LIG    1      -24.411  76.430  30.476  0.00  0.00    +0.072 A 
BRANCH  35  45
ATOM     44  C   LIG    1      -27.503  76.664  31.958  0.00  0.00    +0.279 C 
ATOM     45  O   LIG    1      -26.556  77.070  30.964  0.00  0.00    -0.479 OA
ENDBRANCH  35  45
ENDBRANCH  29  38
ENDBRANCH  28  32
ENDBRANCH   1  28
TORSDOF 10
ENDMDL
MODEL 2
REMARK VINA RESULT:      -7.0      3.046      4.336
REMARK  Name = pdb/CHEMBL3928224.pdb
REMARK                            x       y       z     vdW  Elec       q    Type
REMARK                         _______ _______ _______ _____ _____    ______ ____
ROOT
ATOM      1  C   LIG    1      -25.894  81.545  36.958  0.00  0.00    +0.323 A 
ATOM      2  N   LIG    1      -27.192  81.314  37.202  0.00  0.00    -0.201 NA
ATOM      3  C   LIG    1      -28.019  82.372  37.089  0.00  0.00    +0.145 A 
ATOM      4  C   LIG    1      -27.624  83.652  36.756  0.00  0.00    +0.105 A 
ATOM      5  C   LIG    1      -26.253  83.774  36.595  0.00  0.00    +0.145 A 
ATOM      6  N   LIG    1      -25.366  82.749  36.683  0.00  0.00    -0.201 NA
ENDROOT
BRANCH   4   7
ATOM      7  N   LIG    1      -28.469  84.785  36.653  0.00  0.00    -0.196 NA
ATOM      8  C   LIG    1      -29.018  85.134  35.544  0.00  0.00    +0.285 C 
BRANCH   8   9
ATOM      9  N   LIG    1      -29.883  86.168  35.324  0.00  0.00    -0.267 N 
ATOM     10  H   LIG    1      -30.877  85.971  35.400  0.00  0.00    +0.157 HD
BRANCH   9  11
ATOM     11  C   LIG    1      -29.640  87.352  34.593  0.00  0.00    +0.061 A 
ATOM     12  C   LIG    1      -30.251  87.576  33.334  0.00  0.00    +0.087 A 
ATOM     13  C   LIG    1      -30.051  88.793  32.658  0.00  0.00    +0.030 A 
ATOM     14  C   LIG    1      -29.252  89.790  33.220  0.00  0.00    +0.014 A 
ATOM     15  C   LIG    1      -28.643  89.593  34.463  0.00  0.00    +0.057 A 
ATOM     16  C   LIG    1      -28.832  88.372  35.123  0.00  0.00    +0.037 A 
BRANCH  12  17
ATOM     17  N   LIG    1      -31.061  86.578  32.716  0.00  0.00    -0.238 N 
ATOM     18  N   LIG    1      -32.051  85.933  33.407  0.00  0.00    -0.175 NA
ATOM     19  C   LIG    1      -32.566  85.072  32.521  0.00  0.00    +0.135 A 
ATOM     20  C   LIG    1      -31.994  85.202  31.249  0.00  0.00    +0.041 A 
ATOM     21  C   LIG    1      -31.017  86.155  31.403  0.00  0.00    +0.114 A 
ENDBRANCH  12  17
BRANCH  15  22
ATOM     22  C   LIG    1      -27.809  90.680  35.092  0.00  0.00    +0.417 C 
ATOM     23  F   LIG    1      -27.689  91.769  34.282  0.00  0.00    -0.166 F 
ATOM     24  F   LIG    1      -26.537  90.270  35.357  0.00  0.00    -0.166 F 
ATOM     25  F   LIG    1      -28.305  91.145  36.271  0.00  0.00    -0.166 F 
ENDBRANCH  15  22
ENDBRANCH   9  11
ENDBRANCH   8   9
BRANCH   8  26
ATOM     26  O   LIG    1      -28.796  84.476  34.392  0.00  0.00    -0.481 OA
ATOM     27  H   LIG    1      -29.076  83.553  34.463  0.00  0.00    +0.295 HD
ENDBRANCH   8  26
ENDBRANCH   4   7
BRANCH   1  28
ATOM     28  O   LIG    1      -25.005  80.478  37.023  0.00  0.00    -0.424 OA
BRANCH  28  32
ATOM     29  C   LIG    1      -24.398  78.375  33.426  0.00  0.00    +0.002 A 
ATOM     30  C   LIG    1      -23.576  79.450  33.804  0.00  0.00    +0.013 A 
ATOM     31  C   LIG    1      -23.785  80.130  35.015  0.00  0.00    +0.047 A 
ATOM     32  C   LIG    1      -24.816  79.740  35.872  0.00  0.00    +0.132 A 
ATOM     33  C   LIG    1      -25.653  78.691  35.491  0.00  0.00    +0.047 A 
ATOM     34  C   LIG    1      -25.441  78.018  34.287  0.00  0.00    +0.013 A 
BRANCH  29  38
ATOM     35  C   LIG    1      -20.791  77.602  31.125  0.00  0.00    +0.233 A 
ATOM     36  N   LIG    1      -21.737  77.916  31.941  0.00  0.00    -0.127 NA
ATOM     37  N   LIG    1      -22.969  77.483  31.510  0.00  0.00    -0.209 N 
ATOM     38  C   LIG    1      -24.188  77.666  32.155  0.00  0.00    +0.093 A 
ATOM     39  C   LIG    1      -25.096  77.021  31.328  0.00  0.00    +0.141 A 
ATOM     40  N   LIG    1      -24.498  76.467  30.225  0.00  0.00    -0.234 NA
ATOM     41  C   LIG    1      -23.224  76.762  30.349  0.00  0.00    +0.155 A 
ATOM     42  C   LIG    1      -22.127  76.462  29.508  0.00  0.00    +0.053 A 
ATOM     43  C   LIG    1      -20.901  76.880  29.847  0.00  0.00    +0.072 A 
BRANCH  35  45
ATOM     44  C   LIG    1      -19.099  78.096  32.708  0.00  0.00    +0.279 C 
ATOM     45  O   LIG    1      -19.482  77.872  31.347  0.00  0.00    -0.479 OA
ENDBRANCH  35  45
ENDBRANCH  29  38
ENDBRANCH  28  32
ENDBRANCH   1  28
TORSDOF 10
ENDMDL
MODEL 3
REMARK VINA RESULT:      -6.9      1.959      2.851
REMARK  Name = pdb/CHEMBL3928224.pdb
REMARK                            x       y       z     vdW  Elec       q    Type
REMARK                         _______ _______ _______ _____ _____    ______ ____
ROOT
ATOM      1  C   LIG    1      -25.845  81.371  37.113  0.00  0.00    +0.323 A 
ATOM      2  N   LIG    1      -27.169  81.229  37.269  0.00  0.00    -0.201 NA
ATOM      3  C   LIG    1      -27.903  82.358  37.202  0.00  0.00    +0.145 A 
ATOM      4  C   LIG    1      -27.391  83.623  36.999  0.00  0.00    +0.105 A 
ATOM      5  C   LIG    1      -26.007  83.644  36.920  0.00  0.00    +0.145 A 
ATOM      6  N   LIG    1      -25.210  82.545  36.968  0.00  0.00    -0.201 NA
ENDROOT
BRANCH   4   7
ATOM      7  N   LIG    1      -28.138  84.826  36.946  0.00  0.00    -0.196 NA
ATOM      8  C   LIG    1      -28.516  85.352  35.836  0.00  0.00    +0.285 C 
BRANCH   8   9
ATOM      9  N   LIG    1      -29.274  86.474  35.654  0.00  0.00    -0.267 N 
ATOM     10  H   LIG    1      -29.897  86.745  36.409  0.00  0.00    +0.157 HD
BRANCH   9  11
ATOM     11  C   LIG    1      -29.649  87.070  34.429  0.00  0.00    +0.061 A 
ATOM     12  C   LIG    1      -29.057  88.280  33.990  0.00  0.00    +0.087 A 
ATOM     13  C   LIG    1      -29.393  88.817  32.735  0.00  0.00    +0.030 A 
ATOM     14  C   LIG    1      -30.310  88.163  31.910  0.00  0.00    +0.014 A 
ATOM     15  C   LIG    1      -30.903  86.965  32.320  0.00  0.00    +0.057 A 
ATOM     16  C   LIG    1      -30.576  86.445  33.579  0.00  0.00    +0.037 A 
BRANCH  12  17
ATOM     17  N   LIG    1      -28.129  88.990  34.809  0.00  0.00    -0.238 N 
ATOM     18  N   LIG    1      -27.014  88.379  35.319  0.00  0.00    -0.175 NA
ATOM     19  C   LIG    1      -26.413  89.336  36.036  0.00  0.00    +0.135 A 
ATOM     20  C   LIG    1      -27.061  90.574  35.935  0.00  0.00    +0.041 A 
ATOM     21  C   LIG    1      -28.169  90.323  35.163  0.00  0.00    +0.114 A 
ENDBRANCH  12  17
BRANCH  15  22
ATOM     22  C   LIG    1      -31.865  86.235  31.418  0.00  0.00    +0.417 C 
ATOM     23  F   LIG    1      -31.328  85.090  30.912  0.00  0.00    -0.166 F 
ATOM     24  F   LIG    1      -32.234  86.983  30.340  0.00  0.00    -0.166 F 
ATOM     25  F   LIG    1      -33.024  85.866  32.029  0.00  0.00    -0.166 F 
ENDBRANCH  15  22
ENDBRANCH   9  11
ENDBRANCH   8   9
BRANCH   8  26
ATOM     26  O   LIG    1      -28.194  84.824  34.642  0.00  0.00    -0.481 OA
ATOM     27  H   LIG    1      -27.920  83.901  34.736  0.00  0.00    +0.295 HD
ENDBRANCH   8  26
ENDBRANCH   4   7
BRANCH   1  28
ATOM     28  O   LIG    1      -25.047  80.232  37.136  0.00  0.00    -0.424 OA
BRANCH  28  32
ATOM     29  C   LIG    1      -24.410  78.385  33.405  0.00  0.00    +0.002 A 
ATOM     30  C   LIG    1      -23.617  79.458  33.847  0.00  0.00    +0.013 A 
ATOM     31  C   LIG    1      -23.836  80.052  35.101  0.00  0.00    +0.047 A 
ATOM     32  C   LIG    1      -24.846  79.577  35.938  0.00  0.00    +0.132 A 
ATOM     33  C   LIG    1      -25.655  78.530  35.496  0.00  0.00    +0.047 A 
ATOM     34  C   LIG    1      -25.434  77.943  34.249  0.00  0.00    +0.013 A 
BRANCH  29  38
ATOM     35  C   LIG    1      -20.757  77.350  31.288  0.00  0.00    +0.233 A 
ATOM     36  N   LIG    1      -21.718  77.714  32.065  0.00  0.00    -0.127 NA
ATOM     37  N   LIG    1      -22.956  77.483  31.513  0.00  0.00    -0.209 N 
ATOM     38  C   LIG    1      -24.190  77.766  32.091  0.00  0.00    +0.093 A 
ATOM     39  C   LIG    1      -25.104  77.318  31.147  0.00  0.00    +0.141 A 
ATOM     40  N   LIG    1      -24.493  76.787  30.039  0.00  0.00    -0.234 NA
ATOM     41  C   LIG    1      -23.207  76.903  30.275  0.00  0.00    +0.155 A 
ATOM     42  C   LIG    1      -22.092  76.536  29.484  0.00  0.00    +0.053 A 
ATOM     43  C   LIG    1      -20.855  76.761  29.943  0.00  0.00    +0.072 A 
BRANCH  35  45
ATOM     44  C   LIG    1      -18.618  76.336  31.209  0.00  0.00    +0.279 C 
ATOM     45  O   LIG    1      -19.446  77.428  31.621  0.00  0.00    -0.479 OA
ENDBRANCH  35  45
ENDBRANCH  29  38
ENDBRANCH  28  32
ENDBRANCH   1  28
TORSDOF 10
ENDMDL
MODEL 4
REMARK VINA RESULT:      -6.6      5.607     12.055
REMARK  Name = pdb/CHEMBL3928224.pdb
REMARK                            x       y       z     vdW  Elec       q    Type
REMARK                         _______ _______ _______ _____ _____    ______ ____
ROOT
ATOM      1  C   LIG    1      -33.242  76.805  29.738  0.00  0.00    +0.323 A 
ATOM      2  N   LIG    1      -32.198  76.717  28.902  0.00  0.00    -0.201 NA
ATOM      3  C   LIG    1      -31.049  76.246  29.428  0.00  0.00    +0.145 A 
ATOM      4  C   LIG    1      -30.879  75.868  30.745  0.00  0.00    +0.105 A 
ATOM      5  C   LIG    1      -32.011  76.069  31.519  0.00  0.00    +0.145 A 
ATOM      6  N   LIG    1      -33.201  76.528  31.051  0.00  0.00    -0.201 NA
ENDROOT
BRANCH   4   7
ATOM      7  N   LIG    1      -29.679  75.392  31.327  0.00  0.00    -0.196 NA
ATOM      8  C   LIG    1      -28.737  76.182  31.705  0.00  0.00    +0.285 C 
BRANCH   8   9
ATOM      9  N   LIG    1      -27.561  75.855  32.317  0.00  0.00    -0.267 N 
ATOM     10  H   LIG    1      -27.587  75.116  33.015  0.00  0.00    +0.157 HD
BRANCH   9  11
ATOM     11  C   LIG    1      -26.407  76.659  32.451  0.00  0.00    +0.061 A 
ATOM     12  C   LIG    1      -26.149  77.380  33.642  0.00  0.00    +0.087 A 
ATOM     13  C   LIG    1      -24.958  78.116  33.779  0.00  0.00    +0.030 A 
ATOM     14  C   LIG    1      -24.021  78.142  32.745  0.00  0.00    +0.014 A 
ATOM     15  C   LIG    1      -24.253  77.434  31.561  0.00  0.00    +0.057 A 
ATOM     16  C   LIG    1      -25.449  76.717  31.425  0.00  0.00    +0.037 A 
BRANCH  12  17
ATOM     17  N   LIG    1      -27.086  77.394  34.717  0.00  0.00    -0.238 N 
ATOM     18  N   LIG    1      -28.358  77.874  34.550  0.00  0.00    -0.175 NA
ATOM     19  C   LIG    1      -28.920  77.747  35.758  0.00  0.00    +0.135 A 
ATOM     20  C   LIG    1      -28.077  77.118  36.683  0.00  0.00    +0.041 A 
ATOM     21  C   LIG    1      -26.900  76.923  36.001  0.00  0.00    +0.114 A 
ENDBRANCH  12  17
BRANCH  15  22
ATOM     22  C   LIG    1      -23.229  77.429  30.455  0.00  0.00    +0.417 C 
ATOM     23  F   LIG    1      -21.982  77.736  30.909  0.00  0.00    -0.166 F 
ATOM     24  F   LIG    1      -23.509  78.342  29.484  0.00  0.00    -0.166 F 
ATOM     25  F   LIG    1      -23.110  76.232  29.818  0.00  0.00    -0.166 F 
ENDBRANCH  15  22
ENDBRANCH   9  11
ENDBRANCH   8   9
BRANCH   8  26
ATOM     26  O   LIG    1      -28.805  77.515  31.536  0.00  0.00    -0.481 OA
ATOM     27  H   LIG    1      -29.218  77.735  30.689  0.00  0.00    +0.295 HD
ENDBRANCH   8  26
ENDBRANCH   4   7
BRANCH   1  28
ATOM     28  O   LIG    1      -34.460  77.248  29.235  0.00  0.00    -0.424 OA
BRANCH  28  32
ATOM     29  C   LIG    1      -34.975  81.424  29.067  0.00  0.00    +0.002 A 
ATOM     30  C   LIG    1      -34.553  80.683  27.950  0.00  0.00    +0.013 A 
ATOM     31  C   LIG    1      -34.400  79.288  28.022  0.00  0.00    +0.047 A 
ATOM     32  C   LIG    1      -34.677  78.611  29.210  0.00  0.00    +0.132 A 
ATOM     33  C   LIG    1      -35.071  79.342  30.330  0.00  0.00    +0.047 A 
ATOM     34  C   LIG    1      -35.221  80.727  30.255  0.00  0.00    +0.013 A 
BRANCH  29  38
ATOM     35  C   LIG    1      -32.783  84.636  31.009  0.00  0.00    +0.233 A 
ATOM     36  N   LIG    1      -33.302  83.562  30.523  0.00  0.00    -0.127 NA
ATOM     37  N   LIG    1      -34.355  83.821  29.678  0.00  0.00    -0.209 N 
ATOM     38  C   LIG    1      -35.128  82.884  28.999  0.00  0.00    +0.093 A 
ATOM     39  C   LIG    1      -36.019  83.660  28.273  0.00  0.00    +0.141 A 
ATOM     40  N   LIG    1      -35.832  85.003  28.477  0.00  0.00    -0.234 NA
ATOM     41  C   LIG    1      -34.835  85.078  29.329  0.00  0.00    +0.155 A 
ATOM     42  C   LIG    1      -34.209  86.206  29.912  0.00  0.00    +0.053 A 
ATOM     43  C   LIG    1      -33.197  86.028  30.770  0.00  0.00    +0.072 A 
BRANCH  35  45
ATOM     44  C   LIG    1      -31.968  84.804  33.227  0.00  0.00    +0.279 C 
ATOM     45  O   LIG    1      -31.705  84.650  31.828  0.00  0.00    -0.479 OA
ENDBRANCH  35  45
ENDBRANCH  29  38
ENDBRANCH  28  32
ENDBRANCH   1  28
TORSDOF 10
ENDMDL
MODEL 5
REMARK VINA RESULT:      -6.6      2.492      3.619
REMARK  Name = pdb/CHEMBL3928224.pdb
REMARK                            x       y       z     vdW  Elec       q    Type
REMARK                         _______ _______ _______ _____ _____    ______ ____
ROOT
ATOM      1  C   LIG    1      -26.037  82.305  37.297  0.00  0.00    +0.323 A 
ATOM      2  N   LIG    1      -27.293  81.862  37.446  0.00  0.00    -0.201 NA
ATOM      3  C   LIG    1      -28.274  82.715  37.089  0.00  0.00    +0.145 A 
ATOM      4  C   LIG    1      -28.074  83.991  36.603  0.00  0.00    +0.105 A 
ATOM      5  C   LIG    1      -26.737  84.353  36.559  0.00  0.00    +0.145 A 
ATOM      6  N   LIG    1      -25.700  83.541  36.892  0.00  0.00    -0.201 NA
ENDROOT
BRANCH   4   7
ATOM      7  N   LIG    1      -29.086  84.914  36.242  0.00  0.00    -0.196 NA
ATOM      8  C   LIG    1      -29.508  85.035  35.034  0.00  0.00    +0.285 C 
BRANCH   8   9
ATOM      9  N   LIG    1      -30.503  85.847  34.569  0.00  0.00    -0.267 N 
ATOM     10  H   LIG    1      -31.402  85.418  34.368  0.00  0.00    +0.157 HD
BRANCH   9  11
ATOM     11  C   LIG    1      -30.364  87.094  33.919  0.00  0.00    +0.061 A 
ATOM     12  C   LIG    1      -31.102  87.398  32.748  0.00  0.00    +0.087 A 
ATOM     13  C   LIG    1      -31.000  88.672  32.160  0.00  0.00    +0.030 A 
ATOM     14  C   LIG    1      -30.175  89.646  32.723  0.00  0.00    +0.014 A 
ATOM     15  C   LIG    1      -29.441  89.370  33.881  0.00  0.00    +0.057 A 
ATOM     16  C   LIG    1      -29.533  88.094  34.452  0.00  0.00    +0.037 A 
BRANCH  12  17
ATOM     17  N   LIG    1      -31.944  86.426  32.131  0.00  0.00    -0.238 N 
ATOM     18  N   LIG    1      -31.423  85.357  31.452  0.00  0.00    -0.175 NA
ATOM     19  C   LIG    1      -32.497  84.695  31.005  0.00  0.00    +0.135 A 
ATOM     20  C   LIG    1      -33.701  85.258  31.448  0.00  0.00    +0.041 A 
ATOM     21  C   LIG    1      -33.323  86.378  32.147  0.00  0.00    +0.114 A 
ENDBRANCH  12  17
BRANCH  15  22
ATOM     22  C   LIG    1      -28.577  90.430  34.514  0.00  0.00    +0.417 C 
ATOM     23  F   LIG    1      -28.181  91.374  33.616  0.00  0.00    -0.166 F 
ATOM     24  F   LIG    1      -27.432  89.916  35.046  0.00  0.00    -0.166 F 
ATOM     25  F   LIG    1      -29.185  91.108  35.525  0.00  0.00    -0.166 F 
ENDBRANCH  15  22
ENDBRANCH   9  11
ENDBRANCH   8   9
BRANCH   8  26
ATOM     26  O   LIG    1      -28.988  84.326  34.016  0.00  0.00    -0.481 OA
ATOM     27  H   LIG    1      -29.040  83.377  34.195  0.00  0.00    +0.295 HD
ENDBRANCH   8  26
ENDBRANCH   4   7
BRANCH   1  28
ATOM     28  O   LIG    1      -24.988  81.449  37.614  0.00  0.00    -0.424 OA
BRANCH  28  32
ATOM     29  C   LIG    1      -23.096  79.326  34.508  0.00  0.00    +0.002 A 
ATOM     30  C   LIG    1      -24.263  78.849  35.129  0.00  0.00    +0.013 A 
ATOM     31  C   LIG    1      -24.888  79.579  36.154  0.00  0.00    +0.047 A 
ATOM     32  C   LIG    1      -24.361  80.802  36.569  0.00  0.00    +0.132 A 
ATOM     33  C   LIG    1      -23.188  81.270  35.976  0.00  0.00    +0.047 A 
ATOM     34  C   LIG    1      -22.570  80.541  34.958  0.00  0.00    +0.013 A 
BRANCH  29  38
ATOM     35  C   LIG    1      -24.710  77.048  31.176  0.00  0.00    +0.233 A 
ATOM     36  N   LIG    1      -24.423  77.770  32.203  0.00  0.00    -0.127 NA
ATOM     37  N   LIG    1      -23.068  77.865  32.418  0.00  0.00    -0.209 N 
ATOM     38  C   LIG    1      -22.434  78.562  33.441  0.00  0.00    +0.093 A 
ATOM     39  C   LIG    1      -21.085  78.363  33.187  0.00  0.00    +0.141 A 
ATOM     40  N   LIG    1      -20.871  77.586  32.077  0.00  0.00    -0.234 NA
ATOM     41  C   LIG    1      -22.072  77.291  31.635  0.00  0.00    +0.155 A 
ATOM     42  C   LIG    1      -22.476  76.511  30.526  0.00  0.00    +0.053 A 
ATOM     43  C   LIG    1      -23.781  76.347  30.274  0.00  0.00    +0.072 A 
BRANCH  35  45
ATOM     44  C   LIG    1      -26.940  76.449  31.704  0.00  0.00    +0.279 C 
ATOM     45  O   LIG    1      -25.971  76.842  30.726  0.00  0.00    -0.479 OA
ENDBRANCH  35  45
ENDBRANCH  29  38
ENDBRANCH  28  32
ENDBRANCH   1  28
TORSDOF 10
ENDMDL
MODEL 6
REMARK VINA RESULT:      -6.6     19.301     22.646
REMARK  Name = pdb/CHEMBL3928224.pdb
REMARK                            x       y       z     vdW  Elec       q    Type
REMARK                         _______ _______ _______ _____ _____    ______ ____
ROOT
ATOM      1  C   LIG    1      -24.796  78.890  14.987  0.00  0.00    +0.323 A 
ATOM      2  N   LIG    1      -25.728  79.667  14.419  0.00  0.00    -0.201 NA
ATOM      3  C   LIG    1      -26.508  79.083  13.487  0.00  0.00    +0.145 A 
ATOM      4  C   LIG    1      -26.404  77.768  13.081  0.00  0.00    +0.105 A 
ATOM      5  C   LIG    1      -25.361  77.090  13.694  0.00  0.00    +0.145 A 
ATOM      6  N   LIG    1      -24.547  77.615  14.647  0.00  0.00    -0.201 NA
ENDROOT
BRANCH   4   7
ATOM      7  N   LIG    1      -27.194  77.137  12.090  0.00  0.00    -0.196 NA
ATOM      8  C   LIG    1      -28.380  76.701  12.331  0.00  0.00    +0.285 C 
BRANCH   8   9
ATOM      9  N   LIG    1      -29.255  76.121  11.457  0.00  0.00    -0.267 N 
ATOM     10  H   LIG    1      -28.889  75.409  10.831  0.00  0.00    +0.157 HD
BRANCH   9  11
ATOM     11  C   LIG    1      -30.479  76.648  10.988  0.00  0.00    +0.061 A 
ATOM     12  C   LIG    1      -31.618  75.822  10.820  0.00  0.00    +0.087 A 
ATOM     13  C   LIG    1      -32.845  76.383  10.421  0.00  0.00    +0.030 A 
ATOM     14  C   LIG    1      -32.953  77.755  10.189  0.00  0.00    +0.014 A 
ATOM     15  C   LIG    1      -31.843  78.590  10.352  0.00  0.00    +0.057 A 
ATOM     16  C   LIG    1      -30.620  78.023  10.734  0.00  0.00    +0.037 A 
BRANCH  12  17
ATOM     17  N   LIG    1      -31.548  74.413  11.031  0.00  0.00    -0.238 N 
ATOM     18  N   LIG    1      -31.256  73.888  12.261  0.00  0.00    -0.175 NA
ATOM     19  C   LIG    1      -31.259  72.564  12.065  0.00  0.00    +0.135 A 
ATOM     20  C   LIG    1      -31.631  72.214  10.760  0.00  0.00    +0.041 A 
ATOM     21  C   LIG    1      -31.788  73.414  10.110  0.00  0.00    +0.114 A 
ENDBRANCH  12  17
BRANCH  15  22
ATOM     22  C   LIG    1      -31.962  80.077  10.138  0.00  0.00    +0.417 C 
ATOM     23  F   LIG    1      -32.782  80.664  11.055  0.00  0.00    -0.166 F 
ATOM     24  F   LIG    1      -32.485  80.385   8.918  0.00  0.00    -0.166 F 
ATOM     25  F   LIG    1      -30.778  80.743  10.216  0.00  0.00    -0.166 F 
ENDBRANCH  15  22
ENDBRANCH   9  11
ENDBRANCH   8   9
BRANCH   8  26
ATOM     26  O   LIG    1      -28.939  76.773  13.551  0.00  0.00    -0.481 OA
ATOM     27  H   LIG    1      -29.765  77.276  13.523  0.00  0.00    +0.295 HD
ENDBRANCH   8  26
ENDBRANCH   4   7
BRANCH   1  28
ATOM     28  O   LIG    1      -23.992  79.434  15.982  0.00  0.00    -0.424 OA
BRANCH  28  32
ATOM     29  C   LIG    1      -21.094  82.198  14.678  0.00  0.00    +0.002 A 
ATOM     30  C   LIG    1      -21.925  81.512  13.775  0.00  0.00    +0.013 A 
ATOM     31  C   LIG    1      -22.896  80.604  14.230  0.00  0.00    +0.047 A 
ATOM     32  C   LIG    1      -23.058  80.374  15.597  0.00  0.00    +0.132 A 
ATOM     33  C   LIG    1      -22.220  81.031  16.498  0.00  0.00    +0.047 A 
ATOM     34  C   LIG    1      -21.256  81.932  16.041  0.00  0.00    +0.013 A 
BRANCH  29  38
ATOM     35  C   LIG    1      -21.330  86.412  13.640  0.00  0.00    +0.233 A 
ATOM     36  N   LIG    1      -21.454  85.181  13.997  0.00  0.00    -0.127 NA
ATOM     37  N   LIG    1      -20.272  84.484  13.902  0.00  0.00    -0.209 N 
ATOM     38  C   LIG    1      -20.071  83.141  14.206  0.00  0.00    +0.093 A 
ATOM     39  C   LIG    1      -18.717  82.951  13.970  0.00  0.00    +0.141 A 
ATOM     40  N   LIG    1      -18.096  84.096  13.539  0.00  0.00    -0.234 NA
ATOM     41  C   LIG    1      -19.047  85.000  13.498  0.00  0.00    +0.155 A 
ATOM     42  C   LIG    1      -19.001  86.363  13.118  0.00  0.00    +0.053 A 
ATOM     43  C   LIG    1      -20.120  87.096  13.155  0.00  0.00    +0.072 A 
BRANCH  35  45
ATOM     44  C   LIG    1      -22.297  88.256  14.770  0.00  0.00    +0.279 C 
ATOM     45  O   LIG    1      -22.337  87.318  13.690  0.00  0.00    -0.479 OA
ENDBRANCH  35  45
ENDBRANCH  29  38
ENDBRANCH  28  32
ENDBRANCH   1  28
TORSDOF 10
ENDMDL
MODEL 7
REMARK VINA RESULT:      -6.6     14.227     17.060
REMARK  Name = pdb/CHEMBL3928224.pdb
REMARK                            x       y       z     vdW  Elec       q    Type
REMARK                         _______ _______ _______ _____ _____    ______ ____
ROOT
ATOM      1  C   LIG    1      -41.185  77.558  25.883  0.00  0.00    +0.323 A 
ATOM      2  N   LIG    1      -40.044  78.166  26.238  0.00  0.00    -0.201 NA
ATOM      3  C   LIG    1      -39.830  79.390  25.714  0.00  0.00    +0.145 A 
ATOM      4  C   LIG    1      -40.685  80.039  24.847  0.00  0.00    +0.105 A 
ATOM      5  C   LIG    1      -41.794  79.280  24.506  0.00  0.00    +0.145 A 
ATOM      6  N   LIG    1      -42.075  78.048  25.005  0.00  0.00    -0.201 NA
ENDROOT
BRANCH   4   7
ATOM      7  N   LIG    1      -40.473  81.313  24.267  0.00  0.00    -0.196 NA
ATOM      8  C   LIG    1      -39.734  81.482  23.228  0.00  0.00    +0.285 C 
BRANCH   8   9
ATOM      9  N   LIG    1      -39.490  82.642  22.550  0.00  0.00    -0.267 N 
ATOM     10  H   LIG    1      -39.503  82.602  21.535  0.00  0.00    +0.157 HD
BRANCH   9  11
ATOM     11  C   LIG    1      -38.804  83.784  23.019  0.00  0.00    +0.061 A 
ATOM     12  C   LIG    1      -39.147  85.083  22.567  0.00  0.00    +0.087 A 
ATOM     13  C   LIG    1      -38.499  86.211  23.102  0.00  0.00    +0.030 A 
ATOM     14  C   LIG    1      -37.516  86.063  24.081  0.00  0.00    +0.014 A 
ATOM     15  C   LIG    1      -37.165  84.792  24.546  0.00  0.00    +0.057 A 
ATOM     16  C   LIG    1      -37.802  83.671  23.997  0.00  0.00    +0.037 A 
BRANCH  12  17
ATOM     17  N   LIG    1      -40.133  85.279  21.556  0.00  0.00    -0.238 N 
ATOM     18  N   LIG    1      -39.978  84.764  20.296  0.00  0.00    -0.175 NA
ATOM     19  C   LIG    1      -41.073  85.164  19.638  0.00  0.00    +0.135 A 
ATOM     20  C   LIG    1      -41.974  85.853  20.460  0.00  0.00    +0.041 A 
ATOM     21  C   LIG    1      -41.342  85.934  21.677  0.00  0.00    +0.114 A 
ENDBRANCH  12  17
BRANCH  15  22
ATOM     22  C   LIG    1      -36.130  84.628  25.630  0.00  0.00    +0.417 C 
ATOM     23  F   LIG    1      -36.473  85.287  26.771  0.00  0.00    -0.166 F 
ATOM     24  F   LIG    1      -34.914  85.121  25.264  0.00  0.00    -0.166 F 
ATOM     25  F   LIG    1      -35.914  83.335  25.996  0.00  0.00    -0.166 F 
ENDBRANCH  15  22
ENDBRANCH   9  11
ENDBRANCH   8   9
BRANCH   8  26
ATOM     26  O   LIG    1      -39.073  80.467  22.643  0.00  0.00    -0.481 OA
ATOM     27  H   LIG    1      -39.026  79.701  23.232  0.00  0.00    +0.295 HD
ENDBRANCH   8  26
ENDBRANCH   4   7
BRANCH   1  28
ATOM     28  O   LIG    1      -41.471  76.311  26.426  0.00  0.00    -0.424 OA
BRANCH  28  32
ATOM     29  C   LIG    1      -39.289  73.009  24.988  0.00  0.00    +0.002 A 
ATOM     30  C   LIG    1      -39.591  73.161  26.352  0.00  0.00    +0.013 A 
ATOM     31  C   LIG    1      -40.332  74.263  26.811  0.00  0.00    +0.047 A 
ATOM     32  C   LIG    1      -40.792  75.225  25.911  0.00  0.00    +0.132 A 
ATOM     33  C   LIG    1      -40.473  75.095  24.559  0.00  0.00    +0.047 A 
ATOM     34  C   LIG    1      -39.736  73.999  24.108  0.00  0.00    +0.013 A 
BRANCH  29  38
ATOM     35  C   LIG    1      -40.368  69.661  22.434  0.00  0.00    +0.233 A 
ATOM     36  N   LIG    1      -40.235  70.718  23.157  0.00  0.00    -0.127 NA
ATOM     37  N   LIG    1      -38.969  70.841  23.682  0.00  0.00    -0.209 N 
ATOM     38  C   LIG    1      -38.505  71.863  24.505  0.00  0.00    +0.093 A 
ATOM     39  C   LIG    1      -37.175  71.531  24.720  0.00  0.00    +0.141 A 
ATOM     40  N   LIG    1      -36.815  70.372  24.080  0.00  0.00    -0.234 NA
ATOM     41  C   LIG    1      -37.907  69.971  23.471  0.00  0.00    +0.155 A 
ATOM     42  C   LIG    1      -38.141  68.831  22.665  0.00  0.00    +0.053 A 
ATOM     43  C   LIG    1      -39.358  68.628  22.147  0.00  0.00    +0.072 A 
BRANCH  35  45
ATOM     44  C   LIG    1      -42.111  70.384  21.003  0.00  0.00    +0.279 C 
ATOM     45  O   LIG    1      -41.503  69.339  21.769  0.00  0.00    -0.479 OA
ENDBRANCH  35  45
ENDBRANCH  29  38
ENDBRANCH  28  32
ENDBRANCH   1  28
TORSDOF 10
ENDMDL
MODEL 8
REMARK VINA RESULT:      -6.6      7.257     11.762
REMARK  Name = pdb/CHEMBL3928224.pdb
REMARK                            x       y       z     vdW  Elec       q    Type
REMARK                         _______ _______ _______ _____ _____    ______ ____
ROOT
ATOM      1  C   LIG    1      -27.970  73.320  32.551  0.00  0.00    +0.323 A 
ATOM      2  N   LIG    1      -28.043  74.274  33.490  0.00  0.00    -0.201 NA
ATOM      3  C   LIG    1      -27.058  75.194  33.487  0.00  0.00    +0.145 A 
ATOM      4  C   LIG    1      -25.995  75.210  32.607  0.00  0.00    +0.105 A 
ATOM      5  C   LIG    1      -25.998  74.136  31.730  0.00  0.00    +0.145 A 
ATOM      6  N   LIG    1      -26.964  73.183  31.672  0.00  0.00    -0.201 NA
ENDROOT
BRANCH   4   7
ATOM      7  N   LIG    1      -24.936  76.151  32.597  0.00  0.00    -0.196 NA
ATOM      8  C   LIG    1      -25.002  77.253  31.938  0.00  0.00    +0.285 C 
BRANCH   8   9
ATOM      9  N   LIG    1      -24.076  78.256  31.885  0.00  0.00    -0.267 N 
ATOM     10  H   LIG    1      -23.758  78.551  30.966  0.00  0.00    +0.157 HD
BRANCH   9  11
ATOM     11  C   LIG    1      -23.179  78.653  32.901  0.00  0.00    +0.061 A 
ATOM     12  C   LIG    1      -21.803  78.321  32.836  0.00  0.00    +0.087 A 
ATOM     13  C   LIG    1      -20.915  78.789  33.822  0.00  0.00    +0.030 A 
ATOM     14  C   LIG    1      -21.380  79.583  34.871  0.00  0.00    +0.014 A 
ATOM     15  C   LIG    1      -22.733  79.927  34.953  0.00  0.00    +0.057 A 
ATOM     16  C   LIG    1      -23.615  79.444  33.977  0.00  0.00    +0.037 A 
BRANCH  12  17
ATOM     17  N   LIG    1      -21.288  77.498  31.790  0.00  0.00    -0.238 N 
ATOM     18  N   LIG    1      -21.569  76.159  31.731  0.00  0.00    -0.175 NA
ATOM     19  C   LIG    1      -20.909  75.731  30.649  0.00  0.00    +0.135 A 
ATOM     20  C   LIG    1      -20.277  76.771  29.955  0.00  0.00    +0.041 A 
ATOM     21  C   LIG    1      -20.514  77.890  30.717  0.00  0.00    +0.114 A 
ENDBRANCH  12  17
BRANCH  15  22
ATOM     22  C   LIG    1      -23.234  80.815  36.063  0.00  0.00    +0.417 C 
ATOM     23  F   LIG    1      -24.595  80.839  36.127  0.00  0.00    -0.166 F 
ATOM     24  F   LIG    1      -22.845  82.111  35.906  0.00  0.00    -0.166 F 
ATOM     25  F   LIG    1      -22.809  80.445  37.302  0.00  0.00    -0.166 F 
ENDBRANCH  15  22
ENDBRANCH   9  11
ENDBRANCH   8   9
BRANCH   8  26
ATOM     26  O   LIG    1      -26.062  77.574  31.176  0.00  0.00    -0.481 OA
ATOM     27  H   LIG    1      -26.020  78.500  30.898  0.00  0.00    +0.295 HD
ENDBRANCH   8  26
ENDBRANCH   4   7
BRANCH   1  28
ATOM     28  O   LIG    1      -28.983  72.371  32.488  0.00  0.00    -0.424 OA
BRANCH  28  32
ATOM     29  C   LIG    1      -32.310  73.389  30.115  0.00  0.00    +0.002 A 
ATOM     30  C   LIG    1      -31.238  72.637  29.606  0.00  0.00    +0.013 A 
ATOM     31  C   LIG    1      -30.143  72.295  30.417  0.00  0.00    +0.047 A 
ATOM     32  C   LIG    1      -30.107  72.692  31.754  0.00  0.00    +0.132 A 
ATOM     33  C   LIG    1      -31.155  73.462  32.260  0.00  0.00    +0.047 A 
ATOM     34  C   LIG    1      -32.240  73.800  31.451  0.00  0.00    +0.013 A 
BRANCH  29  38
ATOM     35  C   LIG    1      -33.246  77.062  27.987  0.00  0.00    +0.233 A 
ATOM     36  N   LIG    1      -32.798  76.065  28.668  0.00  0.00    -0.127 NA
ATOM     37  N   LIG    1      -33.643  74.981  28.634  0.00  0.00    -0.209 N 
ATOM     38  C   LIG    1      -33.453  73.758  29.268  0.00  0.00    +0.093 A 
ATOM     39  C   LIG    1      -34.566  73.018  28.893  0.00  0.00    +0.141 A 
ATOM     40  N   LIG    1      -35.412  73.725  28.077  0.00  0.00    -0.234 NA
ATOM     41  C   LIG    1      -34.845  74.901  27.941  0.00  0.00    +0.155 A 
ATOM     42  C   LIG    1      -35.265  76.044  27.219  0.00  0.00    +0.053 A 
ATOM     43  C   LIG    1      -34.508  77.148  27.233  0.00  0.00    +0.072 A 
BRANCH  35  45
ATOM     44  C   LIG    1      -32.256  78.596  26.478  0.00  0.00    +0.279 C 
ATOM     45  O   LIG    1      -32.576  78.228  27.824  0.00  0.00    -0.479 OA
ENDBRANCH  35  45
ENDBRANCH  29  38
ENDBRANCH  28  32
ENDBRANCH   1  28
TORSDOF 10
ENDMDL
MODEL 9
REMARK VINA RESULT:      -6.5      2.253      3.836
REMARK  Name = pdb/CHEMBL3928224.pdb
REMARK                            x       y       z     vdW  Elec       q    Type
REMARK                         _______ _______ _______ _____ _____    ______ ____
ROOT
ATOM      1  C   LIG    1      -26.752  83.505  36.929  0.00  0.00    +0.323 A 
ATOM      2  N   LIG    1      -26.584  84.546  36.101  0.00  0.00    -0.201 NA
ATOM      3  C   LIG    1      -27.698  85.026  35.511  0.00  0.00    +0.145 A 
ATOM      4  C   LIG    1      -28.969  84.520  35.692  0.00  0.00    +0.105 A 
ATOM      5  C   LIG    1      -28.999  83.406  36.516  0.00  0.00    +0.145 A 
ATOM      6  N   LIG    1      -27.919  82.879  37.150  0.00  0.00    -0.201 NA
ENDROOT
BRANCH   4   7
ATOM      7  N   LIG    1      -30.150  84.991  35.068  0.00  0.00    -0.196 NA
ATOM      8  C   LIG    1      -30.578  84.511  33.954  0.00  0.00    +0.285 C 
BRANCH   8   9
ATOM      9  N   LIG    1      -31.717  84.844  33.279  0.00  0.00    -0.267 N 
ATOM     10  H   LIG    1      -32.338  84.086  33.008  0.00  0.00    +0.157 HD
BRANCH   9  11
ATOM     11  C   LIG    1      -31.961  86.014  32.526  0.00  0.00    +0.061 A 
ATOM     12  C   LIG    1      -32.920  86.029  31.483  0.00  0.00    +0.087 A 
ATOM     13  C   LIG    1      -33.197  87.225  30.795  0.00  0.00    +0.030 A 
ATOM     14  C   LIG    1      -32.533  88.405  31.134  0.00  0.00    +0.014 A 
ATOM     15  C   LIG    1      -31.587  88.414  32.163  0.00  0.00    +0.057 A 
ATOM     16  C   LIG    1      -31.303  87.217  32.833  0.00  0.00    +0.037 A 
BRANCH  12  17
ATOM     17  N   LIG    1      -33.609  84.843  31.093  0.00  0.00    -0.238 N 
ATOM     18  N   LIG    1      -34.289  84.079  32.004  0.00  0.00    -0.175 NA
ATOM     19  C   LIG    1      -34.776  83.061  31.284  0.00  0.00    +0.135 A 
ATOM     20  C   LIG    1      -34.503  83.189  29.916  0.00  0.00    +0.041 A 
ATOM     21  C   LIG    1      -33.735  84.325  29.820  0.00  0.00    +0.114 A 
ENDBRANCH  12  17
BRANCH  15  22
ATOM     22  C   LIG    1      -30.893  89.693  32.559  0.00  0.00    +0.417 C 
ATOM     23  F   LIG    1      -29.537  89.575  32.519  0.00  0.00    -0.166 F 
ATOM     24  F   LIG    1      -31.198  90.077  33.830  0.00  0.00    -0.166 F 
ATOM     25  F   LIG    1      -31.199  90.756  31.765  0.00  0.00    -0.166 F 
ENDBRANCH  15  22
ENDBRANCH   9  11
ENDBRANCH   8   9
BRANCH   8  26
ATOM     26  O   LIG    1      -29.912  83.557  33.279  0.00  0.00    -0.481 OA
ATOM     27  H   LIG    1      -30.461  83.189  32.572  0.00  0.00    +0.295 HD
ENDBRANCH   8  26
ENDBRANCH   4   7
BRANCH   1  28
ATOM     28  O   LIG    1      -25.640  82.998  37.592  0.00  0.00    -0.424 OA
BRANCH  28  32
ATOM     29  C   LIG    1      -22.933  80.603  35.430  0.00  0.00    +0.002 A 
ATOM     30  C   LIG    1      -24.172  80.108  35.873  0.00  0.00    +0.013 A 
ATOM     31  C   LIG    1      -25.068  80.926  36.581  0.00  0.00    +0.047 A 
ATOM     32  C   LIG    1      -24.743  82.257  36.849  0.00  0.00    +0.132 A 
ATOM     33  C   LIG    1      -23.505  82.748  36.436  0.00  0.00    +0.047 A 
ATOM     34  C   LIG    1      -22.617  81.932  35.734  0.00  0.00    +0.013 A 
BRANCH  29  38
ATOM     35  C   LIG    1      -23.536  77.781  32.179  0.00  0.00    +0.233 A 
ATOM     36  N   LIG    1      -23.554  78.656  33.124  0.00  0.00    -0.127 NA
ATOM     37  N   LIG    1      -22.307  78.874  33.663  0.00  0.00    -0.209 N 
ATOM     38  C   LIG    1      -21.989  79.748  34.697  0.00  0.00    +0.093 A 
ATOM     39  C   LIG    1      -20.615  79.611  34.831  0.00  0.00    +0.141 A 
ATOM     40  N   LIG    1      -20.091  78.706  33.943  0.00  0.00    -0.234 NA
ATOM     41  C   LIG    1      -21.123  78.270  33.258  0.00  0.00    +0.155 A 
ATOM     42  C   LIG    1      -21.194  77.318  32.213  0.00  0.00    +0.053 A 
ATOM     43  C   LIG    1      -22.380  77.030  31.663  0.00  0.00    +0.072 A 
BRANCH  35  45
ATOM     44  C   LIG    1      -24.410  77.148  30.070  0.00  0.00    +0.279 C 
ATOM     45  O   LIG    1      -24.627  77.427  31.458  0.00  0.00    -0.479 OA
ENDBRANCH  35  45
ENDBRANCH  29  38
ENDBRANCH  28  32
ENDBRANCH   1  28
TORSDOF 10
ENDMDL
