MODEL 1
REMARK VINA RESULT:      -6.1      0.000      0.000
REMARK  Name = pdb/CHEMBL3675939.pdb
REMARK                            x       y       z     vdW  Elec       q    Type
REMARK                         _______ _______ _______ _____ _____    ______ ____
ROOT
ATOM      1  C   LIG    1      -35.734  75.315  28.719  0.00  0.00    +0.100 A 
ATOM      2  C   LIG    1      -36.995  75.643  28.244  0.00  0.00    +0.170 A 
ATOM      3  N   LIG    1      -37.422  76.267  27.094  0.00  0.00    -0.212 NA
ATOM      4  C   LIG    1      -38.709  76.526  26.973  0.00  0.00    +0.126 A 
ATOM      5  C   LIG    1      -39.719  76.082  28.004  0.00  0.00    +0.063 A 
ATOM      6  C   LIG    1      -39.257  75.436  29.076  0.00  0.00    +0.118 A 
ATOM      7  N   LIG    1      -37.899  75.232  29.229  0.00  0.00    -0.221 N 
ATOM      8  N   LIG    1      -37.284  74.691  30.300  0.00  0.00    -0.173 NA
ATOM      9  C   LIG    1      -35.985  74.797  30.013  0.00  0.00    +0.150 A 
ENDROOT
BRANCH   4  10
ATOM     10  N   LIG    1      -39.176  77.217  25.865  0.00  0.00    -0.308 N 
ATOM     11  C   LIG    1      -38.940  76.760  24.483  0.00  0.00    +0.106 C 
ATOM     12  C   LIG    1      -38.901  78.071  23.676  0.00  0.00    +0.029 C 
ATOM     13  C   LIG    1      -39.799  79.013  24.461  0.00  0.00    +0.021 C 
ATOM     14  C   LIG    1      -39.473  78.651  25.899  0.00  0.00    +0.107 C 
BRANCH  11  15
ATOM     15  C   LIG    1      -40.026  75.780  24.024  0.00  0.00    -0.013 A 
ATOM     16  C   LIG    1      -39.929  74.374  24.203  0.00  0.00    +0.060 A 
ATOM     17  C   LIG    1      -41.021  73.549  23.829  0.00  0.00    +0.015 A 
ATOM     18  C   LIG    1      -42.179  74.078  23.270  0.00  0.00    +0.039 A 
ATOM     19  C   LIG    1      -42.255  75.441  23.059  0.00  0.00    +0.124 A 
ATOM     20  F   LIG    1      -43.360  75.967  22.517  0.00  0.00    -0.205 F 
ATOM     21  C   LIG    1      -41.204  76.280  23.419  0.00  0.00    +0.044 A 
BRANCH  16  22
ATOM     22  C   LIG    1      -38.738  73.637  24.785  0.00  0.00    +0.418 C 
ATOM     23  F   LIG    1      -37.568  74.293  24.537  0.00  0.00    -0.166 F 
ATOM     24  F   LIG    1      -38.583  72.403  24.234  0.00  0.00    -0.166 F 
ATOM     25  F   LIG    1      -38.765  73.448  26.129  0.00  0.00    -0.166 F 
ENDBRANCH  16  22
ENDBRANCH  11  15
ENDBRANCH   4  10
BRANCH   1  28
ATOM     26  N   LIG    1      -34.244  76.621  27.358  0.00  0.00    -0.309 N 
ATOM     27  H   LIG    1      -35.001  77.297  27.358  0.00  0.00    +0.149 HD
ATOM     28  C   LIG    1      -34.425  75.466  28.097  0.00  0.00    +0.249 C 
ATOM     29  O   LIG    1      -33.571  74.604  28.195  0.00  0.00    -0.270 OA
BRANCH  26  30
ATOM     30  C   LIG    1      -32.984  76.954  26.690  0.00  0.00    +0.138 C 
BRANCH  30  31
ATOM     31  C   LIG    1      -32.531  78.412  26.907  0.00  0.00    +0.157 C 
BRANCH  31  32
ATOM     32  O   LIG    1      -32.354  79.076  25.646  0.00  0.00    -0.388 OA
ATOM     33  H   LIG    1      -33.100  79.697  25.565  0.00  0.00    +0.210 HD
ENDBRANCH  31  32
BRANCH  31  34
ATOM     34  C   LIG    1      -33.530  79.245  27.718  0.00  0.00    +0.188 C 
BRANCH  34  35
ATOM     35  O   LIG    1      -33.528  78.899  29.095  0.00  0.00    -0.392 OA
ATOM     36  H   LIG    1      -33.646  79.729  29.589  0.00  0.00    +0.210 HD
ENDBRANCH  34  35
ENDBRANCH  31  34
ENDBRANCH  30  31
ENDBRANCH  26  30
ENDBRANCH   1  28
TORSDOF 9
ENDMDL
MODEL 2
REMARK VINA RESULT:      -5.9     19.738     22.339
REMARK  Name = pdb/CHEMBL3675939.pdb
REMARK                            x       y       z     vdW  Elec       q    Type
REMARK                         _______ _______ _______ _____ _____    ______ ____
ROOT
ATOM      1  C   LIG    1      -18.913  85.292  12.253  0.00  0.00    +0.100 A 
ATOM      2  C   LIG    1      -19.826  84.331  11.847  0.00  0.00    +0.170 A 
ATOM      3  N   LIG    1      -21.115  84.050  12.237  0.00  0.00    -0.212 NA
ATOM      4  C   LIG    1      -21.699  82.988  11.720  0.00  0.00    +0.126 A 
ATOM      5  C   LIG    1      -21.033  82.139  10.663  0.00  0.00    +0.063 A 
ATOM      6  C   LIG    1      -19.802  82.485  10.284  0.00  0.00    +0.118 A 
ATOM      7  N   LIG    1      -19.171  83.558  10.883  0.00  0.00    -0.221 N 
ATOM      8  N   LIG    1      -17.900  83.958  10.678  0.00  0.00    -0.173 NA
ATOM      9  C   LIG    1      -17.733  84.960  11.543  0.00  0.00    +0.150 A 
ENDROOT
BRANCH   4  10
ATOM     10  N   LIG    1      -22.971  82.623  12.136  0.00  0.00    -0.308 N 
ATOM     11  C   LIG    1      -23.264  81.310  12.740  0.00  0.00    +0.106 C 
ATOM     12  C   LIG    1      -24.725  81.048  12.330  0.00  0.00    +0.029 C 
ATOM     13  C   LIG    1      -25.325  82.437  12.198  0.00  0.00    +0.021 C 
ATOM     14  C   LIG    1      -24.184  83.229  11.585  0.00  0.00    +0.107 C 
BRANCH  11  15
ATOM     15  C   LIG    1      -23.040  81.328  14.257  0.00  0.00    -0.013 A 
ATOM     16  C   LIG    1      -22.760  80.160  15.015  0.00  0.00    +0.060 A 
ATOM     17  C   LIG    1      -22.476  80.281  16.400  0.00  0.00    +0.015 A 
ATOM     18  C   LIG    1      -22.488  81.514  17.043  0.00  0.00    +0.039 A 
ATOM     19  C   LIG    1      -22.800  82.643  16.313  0.00  0.00    +0.124 A 
ATOM     20  F   LIG    1      -22.821  83.838  16.917  0.00  0.00    -0.205 F 
ATOM     21  C   LIG    1      -23.078  82.561  14.952  0.00  0.00    +0.044 A 
BRANCH  16  22
ATOM     22  C   LIG    1      -22.719  78.744  14.473  0.00  0.00    +0.418 C 
ATOM     23  F   LIG    1      -23.949  78.327  14.054  0.00  0.00    -0.166 F 
ATOM     24  F   LIG    1      -22.339  77.846  15.422  0.00  0.00    -0.166 F 
ATOM     25  F   LIG    1      -21.893  78.544  13.414  0.00  0.00    -0.166 F 
ENDBRANCH  16  22
ENDBRANCH  11  15
ENDBRANCH   4  10
BRANCH   1  28
ATOM     26  N   LIG    1      -20.157  86.313  14.039  0.00  0.00    -0.309 N 
ATOM     27  H   LIG    1      -20.729  85.478  13.979  0.00  0.00    +0.149 HD
ATOM     28  C   LIG    1      -19.060  86.391  13.199  0.00  0.00    +0.249 C 
ATOM     29  O   LIG    1      -18.287  87.331  13.209  0.00  0.00    -0.270 OA
BRANCH  26  30
ATOM     30  C   LIG    1      -20.445  87.311  15.072  0.00  0.00    +0.138 C 
BRANCH  30  31
ATOM     31  C   LIG    1      -21.948  87.478  15.374  0.00  0.00    +0.157 C 
BRANCH  31  32
ATOM     32  O   LIG    1      -22.225  88.811  15.827  0.00  0.00    -0.388 OA
ATOM     33  H   LIG    1      -22.183  89.376  15.035  0.00  0.00    +0.210 HD
ENDBRANCH  31  32
BRANCH  31  34
ATOM     34  C   LIG    1      -22.845  87.221  14.157  0.00  0.00    +0.188 C 
BRANCH  34  35
ATOM     35  O   LIG    1      -23.163  85.846  14.004  0.00  0.00    -0.392 OA
ATOM     36  H   LIG    1      -24.130  85.796  13.898  0.00  0.00    +0.210 HD
ENDBRANCH  34  35
ENDBRANCH  31  34
ENDBRANCH  30  31
ENDBRANCH  26  30
ENDBRANCH   1  28
TORSDOF 9
ENDMDL
MODEL 3
REMARK VINA RESULT:      -5.8     19.140     22.426
REMARK  Name = pdb/CHEMBL3675939.pdb
REMARK                            x       y       z     vdW  Elec       q    Type
REMARK                         _______ _______ _______ _____ _____    ______ ____
ROOT
ATOM      1  C   LIG    1      -18.400  84.872  12.834  0.00  0.00    +0.100 A 
ATOM      2  C   LIG    1      -18.979  83.640  13.098  0.00  0.00    +0.170 A 
ATOM      3  N   LIG    1      -19.968  83.245  13.969  0.00  0.00    -0.212 NA
ATOM      4  C   LIG    1      -20.236  81.957  14.058  0.00  0.00    +0.126 A 
ATOM      5  C   LIG    1      -19.560  80.934  13.176  0.00  0.00    +0.063 A 
ATOM      6  C   LIG    1      -18.645  81.377  12.312  0.00  0.00    +0.118 A 
ATOM      7  N   LIG    1      -18.320  82.719  12.277  0.00  0.00    -0.221 N 
ATOM      8  N   LIG    1      -17.350  83.291  11.536  0.00  0.00    -0.173 NA
ATOM      9  C   LIG    1      -17.365  84.569  11.916  0.00  0.00    +0.150 A 
ENDROOT
BRANCH   4  10
ATOM     10  N   LIG    1      -21.172  81.504  14.974  0.00  0.00    -0.308 N 
ATOM     11  C   LIG    1      -22.409  82.247  15.282  0.00  0.00    +0.106 C 
ATOM     12  C   LIG    1      -22.696  81.870  16.747  0.00  0.00    +0.029 C 
ATOM     13  C   LIG    1      -22.096  80.482  16.893  0.00  0.00    +0.021 C 
ATOM     14  C   LIG    1      -20.832  80.582  16.059  0.00  0.00    +0.107 C 
BRANCH  11  15
ATOM     15  C   LIG    1      -23.539  81.879  14.313  0.00  0.00    -0.013 A 
ATOM     16  C   LIG    1      -23.864  82.654  13.168  0.00  0.00    +0.060 A 
ATOM     17  C   LIG    1      -24.866  82.192  12.277  0.00  0.00    +0.015 A 
ATOM     18  C   LIG    1      -25.558  81.007  12.507  0.00  0.00    +0.039 A 
ATOM     19  C   LIG    1      -25.269  80.276  13.642  0.00  0.00    +0.124 A 
ATOM     20  F   LIG    1      -25.929  79.136  13.881  0.00  0.00    -0.205 F 
ATOM     21  C   LIG    1      -24.289  80.699  14.535  0.00  0.00    +0.044 A 
BRANCH  16  22
ATOM     22  C   LIG    1      -23.217  83.969  12.779  0.00  0.00    +0.418 C 
ATOM     23  F   LIG    1      -24.084  84.781  12.108  0.00  0.00    -0.166 F 
ATOM     24  F   LIG    1      -22.166  83.789  11.933  0.00  0.00    -0.166 F 
ATOM     25  F   LIG    1      -22.747  84.720  13.807  0.00  0.00    -0.166 F 
ENDBRANCH  16  22
ENDBRANCH  11  15
ENDBRANCH   4  10
BRANCH   1  28
ATOM     26  N   LIG    1      -19.870  86.272  14.122  0.00  0.00    -0.309 N 
ATOM     27  H   LIG    1      -20.364  85.406  14.308  0.00  0.00    +0.149 HD
ATOM     28  C   LIG    1      -18.718  86.193  13.360  0.00  0.00    +0.249 C 
ATOM     29  O   LIG    1      -18.029  87.163  13.103  0.00  0.00    -0.270 OA
BRANCH  26  30
ATOM     30  C   LIG    1      -20.325  87.512  14.756  0.00  0.00    +0.138 C 
BRANCH  30  31
ATOM     31  C   LIG    1      -21.859  87.617  14.886  0.00  0.00    +0.157 C 
BRANCH  31  32
ATOM     32  O   LIG    1      -22.213  88.563  15.906  0.00  0.00    -0.388 OA
ATOM     33  H   LIG    1      -23.111  88.322  16.193  0.00  0.00    +0.210 HD
ENDBRANCH  31  32
BRANCH  31  34
ATOM     34  C   LIG    1      -22.548  88.071  13.594  0.00  0.00    +0.188 C 
BRANCH  34  35
ATOM     35  O   LIG    1      -21.996  87.450  12.442  0.00  0.00    -0.392 OA
ATOM     36  H   LIG    1      -21.189  86.992  12.735  0.00  0.00    +0.210 HD
ENDBRANCH  34  35
ENDBRANCH  31  34
ENDBRANCH  30  31
ENDBRANCH  26  30
ENDBRANCH   1  28
TORSDOF 9
ENDMDL
MODEL 4
REMARK VINA RESULT:      -5.8      1.703      2.287
REMARK  Name = pdb/CHEMBL3675939.pdb
REMARK                            x       y       z     vdW  Elec       q    Type
REMARK                         _______ _______ _______ _____ _____    ______ ____
ROOT
ATOM      1  C   LIG    1      -37.255  76.787  28.608  0.00  0.00    +0.100 A 
ATOM      2  C   LIG    1      -38.492  76.404  28.113  0.00  0.00    +0.170 A 
ATOM      3  N   LIG    1      -39.053  76.473  26.858  0.00  0.00    -0.212 NA
ATOM      4  C   LIG    1      -40.312  76.108  26.723  0.00  0.00    +0.126 A 
ATOM      5  C   LIG    1      -41.112  75.542  27.872  0.00  0.00    +0.063 A 
ATOM      6  C   LIG    1      -40.505  75.450  29.056  0.00  0.00    +0.118 A 
ATOM      7  N   LIG    1      -39.207  75.902  29.204  0.00  0.00    -0.221 N 
ATOM      8  N   LIG    1      -38.507  75.967  30.354  0.00  0.00    -0.173 NA
ATOM      9  C   LIG    1      -37.361  76.551  30.001  0.00  0.00    +0.150 A 
ENDROOT
BRANCH   4  10
ATOM     10  N   LIG    1      -40.941  76.228  25.493  0.00  0.00    -0.308 N 
ATOM     11  C   LIG    1      -40.292  75.842  24.226  0.00  0.00    +0.106 C 
ATOM     12  C   LIG    1      -40.930  76.793  23.196  0.00  0.00    +0.029 C 
ATOM     13  C   LIG    1      -42.308  77.082  23.765  0.00  0.00    +0.021 C 
ATOM     14  C   LIG    1      -42.033  77.174  25.255  0.00  0.00    +0.107 C 
BRANCH  11  15
ATOM     15  C   LIG    1      -40.508  74.356  23.916  0.00  0.00    -0.013 A 
ATOM     16  C   LIG    1      -39.572  73.346  24.266  0.00  0.00    +0.060 A 
ATOM     17  C   LIG    1      -39.893  71.986  24.022  0.00  0.00    +0.015 A 
ATOM     18  C   LIG    1      -41.094  71.615  23.426  0.00  0.00    +0.039 A 
ATOM     19  C   LIG    1      -41.984  72.601  23.049  0.00  0.00    +0.124 A 
ATOM     20  F   LIG    1      -43.142  72.261  22.469  0.00  0.00    -0.205 F 
ATOM     21  C   LIG    1      -41.703  73.944  23.278  0.00  0.00    +0.044 A 
BRANCH  16  22
ATOM     22  C   LIG    1      -38.219  73.580  24.910  0.00  0.00    +0.418 C 
ATOM     23  F   LIG    1      -37.325  72.606  24.576  0.00  0.00    -0.166 F 
ATOM     24  F   LIG    1      -38.290  73.553  26.269  0.00  0.00    -0.166 F 
ATOM     25  F   LIG    1      -37.610  74.751  24.590  0.00  0.00    -0.166 F 
ENDBRANCH  16  22
ENDBRANCH  11  15
ENDBRANCH   4  10
BRANCH   1  28
ATOM     26  N   LIG    1      -34.941  76.567  27.994  0.00  0.00    -0.309 N 
ATOM     27  H   LIG    1      -35.009  75.668  28.460  0.00  0.00    +0.149 HD
ATOM     28  C   LIG    1      -36.092  77.331  27.919  0.00  0.00    +0.249 C 
ATOM     29  O   LIG    1      -36.133  78.408  27.355  0.00  0.00    -0.270 OA
BRANCH  26  30
ATOM     30  C   LIG    1      -33.688  76.942  27.336  0.00  0.00    +0.138 C 
BRANCH  30  31
ATOM     31  C   LIG    1      -32.979  78.147  27.988  0.00  0.00    +0.157 C 
BRANCH  31  32
ATOM     32  O   LIG    1      -31.768  77.727  28.634  0.00  0.00    -0.388 OA
ATOM     33  H   LIG    1      -31.688  76.772  28.459  0.00  0.00    +0.210 HD
ENDBRANCH  31  32
BRANCH  31  34
ATOM     34  C   LIG    1      -32.597  79.242  26.986  0.00  0.00    +0.188 C 
BRANCH  34  35
ATOM     35  O   LIG    1      -32.328  78.719  25.693  0.00  0.00    -0.392 OA
ATOM     36  H   LIG    1      -33.036  79.045  25.110  0.00  0.00    +0.210 HD
ENDBRANCH  34  35
ENDBRANCH  31  34
ENDBRANCH  30  31
ENDBRANCH  26  30
ENDBRANCH   1  28
TORSDOF 9
ENDMDL
MODEL 5
REMARK VINA RESULT:      -5.5      3.498      5.772
REMARK  Name = pdb/CHEMBL3675939.pdb
REMARK                            x       y       z     vdW  Elec       q    Type
REMARK                         _______ _______ _______ _____ _____    ______ ____
ROOT
ATOM      1  C   LIG    1      -37.283  75.963  26.215  0.00  0.00    +0.100 A 
ATOM      2  C   LIG    1      -38.038  74.978  25.596  0.00  0.00    +0.170 A 
ATOM      3  N   LIG    1      -37.879  73.616  25.487  0.00  0.00    -0.212 NA
ATOM      4  C   LIG    1      -38.734  72.952  24.735  0.00  0.00    +0.126 A 
ATOM      5  C   LIG    1      -39.915  73.625  24.075  0.00  0.00    +0.063 A 
ATOM      6  C   LIG    1      -40.050  74.940  24.254  0.00  0.00    +0.118 A 
ATOM      7  N   LIG    1      -39.109  75.639  24.985  0.00  0.00    -0.221 N 
ATOM      8  N   LIG    1      -39.059  76.974  25.162  0.00  0.00    -0.173 NA
ATOM      9  C   LIG    1      -37.933  77.167  25.850  0.00  0.00    +0.150 A 
ENDROOT
BRANCH   4  10
ATOM     10  N   LIG    1      -38.573  71.589  24.538  0.00  0.00    -0.308 N 
ATOM     11  C   LIG    1      -37.290  70.898  24.768  0.00  0.00    +0.106 C 
ATOM     12  C   LIG    1      -37.329  69.732  23.763  0.00  0.00    +0.029 C 
ATOM     13  C   LIG    1      -38.810  69.431  23.605  0.00  0.00    +0.021 C 
ATOM     14  C   LIG    1      -39.429  70.817  23.636  0.00  0.00    +0.107 C 
BRANCH  11  15
ATOM     15  C   LIG    1      -37.148  70.454  26.229  0.00  0.00    -0.013 A 
ATOM     16  C   LIG    1      -35.905  70.084  26.810  0.00  0.00    +0.060 A 
ATOM     17  C   LIG    1      -35.850  69.773  28.193  0.00  0.00    +0.015 A 
ATOM     18  C   LIG    1      -36.987  69.798  28.993  0.00  0.00    +0.039 A 
ATOM     19  C   LIG    1      -38.201  70.118  28.417  0.00  0.00    +0.124 A 
ATOM     20  F   LIG    1      -39.306  70.143  29.172  0.00  0.00    -0.205 F 
ATOM     21  C   LIG    1      -38.289  70.434  27.065  0.00  0.00    +0.044 A 
BRANCH  16  22
ATOM     22  C   LIG    1      -34.579  69.995  26.079  0.00  0.00    +0.418 C 
ATOM     23  F   LIG    1      -33.554  69.693  26.927  0.00  0.00    -0.166 F 
ATOM     24  F   LIG    1      -34.234  71.180  25.505  0.00  0.00    -0.166 F 
ATOM     25  F   LIG    1      -34.513  69.066  25.092  0.00  0.00    -0.166 F 
ENDBRANCH  16  22
ENDBRANCH  11  15
ENDBRANCH   4  10
BRANCH   1  28
ATOM     26  N   LIG    1      -34.989  76.573  26.595  0.00  0.00    -0.309 N 
ATOM     27  H   LIG    1      -35.119  77.165  25.782  0.00  0.00    +0.149 HD
ATOM     28  C   LIG    1      -36.085  75.853  27.037  0.00  0.00    +0.249 C 
ATOM     29  O   LIG    1      -36.051  75.138  28.021  0.00  0.00    -0.270 OA
BRANCH  26  30
ATOM     30  C   LIG    1      -33.712  76.606  27.312  0.00  0.00    +0.138 C 
BRANCH  30  31
ATOM     31  C   LIG    1      -33.349  77.995  27.873  0.00  0.00    +0.157 C 
BRANCH  31  32
ATOM     32  O   LIG    1      -32.756  77.872  29.175  0.00  0.00    -0.388 OA
ATOM     33  H   LIG    1      -32.423  76.959  29.231  0.00  0.00    +0.210 HD
ENDBRANCH  31  32
BRANCH  31  34
ATOM     34  C   LIG    1      -32.354  78.764  26.997  0.00  0.00    +0.188 C 
BRANCH  34  35
ATOM     35  O   LIG    1      -32.582  78.554  25.611  0.00  0.00    -0.392 OA
ATOM     36  H   LIG    1      -32.482  77.598  25.456  0.00  0.00    +0.210 HD
ENDBRANCH  34  35
ENDBRANCH  31  34
ENDBRANCH  30  31
ENDBRANCH  26  30
ENDBRANCH   1  28
TORSDOF 9
ENDMDL
MODEL 6
REMARK VINA RESULT:      -5.5      4.315      6.286
REMARK  Name = pdb/CHEMBL3675939.pdb
REMARK                            x       y       z     vdW  Elec       q    Type
REMARK                         _______ _______ _______ _____ _____    ______ ____
ROOT
ATOM      1  C   LIG    1      -37.163  76.424  26.240  0.00  0.00    +0.100 A 
ATOM      2  C   LIG    1      -38.096  77.426  26.018  0.00  0.00    +0.170 A 
ATOM      3  N   LIG    1      -38.286  78.662  26.590  0.00  0.00    -0.212 NA
ATOM      4  C   LIG    1      -39.343  79.358  26.221  0.00  0.00    +0.126 A 
ATOM      5  C   LIG    1      -40.283  78.879  25.140  0.00  0.00    +0.063 A 
ATOM      6  C   LIG    1      -40.024  77.695  24.582  0.00  0.00    +0.118 A 
ATOM      7  N   LIG    1      -38.954  76.941  25.026  0.00  0.00    -0.221 N 
ATOM      8  N   LIG    1      -38.634  75.692  24.631  0.00  0.00    -0.173 NA
ATOM      9  C   LIG    1      -37.596  75.367  25.404  0.00  0.00    +0.150 A 
ENDROOT
BRANCH   4  10
ATOM     10  N   LIG    1      -39.617  80.577  26.822  0.00  0.00    -0.308 N 
ATOM     11  C   LIG    1      -38.627  81.669  26.895  0.00  0.00    +0.106 C 
ATOM     12  C   LIG    1      -39.005  82.405  28.193  0.00  0.00    +0.029 C 
ATOM     13  C   LIG    1      -40.499  82.168  28.330  0.00  0.00    +0.021 C 
ATOM     14  C   LIG    1      -40.648  80.736  27.850  0.00  0.00    +0.107 C 
BRANCH  11  15
ATOM     15  C   LIG    1      -38.676  82.553  25.643  0.00  0.00    -0.013 A 
ATOM     16  C   LIG    1      -37.605  83.400  25.249  0.00  0.00    +0.060 A 
ATOM     17  C   LIG    1      -37.699  84.116  24.027  0.00  0.00    +0.015 A 
ATOM     18  C   LIG    1      -38.824  84.028  23.214  0.00  0.00    +0.039 A 
ATOM     19  C   LIG    1      -39.880  83.236  23.619  0.00  0.00    +0.124 A 
ATOM     20  F   LIG    1      -40.972  83.144  22.850  0.00  0.00    -0.205 F 
ATOM     21  C   LIG    1      -39.818  82.516  24.809  0.00  0.00    +0.044 A 
BRANCH  16  22
ATOM     22  C   LIG    1      -36.319  83.617  26.022  0.00  0.00    +0.418 C 
ATOM     23  F   LIG    1      -35.393  84.293  25.283  0.00  0.00    -0.166 F 
ATOM     24  F   LIG    1      -35.723  82.441  26.359  0.00  0.00    -0.166 F 
ATOM     25  F   LIG    1      -36.439  84.321  27.177  0.00  0.00    -0.166 F 
ENDBRANCH  16  22
ENDBRANCH  11  15
ENDBRANCH   4  10
BRANCH   1  28
ATOM     26  N   LIG    1      -34.793  76.696  26.537  0.00  0.00    -0.309 N 
ATOM     27  H   LIG    1      -34.807  76.974  25.562  0.00  0.00    +0.149 HD
ATOM     28  C   LIG    1      -36.007  76.394  27.127  0.00  0.00    +0.249 C 
ATOM     29  O   LIG    1      -36.112  76.081  28.299  0.00  0.00    -0.270 OA
BRANCH  26  30
ATOM     30  C   LIG    1      -33.533  76.745  27.282  0.00  0.00    +0.138 C 
BRANCH  30  31
ATOM     31  C   LIG    1      -33.225  78.127  27.893  0.00  0.00    +0.157 C 
BRANCH  31  32
ATOM     32  O   LIG    1      -32.090  78.047  28.769  0.00  0.00    -0.388 OA
ATOM     33  H   LIG    1      -31.734  78.951  28.829  0.00  0.00    +0.210 HD
ENDBRANCH  31  32
BRANCH  31  34
ATOM     34  C   LIG    1      -32.908  79.199  26.845  0.00  0.00    +0.188 C 
BRANCH  34  35
ATOM     35  O   LIG    1      -32.347  78.647  25.663  0.00  0.00    -0.392 OA
ATOM     36  H   LIG    1      -32.801  77.800  25.510  0.00  0.00    +0.210 HD
ENDBRANCH  34  35
ENDBRANCH  31  34
ENDBRANCH  30  31
ENDBRANCH  26  30
ENDBRANCH   1  28
TORSDOF 9
ENDMDL
MODEL 7
REMARK VINA RESULT:      -5.5     19.806     23.049
REMARK  Name = pdb/CHEMBL3675939.pdb
REMARK                            x       y       z     vdW  Elec       q    Type
REMARK                         _______ _______ _______ _____ _____    ______ ____
ROOT
ATOM      1  C   LIG    1      -24.586  82.560  11.952  0.00  0.00    +0.100 A 
ATOM      2  C   LIG    1      -24.321  83.682  11.181  0.00  0.00    +0.170 A 
ATOM      3  N   LIG    1      -23.863  84.940  11.496  0.00  0.00    -0.212 NA
ATOM      4  C   LIG    1      -23.805  85.837  10.532  0.00  0.00    +0.126 A 
ATOM      5  C   LIG    1      -24.136  85.497   9.098  0.00  0.00    +0.063 A 
ATOM      6  C   LIG    1      -24.526  84.248   8.838  0.00  0.00    +0.118 A 
ATOM      7  N   LIG    1      -24.653  83.335   9.867  0.00  0.00    -0.221 N 
ATOM      8  N   LIG    1      -25.132  82.078   9.771  0.00  0.00    -0.173 NA
ATOM      9  C   LIG    1      -25.143  81.641  11.031  0.00  0.00    +0.150 A 
ENDROOT
BRANCH   4  10
ATOM     10  N   LIG    1      -23.419  87.138  10.816  0.00  0.00    -0.308 N 
ATOM     11  C   LIG    1      -23.114  87.597  12.184  0.00  0.00    +0.106 C 
ATOM     12  C   LIG    1      -23.500  89.088  12.154  0.00  0.00    +0.029 C 
ATOM     13  C   LIG    1      -23.284  89.494  10.706  0.00  0.00    +0.021 C 
ATOM     14  C   LIG    1      -23.758  88.268   9.948  0.00  0.00    +0.107 C 
BRANCH  11  15
ATOM     15  C   LIG    1      -21.645  87.344  12.545  0.00  0.00    -0.013 A 
ATOM     16  C   LIG    1      -21.189  87.196  13.882  0.00  0.00    +0.060 A 
ATOM     17  C   LIG    1      -19.828  86.874  14.120  0.00  0.00    +0.015 A 
ATOM     18  C   LIG    1      -18.920  86.721  13.078  0.00  0.00    +0.039 A 
ATOM     19  C   LIG    1      -19.357  86.906  11.781  0.00  0.00    +0.124 A 
ATOM     20  F   LIG    1      -18.495  86.767  10.765  0.00  0.00    -0.205 F 
ATOM     21  C   LIG    1      -20.686  87.217  11.512  0.00  0.00    +0.044 A 
BRANCH  16  22
ATOM     22  C   LIG    1      -22.041  87.340  15.128  0.00  0.00    +0.418 C 
ATOM     23  F   LIG    1      -21.287  87.298  16.264  0.00  0.00    -0.166 F 
ATOM     24  F   LIG    1      -22.937  86.323  15.253  0.00  0.00    -0.166 F 
ATOM     25  F   LIG    1      -22.761  88.488  15.218  0.00  0.00    -0.166 F 
ENDBRANCH  16  22
ENDBRANCH  11  15
ENDBRANCH   4  10
BRANCH   1  28
ATOM     26  N   LIG    1      -23.295  82.967  13.938  0.00  0.00    -0.309 N 
ATOM     27  H   LIG    1      -22.762  83.590  13.341  0.00  0.00    +0.149 HD
ATOM     28  C   LIG    1      -24.386  82.329  13.377  0.00  0.00    +0.249 C 
ATOM     29  O   LIG    1      -25.115  81.588  14.010  0.00  0.00    -0.270 OA
BRANCH  26  30
ATOM     30  C   LIG    1      -22.959  82.874  15.361  0.00  0.00    +0.138 C 
BRANCH  30  31
ATOM     31  C   LIG    1      -21.853  81.847  15.674  0.00  0.00    +0.157 C 
BRANCH  31  32
ATOM     32  O   LIG    1      -20.827  82.444  16.483  0.00  0.00    -0.388 OA
ATOM     33  H   LIG    1      -19.983  82.098  16.141  0.00  0.00    +0.210 HD
ENDBRANCH  31  32
BRANCH  31  34
ATOM     34  C   LIG    1      -22.363  80.616  16.433  0.00  0.00    +0.188 C 
BRANCH  34  35
ATOM     35  O   LIG    1      -23.624  80.173  15.953  0.00  0.00    -0.392 OA
ATOM     36  H   LIG    1      -24.040  79.680  16.682  0.00  0.00    +0.210 HD
ENDBRANCH  34  35
ENDBRANCH  31  34
ENDBRANCH  30  31
ENDBRANCH  26  30
ENDBRANCH   1  28
TORSDOF 9
ENDMDL
MODEL 8
REMARK VINA RESULT:      -5.5     18.141     21.741
REMARK  Name = pdb/CHEMBL3675939.pdb
REMARK                            x       y       z     vdW  Elec       q    Type
REMARK                         _______ _______ _______ _____ _____    ______ ____
ROOT
ATOM      1  C   LIG    1      -25.359  82.255  11.272  0.00  0.00    +0.100 A 
ATOM      2  C   LIG    1      -24.864  83.547  11.368  0.00  0.00    +0.170 A 
ATOM      3  N   LIG    1      -23.911  84.119  12.178  0.00  0.00    -0.212 NA
ATOM      4  C   LIG    1      -23.728  85.422  12.093  0.00  0.00    +0.126 A 
ATOM      5  C   LIG    1      -24.462  86.271  11.083  0.00  0.00    +0.063 A 
ATOM      6  C   LIG    1      -25.338  85.658  10.286  0.00  0.00    +0.118 A 
ATOM      7  N   LIG    1      -25.575  84.304  10.432  0.00  0.00    -0.221 N 
ATOM      8  N   LIG    1      -26.500  83.576   9.774  0.00  0.00    -0.173 NA
ATOM      9  C   LIG    1      -26.405  82.364  10.323  0.00  0.00    +0.150 A 
ENDROOT
BRANCH   4  10
ATOM     10  N   LIG    1      -22.830  86.054  12.940  0.00  0.00    -0.308 N 
ATOM     11  C   LIG    1      -22.535  85.561  14.299  0.00  0.00    +0.106 C 
ATOM     12  C   LIG    1      -22.186  86.844  15.075  0.00  0.00    +0.029 C 
ATOM     13  C   LIG    1      -21.615  87.771  14.015  0.00  0.00    +0.021 C 
ATOM     14  C   LIG    1      -22.492  87.473  12.813  0.00  0.00    +0.107 C 
BRANCH  11  15
ATOM     15  C   LIG    1      -21.411  84.519  14.284  0.00  0.00    -0.013 A 
ATOM     16  C   LIG    1      -21.490  83.282  14.979  0.00  0.00    +0.060 A 
ATOM     17  C   LIG    1      -20.440  82.337  14.838  0.00  0.00    +0.015 A 
ATOM     18  C   LIG    1      -19.322  82.600  14.054  0.00  0.00    +0.039 A 
ATOM     19  C   LIG    1      -19.228  83.819  13.413  0.00  0.00    +0.124 A 
ATOM     20  F   LIG    1      -18.156  84.090  12.658  0.00  0.00    -0.205 F 
ATOM     21  C   LIG    1      -20.242  84.766  13.526  0.00  0.00    +0.044 A 
BRANCH  16  22
ATOM     22  C   LIG    1      -22.629  82.845  15.880  0.00  0.00    +0.418 C 
ATOM     23  F   LIG    1      -22.310  81.725  16.591  0.00  0.00    -0.166 F 
ATOM     24  F   LIG    1      -23.742  82.516  15.170  0.00  0.00    -0.166 F 
ATOM     25  F   LIG    1      -23.028  83.755  16.805  0.00  0.00    -0.166 F 
ENDBRANCH  16  22
ENDBRANCH  11  15
ENDBRANCH   4  10
BRANCH   1  28
ATOM     26  N   LIG    1      -25.943  80.444  12.740  0.00  0.00    -0.309 N 
ATOM     27  H   LIG    1      -26.870  80.854  12.710  0.00  0.00    +0.149 HD
ATOM     28  C   LIG    1      -24.961  81.040  11.970  0.00  0.00    +0.249 C 
ATOM     29  O   LIG    1      -23.823  80.612  11.905  0.00  0.00    -0.270 OA
BRANCH  26  30
ATOM     30  C   LIG    1      -25.730  79.200  13.484  0.00  0.00    +0.138 C 
BRANCH  30  31
ATOM     31  C   LIG    1      -25.619  79.399  15.010  0.00  0.00    +0.157 C 
BRANCH  31  32
ATOM     32  O   LIG    1      -26.457  78.461  15.701  0.00  0.00    -0.388 OA
ATOM     33  H   LIG    1      -26.858  78.954  16.439  0.00  0.00    +0.210 HD
ENDBRANCH  31  32
BRANCH  31  34
ATOM     34  C   LIG    1      -24.195  79.209  15.545  0.00  0.00    +0.188 C 
BRANCH  34  35
ATOM     35  O   LIG    1      -23.210  79.456  14.553  0.00  0.00    -0.392 OA
ATOM     36  H   LIG    1      -22.423  78.944  14.811  0.00  0.00    +0.210 HD
ENDBRANCH  34  35
ENDBRANCH  31  34
ENDBRANCH  30  31
ENDBRANCH  26  30
ENDBRANCH   1  28
TORSDOF 9
ENDMDL
MODEL 9
REMARK VINA RESULT:      -5.4      2.611      3.379
REMARK  Name = pdb/CHEMBL3675939.pdb
REMARK                            x       y       z     vdW  Elec       q    Type
REMARK                         _______ _______ _______ _____ _____    ______ ____
ROOT
ATOM      1  C   LIG    1      -36.907  79.758  29.051  0.00  0.00    +0.100 A 
ATOM      2  C   LIG    1      -38.120  79.719  28.381  0.00  0.00    +0.170 A 
ATOM      3  N   LIG    1      -38.450  79.820  27.049  0.00  0.00    -0.212 NA
ATOM      4  C   LIG    1      -39.728  79.844  26.728  0.00  0.00    +0.126 A 
ATOM      5  C   LIG    1      -40.818  79.674  27.761  0.00  0.00    +0.063 A 
ATOM      6  C   LIG    1      -40.442  79.529  29.032  0.00  0.00    +0.118 A 
ATOM      7  N   LIG    1      -39.102  79.578  29.366  0.00  0.00    -0.221 N 
ATOM      8  N   LIG    1      -38.584  79.550  30.611  0.00  0.00    -0.173 NA
ATOM      9  C   LIG    1      -37.274  79.717  30.418  0.00  0.00    +0.150 A 
ENDROOT
BRANCH   4  10
ATOM     10  N   LIG    1      -40.110  80.017  25.407  0.00  0.00    -0.308 N 
ATOM     11  C   LIG    1      -39.472  79.290  24.292  0.00  0.00    +0.106 C 
ATOM     12  C   LIG    1      -39.602  80.267  23.110  0.00  0.00    +0.029 C 
ATOM     13  C   LIG    1      -40.859  81.061  23.424  0.00  0.00    +0.021 C 
ATOM     14  C   LIG    1      -40.768  81.234  24.929  0.00  0.00    +0.107 C 
BRANCH  11  15
ATOM     15  C   LIG    1      -40.144  77.932  24.052  0.00  0.00    -0.013 A 
ATOM     16  C   LIG    1      -39.462  76.694  24.193  0.00  0.00    +0.060 A 
ATOM     17  C   LIG    1      -40.184  75.482  24.040  0.00  0.00    +0.015 A 
ATOM     18  C   LIG    1      -41.540  75.474  23.731  0.00  0.00    +0.039 A 
ATOM     19  C   LIG    1      -42.191  76.679  23.554  0.00  0.00    +0.124 A 
ATOM     20  F   LIG    1      -43.496  76.689  23.251  0.00  0.00    -0.205 F 
ATOM     21  C   LIG    1      -41.514  77.886  23.702  0.00  0.00    +0.044 A 
BRANCH  16  22
ATOM     22  C   LIG    1      -37.990  76.527  24.516  0.00  0.00    +0.418 C 
ATOM     23  F   LIG    1      -37.196  77.039  23.531  0.00  0.00    -0.166 F 
ATOM     24  F   LIG    1      -37.637  75.217  24.618  0.00  0.00    -0.166 F 
ATOM     25  F   LIG    1      -37.568  77.121  25.661  0.00  0.00    -0.166 F 
ENDBRANCH  16  22
ENDBRANCH  11  15
ENDBRANCH   4  10
BRANCH   1  28
ATOM     26  N   LIG    1      -34.738  78.754  28.792  0.00  0.00    -0.309 N 
ATOM     27  H   LIG    1      -35.163  77.960  29.259  0.00  0.00    +0.149 HD
ATOM     28  C   LIG    1      -35.548  79.845  28.533  0.00  0.00    +0.249 C 
ATOM     29  O   LIG    1      -35.151  80.837  27.950  0.00  0.00    -0.270 OA
BRANCH  26  30
ATOM     30  C   LIG    1      -33.355  78.655  28.321  0.00  0.00    +0.138 C 
BRANCH  30  31
ATOM     31  C   LIG    1      -33.072  77.393  27.480  0.00  0.00    +0.157 C 
BRANCH  31  32
ATOM     32  O   LIG    1      -34.285  76.902  26.890  0.00  0.00    -0.388 OA
ATOM     33  H   LIG    1      -34.376  75.981  27.193  0.00  0.00    +0.210 HD
ENDBRANCH  31  32
BRANCH  31  34
ATOM     34  C   LIG    1      -32.081  77.635  26.336  0.00  0.00    +0.188 C 
BRANCH  34  35
ATOM     35  O   LIG    1      -32.338  78.850  25.649  0.00  0.00    -0.392 OA
ATOM     36  H   LIG    1      -33.160  79.212  26.024  0.00  0.00    +0.210 HD
ENDBRANCH  34  35
ENDBRANCH  31  34
ENDBRANCH  30  31
ENDBRANCH  26  30
ENDBRANCH   1  28
TORSDOF 9
ENDMDL
