MODEL 1
REMARK VINA RESULT:      -5.9      0.000      0.000
REMARK  Name = pdb/CHEMBL3675936.pdb
REMARK                            x       y       z     vdW  Elec       q    Type
REMARK                         _______ _______ _______ _____ _____    ______ ____
ROOT
ATOM      1  C   LIG    1      -22.765  76.871  30.617  0.00  0.00    +0.100 A 
ATOM      2  C   LIG    1      -21.759  77.256  31.496  0.00  0.00    +0.170 A 
ATOM      3  N   LIG    1      -21.774  77.618  32.821  0.00  0.00    -0.212 NA
ATOM      4  C   LIG    1      -20.649  78.027  33.367  0.00  0.00    +0.126 A 
ATOM      5  C   LIG    1      -19.335  77.998  32.625  0.00  0.00    +0.063 A 
ATOM      6  C   LIG    1      -19.365  77.599  31.350  0.00  0.00    +0.118 A 
ATOM      7  N   LIG    1      -20.568  77.266  30.757  0.00  0.00    -0.221 N 
ATOM      8  N   LIG    1      -20.778  76.968  29.457  0.00  0.00    -0.173 NA
ATOM      9  C   LIG    1      -22.100  76.790  29.377  0.00  0.00    +0.150 A 
ENDROOT
BRANCH   4  10
ATOM     10  N   LIG    1      -20.638  78.493  34.669  0.00  0.00    -0.308 N 
ATOM     11  C   LIG    1      -20.448  79.906  35.022  0.00  0.00    +0.108 C 
ATOM     12  C   LIG    1      -19.405  79.788  36.146  0.00  0.00    +0.029 C 
ATOM     13  C   LIG    1      -19.841  78.547  36.911  0.00  0.00    +0.021 C 
ATOM     14  C   LIG    1      -20.417  77.635  35.835  0.00  0.00    +0.107 C 
BRANCH  11  15
ATOM     15  C   LIG    1      -21.770  80.529  35.451  0.00  0.00    +0.011 A 
ATOM     16  C   LIG    1      -21.804  81.825  35.980  0.00  0.00    +0.129 A 
ATOM     17  F   LIG    1      -20.668  82.520  36.124  0.00  0.00    -0.205 F 
ATOM     18  C   LIG    1      -23.002  82.424  36.379  0.00  0.00    +0.041 A 
ATOM     19  C   LIG    1      -24.205  81.732  36.248  0.00  0.00    +0.041 A 
ATOM     20  C   LIG    1      -24.192  80.454  35.709  0.00  0.00    +0.124 A 
ATOM     21  F   LIG    1      -25.340  79.777  35.579  0.00  0.00    -0.205 F 
ATOM     22  C   LIG    1      -23.001  79.859  35.305  0.00  0.00    +0.046 A 
ENDBRANCH  11  15
ENDBRANCH   4  10
BRANCH   1  25
ATOM     23  N   LIG    1      -24.497  76.192  32.164  0.00  0.00    -0.302 N 
ATOM     24  H   LIG    1      -23.694  76.071  32.779  0.00  0.00    +0.150 HD
ATOM     25  C   LIG    1      -24.198  76.632  30.879  0.00  0.00    +0.250 C 
ATOM     26  O   LIG    1      -25.051  76.811  30.028  0.00  0.00    -0.270 OA
BRANCH  23  28
ATOM     27  C   LIG    1      -25.793  76.164  34.319  0.00  0.00    +0.036 C 
ATOM     28  C   LIG    1      -25.843  76.001  32.782  0.00  0.00    +0.078 C 
BRANCH  28  29
ATOM     29  C   LIG    1      -26.919  76.973  32.230  0.00  0.00    +0.183 C 
BRANCH  29  30
ATOM     30  O   LIG    1      -27.705  76.370  31.197  0.00  0.00    -0.393 OA
ATOM     31  H   LIG    1      -28.213  75.657  31.627  0.00  0.00    +0.209 HD
ENDBRANCH  29  30
ENDBRANCH  28  29
BRANCH  28  32
ATOM     32  C   LIG    1      -26.300  74.538  32.485  0.00  0.00    +0.183 C 
BRANCH  32  33
ATOM     33  O   LIG    1      -25.878  74.099  31.192  0.00  0.00    -0.393 OA
ATOM     34  H   LIG    1      -24.933  73.849  31.293  0.00  0.00    +0.209 HD
ENDBRANCH  32  33
ENDBRANCH  28  32
ENDBRANCH  23  28
ENDBRANCH   1  25
TORSDOF 8
ENDMDL
MODEL 2
REMARK VINA RESULT:      -5.6     16.609     20.316
REMARK  Name = pdb/CHEMBL3675936.pdb
REMARK                            x       y       z     vdW  Elec       q    Type
REMARK                         _______ _______ _______ _____ _____    ______ ____
ROOT
ATOM      1  C   LIG    1      -35.302  67.348  23.121  0.00  0.00    +0.100 A 
ATOM      2  C   LIG    1      -36.362  67.872  22.391  0.00  0.00    +0.170 A 
ATOM      3  N   LIG    1      -37.477  68.587  22.758  0.00  0.00    -0.212 NA
ATOM      4  C   LIG    1      -38.366  68.871  21.831  0.00  0.00    +0.126 A 
ATOM      5  C   LIG    1      -38.147  68.542  20.375  0.00  0.00    +0.063 A 
ATOM      6  C   LIG    1      -37.029  67.881  20.061  0.00  0.00    +0.118 A 
ATOM      7  N   LIG    1      -36.148  67.501  21.057  0.00  0.00    -0.221 N 
ATOM      8  N   LIG    1      -35.050  66.728  20.918  0.00  0.00    -0.173 NA
ATOM      9  C   LIG    1      -34.587  66.598  22.164  0.00  0.00    +0.150 A 
ENDROOT
BRANCH   4  10
ATOM     10  N   LIG    1      -39.548  69.503  22.173  0.00  0.00    -0.308 N 
ATOM     11  C   LIG    1      -39.941  69.792  23.558  0.00  0.00    +0.108 C 
ATOM     12  C   LIG    1      -41.401  69.311  23.554  0.00  0.00    +0.029 C 
ATOM     13  C   LIG    1      -41.916  69.741  22.188  0.00  0.00    +0.021 C 
ATOM     14  C   LIG    1      -40.702  69.603  21.277  0.00  0.00    +0.107 C 
BRANCH  11  15
ATOM     15  C   LIG    1      -39.766  71.274  23.862  0.00  0.00    +0.011 A 
ATOM     16  C   LIG    1      -38.600  71.737  24.484  0.00  0.00    +0.129 A 
ATOM     17  F   LIG    1      -37.635  70.873  24.828  0.00  0.00    -0.205 F 
ATOM     18  C   LIG    1      -38.410  73.092  24.773  0.00  0.00    +0.041 A 
ATOM     19  C   LIG    1      -39.391  74.020  24.434  0.00  0.00    +0.041 A 
ATOM     20  C   LIG    1      -40.545  73.582  23.801  0.00  0.00    +0.124 A 
ATOM     21  F   LIG    1      -41.498  74.464  23.472  0.00  0.00    -0.205 F 
ATOM     22  C   LIG    1      -40.732  72.235  23.507  0.00  0.00    +0.046 A 
ENDBRANCH  11  15
ENDBRANCH   4  10
BRANCH   1  25
ATOM     23  N   LIG    1      -35.016  68.796  25.038  0.00  0.00    -0.302 N 
ATOM     24  H   LIG    1      -35.235  69.510  24.345  0.00  0.00    +0.150 HD
ATOM     25  C   LIG    1      -34.990  67.491  24.557  0.00  0.00    +0.250 C 
ATOM     26  O   LIG    1      -34.732  66.533  25.263  0.00  0.00    -0.270 OA
BRANCH  23  28
ATOM     27  C   LIG    1      -36.117  68.844  27.298  0.00  0.00    +0.036 C 
ATOM     28  C   LIG    1      -34.890  69.258  26.452  0.00  0.00    +0.078 C 
BRANCH  28  29
ATOM     29  C   LIG    1      -33.616  68.733  27.163  0.00  0.00    +0.183 C 
BRANCH  29  30
ATOM     30  O   LIG    1      -33.877  67.548  27.922  0.00  0.00    -0.393 OA
ATOM     31  H   LIG    1      -33.075  66.997  27.846  0.00  0.00    +0.209 HD
ENDBRANCH  29  30
ENDBRANCH  28  29
BRANCH  28  32
ATOM     32  C   LIG    1      -34.842  70.819  26.441  0.00  0.00    +0.183 C 
BRANCH  32  33
ATOM     33  O   LIG    1      -34.371  71.329  25.191  0.00  0.00    -0.393 OA
ATOM     34  H   LIG    1      -34.395  72.307  25.279  0.00  0.00    +0.209 HD
ENDBRANCH  32  33
ENDBRANCH  28  32
ENDBRANCH  23  28
ENDBRANCH   1  25
TORSDOF 8
ENDMDL
MODEL 3
REMARK VINA RESULT:      -5.6      2.485      5.063
REMARK  Name = pdb/CHEMBL3675936.pdb
REMARK                            x       y       z     vdW  Elec       q    Type
REMARK                         _______ _______ _______ _____ _____    ______ ____
ROOT
ATOM      1  C   LIG    1      -25.802  77.811  34.330  0.00  0.00    +0.100 A 
ATOM      2  C   LIG    1      -25.142  78.643  35.227  0.00  0.00    +0.170 A 
ATOM      3  N   LIG    1      -23.989  79.383  35.129  0.00  0.00    -0.212 NA
ATOM      4  C   LIG    1      -23.562  80.013  36.202  0.00  0.00    +0.126 A 
ATOM      5  C   LIG    1      -24.350  80.044  37.488  0.00  0.00    +0.063 A 
ATOM      6  C   LIG    1      -25.487  79.341  37.522  0.00  0.00    +0.118 A 
ATOM      7  N   LIG    1      -25.877  78.603  36.420  0.00  0.00    -0.221 N 
ATOM      8  N   LIG    1      -26.921  77.751  36.342  0.00  0.00    -0.173 NA
ATOM      9  C   LIG    1      -26.832  77.244  35.109  0.00  0.00    +0.150 A 
ENDROOT
BRANCH   4  10
ATOM     10  N   LIG    1      -22.355  80.689  36.176  0.00  0.00    -0.308 N 
ATOM     11  C   LIG    1      -21.130  80.186  36.809  0.00  0.00    +0.108 C 
ATOM     12  C   LIG    1      -20.642  81.445  37.545  0.00  0.00    +0.029 C 
ATOM     13  C   LIG    1      -20.953  82.572  36.571  0.00  0.00    +0.021 C 
ATOM     14  C   LIG    1      -22.234  82.119  35.881  0.00  0.00    +0.107 C 
BRANCH  11  15
ATOM     15  C   LIG    1      -20.165  79.658  35.756  0.00  0.00    +0.011 A 
ATOM     16  C   LIG    1      -18.901  79.184  36.127  0.00  0.00    +0.129 A 
ATOM     17  F   LIG    1      -18.528  79.205  37.414  0.00  0.00    -0.205 F 
ATOM     18  C   LIG    1      -17.995  78.690  35.183  0.00  0.00    +0.041 A 
ATOM     19  C   LIG    1      -18.345  78.654  33.835  0.00  0.00    +0.041 A 
ATOM     20  C   LIG    1      -19.600  79.103  33.451  0.00  0.00    +0.124 A 
ATOM     21  F   LIG    1      -19.949  79.076  32.159  0.00  0.00    -0.205 F 
ATOM     22  C   LIG    1      -20.505  79.588  34.391  0.00  0.00    +0.046 A 
ENDBRANCH  11  15
ENDBRANCH   4  10
BRANCH   1  25
ATOM     23  N   LIG    1      -24.173  77.228  32.639  0.00  0.00    -0.302 N 
ATOM     24  H   LIG    1      -23.552  77.237  33.446  0.00  0.00    +0.150 HD
ATOM     25  C   LIG    1      -25.502  77.537  32.911  0.00  0.00    +0.250 C 
ATOM     26  O   LIG    1      -26.360  77.577  32.047  0.00  0.00    -0.270 OA
BRANCH  23  28
ATOM     27  C   LIG    1      -24.118  75.373  30.941  0.00  0.00    +0.036 C 
ATOM     28  C   LIG    1      -23.582  76.765  31.348  0.00  0.00    +0.078 C 
BRANCH  28  29
ATOM     29  C   LIG    1      -23.834  77.741  30.168  0.00  0.00    +0.183 C 
BRANCH  29  30
ATOM     30  O   LIG    1      -25.026  77.411  29.447  0.00  0.00    -0.393 OA
ATOM     31  H   LIG    1      -24.821  77.561  28.505  0.00  0.00    +0.209 HD
ENDBRANCH  29  30
ENDBRANCH  28  29
BRANCH  28  32
ATOM     32  C   LIG    1      -22.040  76.627  31.553  0.00  0.00    +0.183 C 
BRANCH  32  33
ATOM     33  O   LIG    1      -21.710  76.289  32.902  0.00  0.00    -0.393 OA
ATOM     34  H   LIG    1      -22.503  75.834  33.262  0.00  0.00    +0.209 HD
ENDBRANCH  32  33
ENDBRANCH  28  32
ENDBRANCH  23  28
ENDBRANCH   1  25
TORSDOF 8
ENDMDL
MODEL 4
REMARK VINA RESULT:      -5.5     11.827     14.198
REMARK  Name = pdb/CHEMBL3675936.pdb
REMARK                            x       y       z     vdW  Elec       q    Type
REMARK                         _______ _______ _______ _____ _____    ______ ____
ROOT
ATOM      1  C   LIG    1      -28.773  87.451  34.369  0.00  0.00    +0.100 A 
ATOM      2  C   LIG    1      -28.206  88.661  34.750  0.00  0.00    +0.170 A 
ATOM      3  N   LIG    1      -28.596  89.966  34.569  0.00  0.00    -0.212 NA
ATOM      4  C   LIG    1      -27.785  90.919  34.976  0.00  0.00    +0.126 A 
ATOM      5  C   LIG    1      -26.512  90.627  35.732  0.00  0.00    +0.063 A 
ATOM      6  C   LIG    1      -26.196  89.342  35.919  0.00  0.00    +0.118 A 
ATOM      7  N   LIG    1      -27.005  88.348  35.401  0.00  0.00    -0.221 N 
ATOM      8  N   LIG    1      -26.758  87.021  35.397  0.00  0.00    -0.173 NA
ATOM      9  C   LIG    1      -27.793  86.503  34.729  0.00  0.00    +0.150 A 
ENDROOT
BRANCH   4  10
ATOM     10  N   LIG    1      -28.092  92.244  34.727  0.00  0.00    -0.308 N 
ATOM     11  C   LIG    1      -27.636  92.971  33.534  0.00  0.00    +0.108 C 
ATOM     12  C   LIG    1      -27.129  94.278  34.165  0.00  0.00    +0.029 C 
ATOM     13  C   LIG    1      -28.142  94.562  35.265  0.00  0.00    +0.021 C 
ATOM     14  C   LIG    1      -28.547  93.179  35.759  0.00  0.00    +0.107 C 
BRANCH  11  15
ATOM     15  C   LIG    1      -28.784  93.149  32.550  0.00  0.00    +0.011 A 
ATOM     16  C   LIG    1      -28.615  93.926  31.397  0.00  0.00    +0.129 A 
ATOM     17  F   LIG    1      -27.441  94.529  31.161  0.00  0.00    -0.205 F 
ATOM     18  C   LIG    1      -29.649  94.106  30.474  0.00  0.00    +0.041 A 
ATOM     19  C   LIG    1      -30.885  93.498  30.686  0.00  0.00    +0.041 A 
ATOM     20  C   LIG    1      -31.065  92.710  31.813  0.00  0.00    +0.124 A 
ATOM     21  F   LIG    1      -32.248  92.122  32.030  0.00  0.00    -0.205 F 
ATOM     22  C   LIG    1      -30.034  92.525  32.729  0.00  0.00    +0.046 A 
ENDBRANCH  11  15
ENDBRANCH   4  10
BRANCH   1  25
ATOM     23  N   LIG    1      -30.244  87.820  32.484  0.00  0.00    -0.302 N 
ATOM     24  H   LIG    1      -29.466  88.403  32.180  0.00  0.00    +0.150 HD
ATOM     25  C   LIG    1      -30.069  87.188  33.711  0.00  0.00    +0.250 C 
ATOM     26  O   LIG    1      -30.916  86.469  34.210  0.00  0.00    -0.270 OA
BRANCH  23  28
ATOM     27  C   LIG    1      -32.687  88.239  32.055  0.00  0.00    +0.036 C 
ATOM     28  C   LIG    1      -31.365  87.647  31.512  0.00  0.00    +0.078 C 
BRANCH  28  29
ATOM     29  C   LIG    1      -31.086  88.285  30.126  0.00  0.00    +0.183 C 
BRANCH  29  30
ATOM     30  O   LIG    1      -29.697  88.233  29.783  0.00  0.00    -0.393 OA
ATOM     31  H   LIG    1      -29.335  87.453  30.243  0.00  0.00    +0.209 HD
ENDBRANCH  29  30
ENDBRANCH  28  29
BRANCH  28  32
ATOM     32  C   LIG    1      -31.591  86.114  31.314  0.00  0.00    +0.183 C 
BRANCH  32  33
ATOM     33  O   LIG    1      -30.653  85.552  30.393  0.00  0.00    -0.393 OA
ATOM     34  H   LIG    1      -30.940  85.857  29.504  0.00  0.00    +0.209 HD
ENDBRANCH  32  33
ENDBRANCH  28  32
ENDBRANCH  23  28
ENDBRANCH   1  25
TORSDOF 8
ENDMDL
MODEL 5
REMARK VINA RESULT:      -5.4     16.771     18.738
REMARK  Name = pdb/CHEMBL3675936.pdb
REMARK                            x       y       z     vdW  Elec       q    Type
REMARK                         _______ _______ _______ _____ _____    ______ ____
ROOT
ATOM      1  C   LIG    1      -23.898  79.070  15.161  0.00  0.00    +0.100 A 
ATOM      2  C   LIG    1      -22.685  78.392  15.203  0.00  0.00    +0.170 A 
ATOM      3  N   LIG    1      -22.360  77.064  15.071  0.00  0.00    -0.212 NA
ATOM      4  C   LIG    1      -21.106  76.710  15.253  0.00  0.00    +0.126 A 
ATOM      5  C   LIG    1      -20.007  77.718  15.481  0.00  0.00    +0.063 A 
ATOM      6  C   LIG    1      -20.368  79.003  15.561  0.00  0.00    +0.118 A 
ATOM      7  N   LIG    1      -21.701  79.355  15.468  0.00  0.00    -0.221 N 
ATOM      8  N   LIG    1      -22.231  80.582  15.652  0.00  0.00    -0.173 NA
ATOM      9  C   LIG    1      -23.547  80.388  15.522  0.00  0.00    +0.150 A 
ENDROOT
BRANCH   4  10
ATOM     10  N   LIG    1      -20.752  75.373  15.226  0.00  0.00    -0.308 N 
ATOM     11  C   LIG    1      -20.121  74.679  16.356  0.00  0.00    +0.108 C 
ATOM     12  C   LIG    1      -18.982  73.933  15.642  0.00  0.00    +0.029 C 
ATOM     13  C   LIG    1      -19.614  73.482  14.333  0.00  0.00    +0.021 C 
ATOM     14  C   LIG    1      -20.590  74.602  13.991  0.00  0.00    +0.107 C 
BRANCH  11  15
ATOM     15  C   LIG    1      -21.128  73.774  17.054  0.00  0.00    +0.011 A 
ATOM     16  C   LIG    1      -20.770  73.077  18.214  0.00  0.00    +0.129 A 
ATOM     17  F   LIG    1      -19.530  73.193  18.710  0.00  0.00    -0.205 F 
ATOM     18  C   LIG    1      -21.674  72.242  18.878  0.00  0.00    +0.041 A 
ATOM     19  C   LIG    1      -22.970  72.092  18.391  0.00  0.00    +0.041 A 
ATOM     20  C   LIG    1      -23.348  72.790  17.253  0.00  0.00    +0.124 A 
ATOM     21  F   LIG    1      -24.591  72.654  16.773  0.00  0.00    -0.205 F 
ATOM     22  C   LIG    1      -22.452  73.627  16.596  0.00  0.00    +0.046 A 
ENDBRANCH  11  15
ENDBRANCH   4  10
BRANCH   1  25
ATOM     23  N   LIG    1      -25.400  78.027  13.577  0.00  0.00    -0.302 N 
ATOM     24  H   LIG    1      -24.567  78.059  12.991  0.00  0.00    +0.150 HD
ATOM     25  C   LIG    1      -25.248  78.559  14.854  0.00  0.00    +0.250 C 
ATOM     26  O   LIG    1      -26.157  78.600  15.663  0.00  0.00    -0.270 OA
BRANCH  23  28
ATOM     27  C   LIG    1      -26.288  76.744  11.605  0.00  0.00    +0.036 C 
ATOM     28  C   LIG    1      -26.581  77.307  13.015  0.00  0.00    +0.078 C 
BRANCH  28  29
ATOM     29  C   LIG    1      -27.075  76.138  13.907  0.00  0.00    +0.183 C 
BRANCH  29  30
ATOM     30  O   LIG    1      -27.967  76.586  14.932  0.00  0.00    -0.393 OA
ATOM     31  H   LIG    1      -28.836  76.197  14.721  0.00  0.00    +0.209 HD
ENDBRANCH  29  30
ENDBRANCH  28  29
BRANCH  28  32
ATOM     32  C   LIG    1      -27.743  78.341  12.868  0.00  0.00    +0.183 C 
BRANCH  32  33
ATOM     33  O   LIG    1      -29.010  77.699  12.706  0.00  0.00    -0.393 OA
ATOM     34  H   LIG    1      -28.954  77.217  11.852  0.00  0.00    +0.209 HD
ENDBRANCH  32  33
ENDBRANCH  28  32
ENDBRANCH  23  28
ENDBRANCH   1  25
TORSDOF 8
ENDMDL
MODEL 6
REMARK VINA RESULT:      -5.4     18.254     21.173
REMARK  Name = pdb/CHEMBL3675936.pdb
REMARK                            x       y       z     vdW  Elec       q    Type
REMARK                         _______ _______ _______ _____ _____    ______ ____
ROOT
ATOM      1  C   LIG    1      -18.718  85.451  13.256  0.00  0.00    +0.100 A 
ATOM      2  C   LIG    1      -19.011  84.114  13.502  0.00  0.00    +0.170 A 
ATOM      3  N   LIG    1      -20.087  83.493  14.088  0.00  0.00    -0.212 NA
ATOM      4  C   LIG    1      -20.033  82.190  14.263  0.00  0.00    +0.126 A 
ATOM      5  C   LIG    1      -18.892  81.352  13.741  0.00  0.00    +0.063 A 
ATOM      6  C   LIG    1      -17.887  81.998  13.141  0.00  0.00    +0.118 A 
ATOM      7  N   LIG    1      -17.907  83.377  13.051  0.00  0.00    -0.221 N 
ATOM      8  N   LIG    1      -16.920  84.174  12.592  0.00  0.00    -0.173 NA
ATOM      9  C   LIG    1      -17.394  85.411  12.772  0.00  0.00    +0.150 A 
ENDROOT
BRANCH   4  10
ATOM     10  N   LIG    1      -21.050  81.538  14.936  0.00  0.00    -0.308 N 
ATOM     11  C   LIG    1      -22.300  82.190  15.345  0.00  0.00    +0.108 C 
ATOM     12  C   LIG    1      -22.422  81.704  16.799  0.00  0.00    +0.029 C 
ATOM     13  C   LIG    1      -21.944  80.260  16.734  0.00  0.00    +0.021 C 
ATOM     14  C   LIG    1      -20.865  80.277  15.659  0.00  0.00    +0.107 C 
BRANCH  11  15
ATOM     15  C   LIG    1      -23.445  81.761  14.439  0.00  0.00    +0.011 A 
ATOM     16  C   LIG    1      -23.657  82.402  13.212  0.00  0.00    +0.129 A 
ATOM     17  F   LIG    1      -22.857  83.409  12.835  0.00  0.00    -0.205 F 
ATOM     18  C   LIG    1      -24.698  82.028  12.357  0.00  0.00    +0.041 A 
ATOM     19  C   LIG    1      -25.553  80.988  12.715  0.00  0.00    +0.041 A 
ATOM     20  C   LIG    1      -25.347  80.329  13.918  0.00  0.00    +0.124 A 
ATOM     21  F   LIG    1      -26.163  79.329  14.275  0.00  0.00    -0.205 F 
ATOM     22  C   LIG    1      -24.307  80.696  14.766  0.00  0.00    +0.046 A 
ENDBRANCH  11  15
ENDBRANCH   4  10
BRANCH   1  25
ATOM     23  N   LIG    1      -20.903  86.486  13.179  0.00  0.00    -0.302 N 
ATOM     24  H   LIG    1      -21.165  85.563  12.836  0.00  0.00    +0.150 HD
ATOM     25  C   LIG    1      -19.553  86.648  13.472  0.00  0.00    +0.250 C 
ATOM     26  O   LIG    1      -19.089  87.698  13.879  0.00  0.00    -0.270 OA
BRANCH  23  28
ATOM     27  C   LIG    1      -23.270  87.093  12.585  0.00  0.00    +0.036 C 
ATOM     28  C   LIG    1      -22.021  87.446  13.424  0.00  0.00    +0.078 C 
BRANCH  28  29
ATOM     29  C   LIG    1      -22.448  87.529  14.912  0.00  0.00    +0.183 C 
BRANCH  29  30
ATOM     30  O   LIG    1      -22.398  88.870  15.410  0.00  0.00    -0.393 OA
ATOM     31  H   LIG    1      -22.631  88.816  16.355  0.00  0.00    +0.209 HD
ENDBRANCH  29  30
ENDBRANCH  28  29
BRANCH  28  32
ATOM     32  C   LIG    1      -21.541  88.861  12.968  0.00  0.00    +0.183 C 
BRANCH  32  33
ATOM     33  O   LIG    1      -21.080  88.857  11.614  0.00  0.00    -0.393 OA
ATOM     34  H   LIG    1      -20.981  89.802  11.366  0.00  0.00    +0.209 HD
ENDBRANCH  32  33
ENDBRANCH  28  32
ENDBRANCH  23  28
ENDBRANCH   1  25
TORSDOF 8
ENDMDL
MODEL 7
REMARK VINA RESULT:      -5.4     13.749     17.513
REMARK  Name = pdb/CHEMBL3675936.pdb
REMARK                            x       y       z     vdW  Elec       q    Type
REMARK                         _______ _______ _______ _____ _____    ______ ____
ROOT
ATOM      1  C   LIG    1      -37.719  76.073  25.646  0.00  0.00    +0.100 A 
ATOM      2  C   LIG    1      -38.213  74.814  25.328  0.00  0.00    +0.170 A 
ATOM      3  N   LIG    1      -37.797  73.545  25.652  0.00  0.00    -0.212 NA
ATOM      4  C   LIG    1      -38.432  72.526  25.113  0.00  0.00    +0.126 A 
ATOM      5  C   LIG    1      -39.661  72.702  24.256  0.00  0.00    +0.063 A 
ATOM      6  C   LIG    1      -40.051  73.955  24.002  0.00  0.00    +0.118 A 
ATOM      7  N   LIG    1      -39.319  75.021  24.491  0.00  0.00    -0.221 N 
ATOM      8  N   LIG    1      -39.509  76.329  24.220  0.00  0.00    -0.173 NA
ATOM      9  C   LIG    1      -38.515  76.941  24.870  0.00  0.00    +0.150 A 
ENDROOT
BRANCH   4  10
ATOM     10  N   LIG    1      -37.986  71.235  25.334  0.00  0.00    -0.308 N 
ATOM     11  C   LIG    1      -36.598  70.809  25.116  0.00  0.00    +0.108 C 
ATOM     12  C   LIG    1      -36.814  69.501  24.337  0.00  0.00    +0.029 C 
ATOM     13  C   LIG    1      -38.027  68.878  25.011  0.00  0.00    +0.021 C 
ATOM     14  C   LIG    1      -38.876  70.075  25.421  0.00  0.00    +0.107 C 
BRANCH  11  15
ATOM     15  C   LIG    1      -35.879  70.639  26.447  0.00  0.00    +0.011 A 
ATOM     16  C   LIG    1      -34.557  70.176  26.485  0.00  0.00    +0.129 A 
ATOM     17  F   LIG    1      -33.923  69.867  25.345  0.00  0.00    -0.205 F 
ATOM     18  C   LIG    1      -33.870  70.013  27.691  0.00  0.00    +0.041 A 
ATOM     19  C   LIG    1      -34.497  70.320  28.897  0.00  0.00    +0.041 A 
ATOM     20  C   LIG    1      -35.799  70.797  28.877  0.00  0.00    +0.124 A 
ATOM     21  F   LIG    1      -36.414  71.094  30.029  0.00  0.00    -0.205 F 
ATOM     22  C   LIG    1      -36.482  70.966  27.677  0.00  0.00    +0.046 A 
ENDBRANCH  11  15
ENDBRANCH   4  10
BRANCH   1  25
ATOM     23  N   LIG    1      -35.851  75.378  27.018  0.00  0.00    -0.302 N 
ATOM     24  H   LIG    1      -36.153  74.458  26.702  0.00  0.00    +0.150 HD
ATOM     25  C   LIG    1      -36.609  76.445  26.545  0.00  0.00    +0.250 C 
ATOM     26  O   LIG    1      -36.377  77.602  26.845  0.00  0.00    -0.270 OA
BRANCH  23  28
ATOM     27  C   LIG    1      -33.957  74.026  27.970  0.00  0.00    +0.036 C 
ATOM     28  C   LIG    1      -34.590  75.428  27.816  0.00  0.00    +0.078 C 
BRANCH  28  29
ATOM     29  C   LIG    1      -33.518  76.377  27.220  0.00  0.00    +0.183 C 
BRANCH  29  30
ATOM     30  O   LIG    1      -33.557  77.675  27.823  0.00  0.00    -0.393 OA
ATOM     31  H   LIG    1      -34.204  77.615  28.550  0.00  0.00    +0.209 HD
ENDBRANCH  29  30
ENDBRANCH  28  29
BRANCH  28  32
ATOM     32  C   LIG    1      -34.954  75.932  29.249  0.00  0.00    +0.183 C 
BRANCH  32  33
ATOM     33  O   LIG    1      -33.825  75.902  30.127  0.00  0.00    -0.393 OA
ATOM     34  H   LIG    1      -33.630  74.951  30.273  0.00  0.00    +0.209 HD
ENDBRANCH  32  33
ENDBRANCH  28  32
ENDBRANCH  23  28
ENDBRANCH   1  25
TORSDOF 8
ENDMDL
MODEL 8
REMARK VINA RESULT:      -5.3     12.735     16.596
REMARK  Name = pdb/CHEMBL3675936.pdb
REMARK                            x       y       z     vdW  Elec       q    Type
REMARK                         _______ _______ _______ _____ _____    ______ ____
ROOT
ATOM      1  C   LIG    1      -36.825  76.339  26.530  0.00  0.00    +0.100 A 
ATOM      2  C   LIG    1      -37.859  77.261  26.414  0.00  0.00    +0.170 A 
ATOM      3  N   LIG    1      -38.003  78.554  26.856  0.00  0.00    -0.212 NA
ATOM      4  C   LIG    1      -39.160  79.151  26.666  0.00  0.00    +0.126 A 
ATOM      5  C   LIG    1      -40.280  78.510  25.884  0.00  0.00    +0.063 A 
ATOM      6  C   LIG    1      -40.078  77.266  25.439  0.00  0.00    +0.118 A 
ATOM      7  N   LIG    1      -38.895  76.611  25.729  0.00  0.00    -0.221 N 
ATOM      8  N   LIG    1      -38.595  75.323  25.462  0.00  0.00    -0.173 NA
ATOM      9  C   LIG    1      -37.380  75.158  25.994  0.00  0.00    +0.150 A 
ENDROOT
BRANCH   4  10
ATOM     10  N   LIG    1      -39.381  80.416  27.181  0.00  0.00    -0.308 N 
ATOM     11  C   LIG    1      -38.474  81.074  28.130  0.00  0.00    +0.108 C 
ATOM     12  C   LIG    1      -39.475  81.597  29.174  0.00  0.00    +0.029 C 
ATOM     13  C   LIG    1      -40.659  82.057  28.336  0.00  0.00    +0.021 C 
ATOM     14  C   LIG    1      -40.687  81.078  27.170  0.00  0.00    +0.107 C 
BRANCH  11  15
ATOM     15  C   LIG    1      -37.669  82.160  27.429  0.00  0.00    +0.011 A 
ATOM     16  C   LIG    1      -36.746  82.932  28.146  0.00  0.00    +0.129 A 
ATOM     17  F   LIG    1      -36.577  82.726  29.460  0.00  0.00    -0.205 F 
ATOM     18  C   LIG    1      -35.990  83.933  27.530  0.00  0.00    +0.041 A 
ATOM     19  C   LIG    1      -36.139  84.179  26.166  0.00  0.00    +0.041 A 
ATOM     20  C   LIG    1      -37.035  83.412  25.437  0.00  0.00    +0.124 A 
ATOM     21  F   LIG    1      -37.190  83.638  24.126  0.00  0.00    -0.205 F 
ATOM     22  C   LIG    1      -37.783  82.410  26.048  0.00  0.00    +0.046 A 
ENDBRANCH  11  15
ENDBRANCH   4  10
BRANCH   1  25
ATOM     23  N   LIG    1      -35.058  77.831  27.239  0.00  0.00    -0.302 N 
ATOM     24  H   LIG    1      -35.723  78.533  26.919  0.00  0.00    +0.150 HD
ATOM     25  C   LIG    1      -35.475  76.511  27.102  0.00  0.00    +0.250 C 
ATOM     26  O   LIG    1      -34.784  75.563  27.429  0.00  0.00    -0.270 OA
BRANCH  23  28
ATOM     27  C   LIG    1      -33.585  77.648  29.270  0.00  0.00    +0.036 C 
ATOM     28  C   LIG    1      -33.823  78.341  27.908  0.00  0.00    +0.078 C 
BRANCH  28  29
ATOM     29  C   LIG    1      -32.542  78.171  27.051  0.00  0.00    +0.183 C 
BRANCH  29  30
ATOM     30  O   LIG    1      -32.746  78.579  25.695  0.00  0.00    -0.393 OA
ATOM     31  H   LIG    1      -32.606  77.783  25.150  0.00  0.00    +0.209 HD
ENDBRANCH  29  30
ENDBRANCH  28  29
BRANCH  28  32
ATOM     32  C   LIG    1      -34.029  79.863  28.192  0.00  0.00    +0.183 C 
BRANCH  32  33
ATOM     33  O   LIG    1      -34.227  80.607  26.988  0.00  0.00    -0.393 OA
ATOM     34  H   LIG    1      -35.196  80.757  26.926  0.00  0.00    +0.209 HD
ENDBRANCH  32  33
ENDBRANCH  28  32
ENDBRANCH  23  28
ENDBRANCH   1  25
TORSDOF 8
ENDMDL
MODEL 9
REMARK VINA RESULT:      -5.3     14.276     17.665
REMARK  Name = pdb/CHEMBL3675936.pdb
REMARK                            x       y       z     vdW  Elec       q    Type
REMARK                         _______ _______ _______ _____ _____    ______ ____
ROOT
ATOM      1  C   LIG    1      -38.741  71.301  24.073  0.00  0.00    +0.100 A 
ATOM      2  C   LIG    1      -39.012  72.640  24.328  0.00  0.00    +0.170 A 
ATOM      3  N   LIG    1      -38.297  73.626  24.964  0.00  0.00    -0.212 NA
ATOM      4  C   LIG    1      -38.870  74.799  25.132  0.00  0.00    +0.126 A 
ATOM      5  C   LIG    1      -40.223  75.127  24.551  0.00  0.00    +0.063 A 
ATOM      6  C   LIG    1      -40.862  74.147  23.906  0.00  0.00    +0.118 A 
ATOM      7  N   LIG    1      -40.294  72.889  23.821  0.00  0.00    -0.221 N 
ATOM      8  N   LIG    1      -40.864  71.774  23.317  0.00  0.00    -0.173 NA
ATOM      9  C   LIG    1      -39.949  70.823  23.525  0.00  0.00    +0.150 A 
ENDROOT
BRANCH   4  10
ATOM     10  N   LIG    1      -38.225  75.789  25.851  0.00  0.00    -0.308 N 
ATOM     11  C   LIG    1      -37.918  75.681  27.283  0.00  0.00    +0.108 C 
ATOM     12  C   LIG    1      -38.390  77.054  27.788  0.00  0.00    +0.029 C 
ATOM     13  C   LIG    1      -37.972  78.007  26.677  0.00  0.00    +0.021 C 
ATOM     14  C   LIG    1      -38.128  77.181  25.406  0.00  0.00    +0.107 C 
BRANCH  11  15
ATOM     15  C   LIG    1      -36.434  75.408  27.489  0.00  0.00    +0.011 A 
ATOM     16  C   LIG    1      -35.993  74.133  27.863  0.00  0.00    +0.129 A 
ATOM     17  F   LIG    1      -36.879  73.146  28.054  0.00  0.00    -0.205 F 
ATOM     18  C   LIG    1      -34.637  73.852  28.056  0.00  0.00    +0.041 A 
ATOM     19  C   LIG    1      -33.685  74.853  27.870  0.00  0.00    +0.041 A 
ATOM     20  C   LIG    1      -34.103  76.117  27.482  0.00  0.00    +0.124 A 
ATOM     21  F   LIG    1      -33.199  77.088  27.301  0.00  0.00    -0.205 F 
ATOM     22  C   LIG    1      -35.451  76.396  27.283  0.00  0.00    +0.046 A 
ENDBRANCH  11  15
ENDBRANCH   4  10
BRANCH   1  25
ATOM     23  N   LIG    1      -37.125  70.466  25.669  0.00  0.00    -0.302 N 
ATOM     24  H   LIG    1      -37.726  70.971  26.318  0.00  0.00    +0.150 HD
ATOM     25  C   LIG    1      -37.511  70.527  24.334  0.00  0.00    +0.250 C 
ATOM     26  O   LIG    1      -36.886  69.983  23.441  0.00  0.00    -0.270 OA
BRANCH  23  28
ATOM     27  C   LIG    1      -36.378  69.198  27.708  0.00  0.00    +0.036 C 
ATOM     28  C   LIG    1      -36.027  69.655  26.273  0.00  0.00    +0.078 C 
BRANCH  28  29
ATOM     29  C   LIG    1      -35.660  68.396  25.444  0.00  0.00    +0.183 C 
BRANCH  29  30
ATOM     30  O   LIG    1      -34.582  68.648  24.537  0.00  0.00    -0.393 OA
ATOM     31  H   LIG    1      -34.712  69.558  24.211  0.00  0.00    +0.209 HD
ENDBRANCH  29  30
ENDBRANCH  28  29
BRANCH  28  32
ATOM     32  C   LIG    1      -34.762  70.565  26.374  0.00  0.00    +0.183 C 
BRANCH  32  33
ATOM     33  O   LIG    1      -34.525  71.284  25.161  0.00  0.00    -0.393 OA
ATOM     34  H   LIG    1      -35.032  70.807  24.468  0.00  0.00    +0.209 HD
ENDBRANCH  32  33
ENDBRANCH  28  32
ENDBRANCH  23  28
ENDBRANCH   1  25
TORSDOF 8
ENDMDL
