MODEL 1
REMARK VINA RESULT:      -6.1      0.000      0.000
REMARK  Name = pdb/CHEMBL3676037.pdb
REMARK                            x       y       z     vdW  Elec       q    Type
REMARK                         _______ _______ _______ _____ _____    ______ ____
ROOT
ATOM      1  C   LIG    1      -22.812  76.844  30.568  0.00  0.00    +0.100 A 
ATOM      2  C   LIG    1      -21.892  77.363  31.471  0.00  0.00    +0.170 A 
ATOM      3  N   LIG    1      -21.955  77.730  32.797  0.00  0.00    -0.212 NA
ATOM      4  C   LIG    1      -20.865  78.221  33.363  0.00  0.00    +0.126 A 
ATOM      5  C   LIG    1      -19.564  78.354  32.602  0.00  0.00    +0.063 A 
ATOM      6  C   LIG    1      -19.555  77.978  31.323  0.00  0.00    +0.118 A 
ATOM      7  N   LIG    1      -20.701  77.480  30.737  0.00  0.00    -0.221 N 
ATOM      8  N   LIG    1      -20.827  77.059  29.460  0.00  0.00    -0.173 NA
ATOM      9  C   LIG    1      -22.094  76.677  29.373  0.00  0.00    +0.150 A 
ENDROOT
BRANCH   4  10
ATOM     10  N   LIG    1      -20.870  78.630  34.692  0.00  0.00    -0.308 N 
ATOM     11  C   LIG    1      -20.709  80.032  35.109  0.00  0.00    +0.108 C 
ATOM     12  C   LIG    1      -19.651  79.914  36.219  0.00  0.00    +0.029 C 
ATOM     13  C   LIG    1      -20.030  78.627  36.930  0.00  0.00    +0.021 C 
ATOM     14  C   LIG    1      -20.508  77.729  35.796  0.00  0.00    +0.107 C 
BRANCH  11  15
ATOM     15  C   LIG    1      -22.022  80.637  35.589  0.00  0.00    +0.011 A 
ATOM     16  C   LIG    1      -22.027  81.935  36.123  0.00  0.00    +0.129 A 
ATOM     17  F   LIG    1      -20.881  82.623  36.206  0.00  0.00    -0.205 F 
ATOM     18  C   LIG    1      -23.199  82.543  36.578  0.00  0.00    +0.041 A 
ATOM     19  C   LIG    1      -24.408  81.859  36.495  0.00  0.00    +0.041 A 
ATOM     20  C   LIG    1      -24.427  80.580  35.954  0.00  0.00    +0.124 A 
ATOM     21  F   LIG    1      -25.589  79.920  35.866  0.00  0.00    -0.205 F 
ATOM     22  C   LIG    1      -23.257  79.970  35.502  0.00  0.00    +0.046 A 
ENDBRANCH  11  15
ENDBRANCH   4  10
BRANCH   1  25
ATOM     23  N   LIG    1      -24.562  75.734  31.796  0.00  0.00    -0.311 N 
ATOM     24  H   LIG    1      -23.834  75.593  32.498  0.00  0.00    +0.149 HD
ATOM     25  C   LIG    1      -24.220  76.501  30.718  0.00  0.00    +0.249 C 
ATOM     26  O   LIG    1      -25.054  76.889  29.901  0.00  0.00    -0.270 OA
BRANCH  23  27
ATOM     27  C   LIG    1      -25.951  75.401  32.084  0.00  0.00    +0.113 C 
BRANCH  27  29
ATOM     28  C   LIG    1      -25.464  77.081  33.898  0.00  0.00    +0.015 C 
ATOM     29  C   LIG    1      -26.548  76.172  33.280  0.00  0.00    +0.004 C 
ATOM     30  C   LIG    1      -27.019  75.186  34.364  0.00  0.00    +0.015 C 
BRANCH  29  31
ATOM     31  C   LIG    1      -27.722  77.044  32.791  0.00  0.00    +0.163 C 
BRANCH  31  32
ATOM     32  O   LIG    1      -27.503  77.491  31.458  0.00  0.00    -0.394 OA
ATOM     33  H   LIG    1      -28.372  77.733  31.097  0.00  0.00    +0.209 HD
ENDBRANCH  31  32
ENDBRANCH  29  31
ENDBRANCH  27  29
ENDBRANCH  23  27
ENDBRANCH   1  25
TORSDOF 7
ENDMDL
MODEL 2
REMARK VINA RESULT:      -5.9      1.861      2.656
REMARK  Name = pdb/CHEMBL3676037.pdb
REMARK                            x       y       z     vdW  Elec       q    Type
REMARK                         _______ _______ _______ _____ _____    ______ ____
ROOT
ATOM      1  C   LIG    1      -19.616  76.811  30.810  0.00  0.00    +0.100 A 
ATOM      2  C   LIG    1      -19.152  77.226  32.053  0.00  0.00    +0.170 A 
ATOM      3  N   LIG    1      -19.760  77.512  33.254  0.00  0.00    -0.212 NA
ATOM      4  C   LIG    1      -19.001  77.912  34.260  0.00  0.00    +0.126 A 
ATOM      5  C   LIG    1      -17.498  78.028  34.127  0.00  0.00    +0.063 A 
ATOM      6  C   LIG    1      -16.959  77.733  32.944  0.00  0.00    +0.118 A 
ATOM      7  N   LIG    1      -17.762  77.331  31.895  0.00  0.00    -0.221 N 
ATOM      8  N   LIG    1      -17.346  76.998  30.654  0.00  0.00    -0.173 NA
ATOM      9  C   LIG    1      -18.465  76.685  30.016  0.00  0.00    +0.150 A 
ENDROOT
BRANCH   4  10
ATOM     10  N   LIG    1      -19.557  78.236  35.493  0.00  0.00    -0.308 N 
ATOM     11  C   LIG    1      -19.375  79.543  36.146  0.00  0.00    +0.108 C 
ATOM     12  C   LIG    1      -18.996  79.132  37.579  0.00  0.00    +0.029 C 
ATOM     13  C   LIG    1      -19.874  77.922  37.842  0.00  0.00    +0.021 C 
ATOM     14  C   LIG    1      -19.911  77.217  36.492  0.00  0.00    +0.107 C 
BRANCH  11  15
ATOM     15  C   LIG    1      -20.636  80.394  36.077  0.00  0.00    +0.011 A 
ATOM     16  C   LIG    1      -20.672  81.627  36.745  0.00  0.00    +0.129 A 
ATOM     17  F   LIG    1      -19.600  82.039  37.436  0.00  0.00    -0.205 F 
ATOM     18  C   LIG    1      -21.798  82.451  36.717  0.00  0.00    +0.041 A 
ATOM     19  C   LIG    1      -22.923  82.058  35.999  0.00  0.00    +0.041 A 
ATOM     20  C   LIG    1      -22.903  80.849  35.317  0.00  0.00    +0.124 A 
ATOM     21  F   LIG    1      -23.980  80.469  34.619  0.00  0.00    -0.205 F 
ATOM     22  C   LIG    1      -21.779  80.022  35.345  0.00  0.00    +0.046 A 
ENDBRANCH  11  15
ENDBRANCH   4  10
BRANCH   1  25
ATOM     23  N   LIG    1      -21.917  76.266  31.273  0.00  0.00    -0.311 N 
ATOM     24  H   LIG    1      -21.652  76.441  32.243  0.00  0.00    +0.149 HD
ATOM     25  C   LIG    1      -20.963  76.530  30.330  0.00  0.00    +0.249 C 
ATOM     26  O   LIG    1      -21.217  76.530  29.126  0.00  0.00    -0.270 OA
BRANCH  23  27
ATOM     27  C   LIG    1      -23.310  76.051  30.907  0.00  0.00    +0.113 C 
BRANCH  27  29
ATOM     28  C   LIG    1      -23.555  78.003  32.482  0.00  0.00    +0.015 C 
ATOM     29  C   LIG    1      -24.272  77.146  31.416  0.00  0.00    +0.004 C 
ATOM     30  C   LIG    1      -25.507  76.504  32.072  0.00  0.00    +0.015 C 
BRANCH  29  31
ATOM     31  C   LIG    1      -24.688  78.048  30.237  0.00  0.00    +0.163 C 
BRANCH  31  32
ATOM     32  O   LIG    1      -23.587  78.291  29.369  0.00  0.00    -0.394 OA
ATOM     33  H   LIG    1      -22.856  78.606  29.926  0.00  0.00    +0.209 HD
ENDBRANCH  31  32
ENDBRANCH  29  31
ENDBRANCH  27  29
ENDBRANCH  23  27
ENDBRANCH   1  25
TORSDOF 7
ENDMDL
MODEL 3
REMARK VINA RESULT:      -5.6     18.502     21.419
REMARK  Name = pdb/CHEMBL3676037.pdb
REMARK                            x       y       z     vdW  Elec       q    Type
REMARK                         _______ _______ _______ _____ _____    ______ ____
ROOT
ATOM      1  C   LIG    1      -18.872  82.352  13.890  0.00  0.00    +0.100 A 
ATOM      2  C   LIG    1      -19.155  83.702  13.715  0.00  0.00    +0.170 A 
ATOM      3  N   LIG    1      -20.274  84.478  13.916  0.00  0.00    -0.212 NA
ATOM      4  C   LIG    1      -20.204  85.765  13.620  0.00  0.00    +0.126 A 
ATOM      5  C   LIG    1      -18.929  86.396  13.104  0.00  0.00    +0.063 A 
ATOM      6  C   LIG    1      -17.872  85.601  12.935  0.00  0.00    +0.118 A 
ATOM      7  N   LIG    1      -17.959  84.256  13.232  0.00  0.00    -0.221 N 
ATOM      8  N   LIG    1      -16.968  83.346  13.113  0.00  0.00    -0.173 NA
ATOM      9  C   LIG    1      -17.526  82.211  13.514  0.00  0.00    +0.150 A 
ENDROOT
BRANCH   4  10
ATOM     10  N   LIG    1      -21.306  86.598  13.780  0.00  0.00    -0.308 N 
ATOM     11  C   LIG    1      -21.808  87.489  12.721  0.00  0.00    +0.108 C 
ATOM     12  C   LIG    1      -21.987  88.815  13.480  0.00  0.00    +0.029 C 
ATOM     13  C   LIG    1      -22.503  88.376  14.838  0.00  0.00    +0.021 C 
ATOM     14  C   LIG    1      -21.747  87.079  15.097  0.00  0.00    +0.107 C 
BRANCH  11  15
ATOM     15  C   LIG    1      -23.101  86.968  12.107  0.00  0.00    +0.011 A 
ATOM     16  C   LIG    1      -23.851  87.807  11.268  0.00  0.00    +0.129 A 
ATOM     17  F   LIG    1      -23.424  89.053  11.022  0.00  0.00    -0.205 F 
ATOM     18  C   LIG    1      -25.043  87.386  10.675  0.00  0.00    +0.041 A 
ATOM     19  C   LIG    1      -25.508  86.094  10.901  0.00  0.00    +0.041 A 
ATOM     20  C   LIG    1      -24.771  85.242  11.714  0.00  0.00    +0.124 A 
ATOM     21  F   LIG    1      -25.210  83.996  11.930  0.00  0.00    -0.205 F 
ATOM     22  C   LIG    1      -23.582  85.662  12.310  0.00  0.00    +0.046 A 
ENDBRANCH  11  15
ENDBRANCH   4  10
BRANCH   1  25
ATOM     23  N   LIG    1      -21.042  81.332  14.121  0.00  0.00    -0.311 N 
ATOM     24  H   LIG    1      -21.342  82.081  13.495  0.00  0.00    +0.149 HD
ATOM     25  C   LIG    1      -19.698  81.248  14.359  0.00  0.00    +0.249 C 
ATOM     26  O   LIG    1      -19.198  80.290  14.946  0.00  0.00    -0.270 OA
BRANCH  23  27
ATOM     27  C   LIG    1      -21.947  80.248  14.475  0.00  0.00    +0.113 C 
BRANCH  27  29
ATOM     28  C   LIG    1      -22.476  81.142  16.771  0.00  0.00    +0.015 C 
ATOM     29  C   LIG    1      -23.083  80.663  15.434  0.00  0.00    +0.004 C 
ATOM     30  C   LIG    1      -23.995  79.458  15.728  0.00  0.00    +0.015 C 
BRANCH  29  31
ATOM     31  C   LIG    1      -23.890  81.815  14.803  0.00  0.00    +0.163 C 
BRANCH  31  32
ATOM     32  O   LIG    1      -23.182  83.045  14.901  0.00  0.00    -0.394 OA
ATOM     33  H   LIG    1      -23.273  83.347  15.821  0.00  0.00    +0.209 HD
ENDBRANCH  31  32
ENDBRANCH  29  31
ENDBRANCH  27  29
ENDBRANCH  23  27
ENDBRANCH   1  25
TORSDOF 7
ENDMDL
MODEL 4
REMARK VINA RESULT:      -5.5     16.718     20.024
REMARK  Name = pdb/CHEMBL3676037.pdb
REMARK                            x       y       z     vdW  Elec       q    Type
REMARK                         _______ _______ _______ _____ _____    ______ ____
ROOT
ATOM      1  C   LIG    1      -37.794  68.522  22.328  0.00  0.00    +0.100 A 
ATOM      2  C   LIG    1      -38.751  69.472  22.665  0.00  0.00    +0.170 A 
ATOM      3  N   LIG    1      -38.840  70.436  23.644  0.00  0.00    -0.212 NA
ATOM      4  C   LIG    1      -39.932  71.178  23.695  0.00  0.00    +0.126 A 
ATOM      5  C   LIG    1      -41.055  71.012  22.694  0.00  0.00    +0.063 A 
ATOM      6  C   LIG    1      -40.917  70.068  21.762  0.00  0.00    +0.118 A 
ATOM      7  N   LIG    1      -39.778  69.288  21.727  0.00  0.00    -0.221 N 
ATOM      8  N   LIG    1      -39.510  68.308  20.837  0.00  0.00    -0.173 NA
ATOM      9  C   LIG    1      -38.317  67.861  21.206  0.00  0.00    +0.150 A 
ENDROOT
BRANCH   4  10
ATOM     10  N   LIG    1      -40.092  72.154  24.673  0.00  0.00    -0.308 N 
ATOM     11  C   LIG    1      -39.112  73.225  24.916  0.00  0.00    +0.108 C 
ATOM     12  C   LIG    1      -38.959  73.175  26.446  0.00  0.00    +0.029 C 
ATOM     13  C   LIG    1      -40.369  72.889  26.931  0.00  0.00    +0.021 C 
ATOM     14  C   LIG    1      -40.918  71.943  25.870  0.00  0.00    +0.107 C 
BRANCH  11  15
ATOM     15  C   LIG    1      -39.604  74.573  24.404  0.00  0.00    +0.011 A 
ATOM     16  C   LIG    1      -38.776  75.699  24.524  0.00  0.00    +0.129 A 
ATOM     17  F   LIG    1      -37.566  75.576  25.087  0.00  0.00    -0.205 F 
ATOM     18  C   LIG    1      -39.171  76.959  24.072  0.00  0.00    +0.041 A 
ATOM     19  C   LIG    1      -40.416  77.118  23.471  0.00  0.00    +0.041 A 
ATOM     20  C   LIG    1      -41.244  76.013  23.328  0.00  0.00    +0.124 A 
ATOM     21  F   LIG    1      -42.441  76.159  22.745  0.00  0.00    -0.205 F 
ATOM     22  C   LIG    1      -40.853  74.753  23.781  0.00  0.00    +0.046 A 
ENDBRANCH  11  15
ENDBRANCH   4  10
BRANCH   1  25
ATOM     23  N   LIG    1      -36.154  68.887  24.055  0.00  0.00    -0.311 N 
ATOM     24  H   LIG    1      -36.889  69.450  24.486  0.00  0.00    +0.149 HD
ATOM     25  C   LIG    1      -36.503  68.204  22.924  0.00  0.00    +0.249 C 
ATOM     26  O   LIG    1      -35.765  67.358  22.418  0.00  0.00    -0.270 OA
BRANCH  23  27
ATOM     27  C   LIG    1      -34.924  68.590  24.776  0.00  0.00    +0.113 C 
BRANCH  27  29
ATOM     28  C   LIG    1      -34.104  67.901  27.056  0.00  0.00    +0.015 C 
ATOM     29  C   LIG    1      -34.983  68.908  26.284  0.00  0.00    +0.004 C 
ATOM     30  C   LIG    1      -36.428  68.774  26.798  0.00  0.00    +0.015 C 
BRANCH  29  31
ATOM     31  C   LIG    1      -34.450  70.335  26.527  0.00  0.00    +0.163 C 
BRANCH  31  32
ATOM     32  O   LIG    1      -34.533  71.117  25.341  0.00  0.00    -0.394 OA
ATOM     33  H   LIG    1      -35.050  71.909  25.563  0.00  0.00    +0.209 HD
ENDBRANCH  31  32
ENDBRANCH  29  31
ENDBRANCH  27  29
ENDBRANCH  23  27
ENDBRANCH   1  25
TORSDOF 7
ENDMDL
MODEL 5
REMARK VINA RESULT:      -5.4     18.446     21.399
REMARK  Name = pdb/CHEMBL3676037.pdb
REMARK                            x       y       z     vdW  Elec       q    Type
REMARK                         _______ _______ _______ _____ _____    ______ ____
ROOT
ATOM      1  C   LIG    1      -40.387  69.381  21.469  0.00  0.00    +0.100 A 
ATOM      2  C   LIG    1      -39.684  69.991  22.502  0.00  0.00    +0.170 A 
ATOM      3  N   LIG    1      -39.962  71.024  23.369  0.00  0.00    -0.212 NA
ATOM      4  C   LIG    1      -39.035  71.373  24.244  0.00  0.00    +0.126 A 
ATOM      5  C   LIG    1      -37.709  70.649  24.330  0.00  0.00    +0.063 A 
ATOM      6  C   LIG    1      -37.492  69.651  23.472  0.00  0.00    +0.118 A 
ATOM      7  N   LIG    1      -38.461  69.304  22.552  0.00  0.00    -0.221 N 
ATOM      8  N   LIG    1      -38.374  68.316  21.636  0.00  0.00    -0.173 NA
ATOM      9  C   LIG    1      -39.535  68.369  20.997  0.00  0.00    +0.150 A 
ENDROOT
BRANCH   4  10
ATOM     10  N   LIG    1      -39.246  72.422  25.132  0.00  0.00    -0.308 N 
ATOM     11  C   LIG    1      -38.378  73.609  25.205  0.00  0.00    +0.108 C 
ATOM     12  C   LIG    1      -38.135  73.732  26.719  0.00  0.00    +0.029 C 
ATOM     13  C   LIG    1      -39.475  73.352  27.322  0.00  0.00    +0.021 C 
ATOM     14  C   LIG    1      -39.975  72.250  26.397  0.00  0.00    +0.107 C 
BRANCH  11  15
ATOM     15  C   LIG    1      -39.045  74.838  24.600  0.00  0.00    +0.011 A 
ATOM     16  C   LIG    1      -38.356  76.060  24.591  0.00  0.00    +0.129 A 
ATOM     17  F   LIG    1      -37.125  76.132  25.115  0.00  0.00    -0.205 F 
ATOM     18  C   LIG    1      -38.914  77.219  24.049  0.00  0.00    +0.041 A 
ATOM     19  C   LIG    1      -40.185  77.176  23.487  0.00  0.00    +0.041 A 
ATOM     20  C   LIG    1      -40.878  75.972  23.470  0.00  0.00    +0.124 A 
ATOM     21  F   LIG    1      -42.099  75.923  22.924  0.00  0.00    -0.205 F 
ATOM     22  C   LIG    1      -40.323  74.813  24.013  0.00  0.00    +0.046 A 
ENDBRANCH  11  15
ENDBRANCH   4  10
BRANCH   1  25
ATOM     23  N   LIG    1      -41.998  70.931  20.571  0.00  0.00    -0.311 N 
ATOM     24  H   LIG    1      -41.212  71.583  20.570  0.00  0.00    +0.149 HD
ATOM     25  C   LIG    1      -41.712  69.641  20.921  0.00  0.00    +0.249 C 
ATOM     26  O   LIG    1      -42.530  68.732  20.789  0.00  0.00    -0.270 OA
BRANCH  23  27
ATOM     27  C   LIG    1      -43.262  71.287  19.941  0.00  0.00    +0.113 C 
BRANCH  27  29
ATOM     28  C   LIG    1      -43.370  72.955  21.826  0.00  0.00    +0.015 C 
ATOM     29  C   LIG    1      -44.207  72.109  20.842  0.00  0.00    +0.004 C 
ATOM     30  C   LIG    1      -45.106  71.169  21.665  0.00  0.00    +0.015 C 
BRANCH  29  31
ATOM     31  C   LIG    1      -45.060  73.048  19.965  0.00  0.00    +0.163 C 
BRANCH  31  32
ATOM     32  O   LIG    1      -44.250  74.040  19.345  0.00  0.00    -0.394 OA
ATOM     33  H   LIG    1      -43.605  73.569  18.792  0.00  0.00    +0.209 HD
ENDBRANCH  31  32
ENDBRANCH  29  31
ENDBRANCH  27  29
ENDBRANCH  23  27
ENDBRANCH   1  25
TORSDOF 7
ENDMDL
MODEL 6
REMARK VINA RESULT:      -5.4     19.431     22.478
REMARK  Name = pdb/CHEMBL3676037.pdb
REMARK                            x       y       z     vdW  Elec       q    Type
REMARK                         _______ _______ _______ _____ _____    ______ ____
ROOT
ATOM      1  C   LIG    1      -25.432  82.351  11.723  0.00  0.00    +0.100 A 
ATOM      2  C   LIG    1      -25.121  83.540  11.074  0.00  0.00    +0.170 A 
ATOM      3  N   LIG    1      -24.342  84.629  11.396  0.00  0.00    -0.212 NA
ATOM      4  C   LIG    1      -24.277  85.629  10.533  0.00  0.00    +0.126 A 
ATOM      5  C   LIG    1      -25.006  85.585   9.208  0.00  0.00    +0.063 A 
ATOM      6  C   LIG    1      -25.741  84.505   8.942  0.00  0.00    +0.118 A 
ATOM      7  N   LIG    1      -25.814  83.473   9.856  0.00  0.00    -0.221 N 
ATOM      8  N   LIG    1      -26.512  82.326   9.711  0.00  0.00    -0.173 NA
ATOM      9  C   LIG    1      -26.272  81.661  10.833  0.00  0.00    +0.150 A 
ENDROOT
BRANCH   4  10
ATOM     10  N   LIG    1      -23.525  86.766  10.808  0.00  0.00    -0.308 N 
ATOM     11  C   LIG    1      -23.370  87.327  12.160  0.00  0.00    +0.108 C 
ATOM     12  C   LIG    1      -23.648  88.820  11.919  0.00  0.00    +0.029 C 
ATOM     13  C   LIG    1      -22.998  89.085  10.572  0.00  0.00    +0.021 C 
ATOM     14  C   LIG    1      -23.261  87.800   9.798  0.00  0.00    +0.107 C 
BRANCH  11  15
ATOM     15  C   LIG    1      -21.984  87.057  12.731  0.00  0.00    +0.011 A 
ATOM     16  C   LIG    1      -21.689  87.461  14.042  0.00  0.00    +0.129 A 
ATOM     17  F   LIG    1      -22.627  88.079  14.773  0.00  0.00    -0.205 F 
ATOM     18  C   LIG    1      -20.438  87.239  14.621  0.00  0.00    +0.041 A 
ATOM     19  C   LIG    1      -19.446  86.590  13.893  0.00  0.00    +0.041 A 
ATOM     20  C   LIG    1      -19.722  86.167  12.600  0.00  0.00    +0.124 A 
ATOM     21  F   LIG    1      -18.774  85.535  11.897  0.00  0.00    -0.205 F 
ATOM     22  C   LIG    1      -20.971  86.389  12.018  0.00  0.00    +0.046 A 
ENDBRANCH  11  15
ENDBRANCH   4  10
BRANCH   1  25
ATOM     23  N   LIG    1      -24.021  82.483  13.670  0.00  0.00    -0.311 N 
ATOM     24  H   LIG    1      -23.736  83.378  13.271  0.00  0.00    +0.149 HD
ATOM     25  C   LIG    1      -25.030  81.828  13.022  0.00  0.00    +0.249 C 
ATOM     26  O   LIG    1      -25.580  80.838  13.502  0.00  0.00    -0.270 OA
BRANCH  23  27
ATOM     27  C   LIG    1      -23.596  82.094  15.008  0.00  0.00    +0.113 C 
BRANCH  27  29
ATOM     28  C   LIG    1      -21.576  83.417  14.289  0.00  0.00    +0.015 C 
ATOM     29  C   LIG    1      -22.320  82.810  15.498  0.00  0.00    +0.004 C 
ATOM     30  C   LIG    1      -21.378  81.805  16.184  0.00  0.00    +0.015 C 
BRANCH  29  31
ATOM     31  C   LIG    1      -22.712  83.940  16.472  0.00  0.00    +0.163 C 
BRANCH  31  32
ATOM     32  O   LIG    1      -22.474  83.556  17.820  0.00  0.00    -0.394 OA
ATOM     33  H   LIG    1      -21.534  83.314  17.881  0.00  0.00    +0.209 HD
ENDBRANCH  31  32
ENDBRANCH  29  31
ENDBRANCH  27  29
ENDBRANCH  23  27
ENDBRANCH   1  25
TORSDOF 7
ENDMDL
MODEL 7
REMARK VINA RESULT:      -5.3     18.589     21.408
REMARK  Name = pdb/CHEMBL3676037.pdb
REMARK                            x       y       z     vdW  Elec       q    Type
REMARK                         _______ _______ _______ _____ _____    ______ ____
ROOT
ATOM      1  C   LIG    1      -30.243  66.190  18.200  0.00  0.00    +0.100 A 
ATOM      2  C   LIG    1      -31.587  65.858  18.324  0.00  0.00    +0.170 A 
ATOM      3  N   LIG    1      -32.723  66.570  18.638  0.00  0.00    -0.212 NA
ATOM      4  C   LIG    1      -33.874  65.922  18.688  0.00  0.00    +0.126 A 
ATOM      5  C   LIG    1      -33.969  64.443  18.382  0.00  0.00    +0.063 A 
ATOM      6  C   LIG    1      -32.840  63.802  18.077  0.00  0.00    +0.118 A 
ATOM      7  N   LIG    1      -31.641  64.485  18.041  0.00  0.00    -0.221 N 
ATOM      8  N   LIG    1      -30.433  63.961  17.742  0.00  0.00    -0.173 NA
ATOM      9  C   LIG    1      -29.605  64.993  17.836  0.00  0.00    +0.150 A 
ENDROOT
BRANCH   4  10
ATOM     10  N   LIG    1      -35.053  66.580  19.021  0.00  0.00    -0.308 N 
ATOM     11  C   LIG    1      -36.025  66.058  19.995  0.00  0.00    +0.108 C 
ATOM     12  C   LIG    1      -37.354  66.221  19.237  0.00  0.00    +0.029 C 
ATOM     13  C   LIG    1      -37.180  67.540  18.505  0.00  0.00    +0.021 C 
ATOM     14  C   LIG    1      -35.709  67.531  18.112  0.00  0.00    +0.107 C 
BRANCH  11  15
ATOM     15  C   LIG    1      -35.982  66.828  21.308  0.00  0.00    +0.011 A 
ATOM     16  C   LIG    1      -34.957  66.563  22.229  0.00  0.00    +0.129 A 
ATOM     17  F   LIG    1      -34.031  65.637  21.943  0.00  0.00    -0.205 F 
ATOM     18  C   LIG    1      -34.863  67.238  23.447  0.00  0.00    +0.041 A 
ATOM     19  C   LIG    1      -35.801  68.214  23.769  0.00  0.00    +0.041 A 
ATOM     20  C   LIG    1      -36.815  68.503  22.865  0.00  0.00    +0.124 A 
ATOM     21  F   LIG    1      -37.716  69.446  23.167  0.00  0.00    -0.205 F 
ATOM     22  C   LIG    1      -36.911  67.829  21.648  0.00  0.00    +0.046 A 
ENDBRANCH  11  15
ENDBRANCH   4  10
BRANCH   1  25
ATOM     23  N   LIG    1      -30.307  68.557  18.646  0.00  0.00    -0.311 N 
ATOM     24  H   LIG    1      -31.289  68.380  18.865  0.00  0.00    +0.149 HD
ATOM     25  C   LIG    1      -29.543  67.456  18.373  0.00  0.00    +0.249 C 
ATOM     26  O   LIG    1      -28.319  67.521  18.271  0.00  0.00    -0.270 OA
BRANCH  23  27
ATOM     27  C   LIG    1      -29.705  69.855  18.916  0.00  0.00    +0.113 C 
BRANCH  27  29
ATOM     28  C   LIG    1      -29.599  70.370  16.452  0.00  0.00    +0.015 C 
ATOM     29  C   LIG    1      -29.995  70.921  17.839  0.00  0.00    +0.004 C 
ATOM     30  C   LIG    1      -29.159  72.186  18.107  0.00  0.00    +0.015 C 
BRANCH  29  31
ATOM     31  C   LIG    1      -31.501  71.253  17.842  0.00  0.00    +0.163 C 
BRANCH  31  32
ATOM     32  O   LIG    1      -32.235  70.291  17.094  0.00  0.00    -0.394 OA
ATOM     33  H   LIG    1      -32.573  69.640  17.732  0.00  0.00    +0.209 HD
ENDBRANCH  31  32
ENDBRANCH  29  31
ENDBRANCH  27  29
ENDBRANCH  23  27
ENDBRANCH   1  25
TORSDOF 7
ENDMDL
MODEL 8
REMARK VINA RESULT:      -5.2      3.279      7.462
REMARK  Name = pdb/CHEMBL3676037.pdb
REMARK                            x       y       z     vdW  Elec       q    Type
REMARK                         _______ _______ _______ _____ _____    ______ ____
ROOT
ATOM      1  C   LIG    1      -22.500  80.191  36.384  0.00  0.00    +0.100 A 
ATOM      2  C   LIG    1      -23.502  79.446  35.773  0.00  0.00    +0.170 A 
ATOM      3  N   LIG    1      -23.532  78.578  34.705  0.00  0.00    -0.212 NA
ATOM      4  C   LIG    1      -24.692  78.042  34.367  0.00  0.00    +0.126 A 
ATOM      5  C   LIG    1      -25.960  78.334  35.140  0.00  0.00    +0.063 A 
ATOM      6  C   LIG    1      -25.874  79.176  36.170  0.00  0.00    +0.118 A 
ATOM      7  N   LIG    1      -24.661  79.743  36.506  0.00  0.00    -0.221 N 
ATOM      8  N   LIG    1      -24.435  80.601  37.524  0.00  0.00    -0.173 NA
ATOM      9  C   LIG    1      -23.137  80.858  37.443  0.00  0.00    +0.150 A 
ENDROOT
BRANCH   4  10
ATOM     10  N   LIG    1      -24.793  77.174  33.284  0.00  0.00    -0.308 N 
ATOM     11  C   LIG    1      -24.469  77.563  31.902  0.00  0.00    +0.108 C 
ATOM     12  C   LIG    1      -25.687  77.030  31.128  0.00  0.00    +0.029 C 
ATOM     13  C   LIG    1      -25.997  75.716  31.822  0.00  0.00    +0.021 C 
ATOM     14  C   LIG    1      -25.695  76.013  33.285  0.00  0.00    +0.107 C 
BRANCH  11  15
ATOM     15  C   LIG    1      -23.149  76.960  31.438  0.00  0.00    +0.011 A 
ATOM     16  C   LIG    1      -22.599  77.369  30.213  0.00  0.00    +0.129 A 
ATOM     17  F   LIG    1      -23.240  78.280  29.469  0.00  0.00    -0.205 F 
ATOM     18  C   LIG    1      -21.392  76.854  29.736  0.00  0.00    +0.041 A 
ATOM     19  C   LIG    1      -20.696  75.915  30.490  0.00  0.00    +0.041 A 
ATOM     20  C   LIG    1      -21.215  75.509  31.713  0.00  0.00    +0.124 A 
ATOM     21  F   LIG    1      -20.545  74.611  32.446  0.00  0.00    -0.205 F 
ATOM     22  C   LIG    1      -22.422  76.020  32.191  0.00  0.00    +0.046 A 
ENDBRANCH  11  15
ENDBRANCH   4  10
BRANCH   1  25
ATOM     23  N   LIG    1      -20.368  79.162  35.937  0.00  0.00    -0.311 N 
ATOM     24  H   LIG    1      -20.915  78.301  35.884  0.00  0.00    +0.149 HD
ATOM     25  C   LIG    1      -21.079  80.319  36.088  0.00  0.00    +0.249 C 
ATOM     26  O   LIG    1      -20.553  81.427  35.985  0.00  0.00    -0.270 OA
BRANCH  23  27
ATOM     27  C   LIG    1      -18.961  79.175  35.561  0.00  0.00    +0.113 C 
BRANCH  27  29
ATOM     28  C   LIG    1      -19.142  76.969  34.358  0.00  0.00    +0.015 C 
ATOM     29  C   LIG    1      -18.652  78.429  34.246  0.00  0.00    +0.004 C 
ATOM     30  C   LIG    1      -17.134  78.406  33.994  0.00  0.00    +0.015 C 
BRANCH  29  31
ATOM     31  C   LIG    1      -19.387  79.122  33.081  0.00  0.00    +0.163 C 
BRANCH  31  32
ATOM     32  O   LIG    1      -20.771  78.795  33.086  0.00  0.00    -0.394 OA
ATOM     33  H   LIG    1      -20.927  78.223  32.316  0.00  0.00    +0.209 HD
ENDBRANCH  31  32
ENDBRANCH  29  31
ENDBRANCH  27  29
ENDBRANCH  23  27
ENDBRANCH   1  25
TORSDOF 7
ENDMDL
MODEL 9
REMARK VINA RESULT:      -5.2     12.836     17.400
REMARK  Name = pdb/CHEMBL3676037.pdb
REMARK                            x       y       z     vdW  Elec       q    Type
REMARK                         _______ _______ _______ _____ _____    ______ ____
ROOT
ATOM      1  C   LIG    1      -37.947  76.178  25.619  0.00  0.00    +0.100 A 
ATOM      2  C   LIG    1      -38.314  74.871  25.322  0.00  0.00    +0.170 A 
ATOM      3  N   LIG    1      -37.840  73.634  25.698  0.00  0.00    -0.212 NA
ATOM      4  C   LIG    1      -38.427  72.560  25.199  0.00  0.00    +0.126 A 
ATOM      5  C   LIG    1      -39.611  72.662  24.263  0.00  0.00    +0.063 A 
ATOM      6  C   LIG    1      -40.036  73.883  23.935  0.00  0.00    +0.118 A 
ATOM      7  N   LIG    1      -39.406  74.999  24.450  0.00  0.00    -0.221 N 
ATOM      8  N   LIG    1      -39.738  76.285  24.207  0.00  0.00    -0.173 NA
ATOM      9  C   LIG    1      -38.859  76.981  24.916  0.00  0.00    +0.150 A 
ENDROOT
BRANCH   4  10
ATOM     10  N   LIG    1      -37.980  71.283  25.523  0.00  0.00    -0.308 N 
ATOM     11  C   LIG    1      -36.600  70.826  25.299  0.00  0.00    +0.108 C 
ATOM     12  C   LIG    1      -36.822  69.462  24.623  0.00  0.00    +0.029 C 
ATOM     13  C   LIG    1      -38.026  68.899  25.356  0.00  0.00    +0.021 C 
ATOM     14  C   LIG    1      -38.887  70.129  25.611  0.00  0.00    +0.107 C 
BRANCH  11  15
ATOM     15  C   LIG    1      -35.814  70.732  26.600  0.00  0.00    +0.011 A 
ATOM     16  C   LIG    1      -34.513  70.205  26.583  0.00  0.00    +0.129 A 
ATOM     17  F   LIG    1      -33.981  69.789  25.425  0.00  0.00    -0.205 F 
ATOM     18  C   LIG    1      -33.744  70.095  27.742  0.00  0.00    +0.041 A 
ATOM     19  C   LIG    1      -34.262  70.528  28.958  0.00  0.00    +0.041 A 
ATOM     20  C   LIG    1      -35.541  71.069  28.995  0.00  0.00    +0.124 A 
ATOM     21  F   LIG    1      -36.042  71.493  30.162  0.00  0.00    -0.205 F 
ATOM     22  C   LIG    1      -36.313  71.177  27.838  0.00  0.00    +0.046 A 
ENDBRANCH  11  15
ENDBRANCH   4  10
BRANCH   1  25
ATOM     23  N   LIG    1      -35.825  75.888  26.723  0.00  0.00    -0.311 N 
ATOM     24  H   LIG    1      -35.782  75.024  26.181  0.00  0.00    +0.149 HD
ATOM     25  C   LIG    1      -36.885  76.711  26.462  0.00  0.00    +0.249 C 
ATOM     26  O   LIG    1      -36.952  77.853  26.916  0.00  0.00    -0.270 OA
BRANCH  23  27
ATOM     27  C   LIG    1      -34.673  76.348  27.486  0.00  0.00    +0.113 C 
BRANCH  27  29
ATOM     28  C   LIG    1      -33.583  74.150  28.061  0.00  0.00    +0.015 C 
ATOM     29  C   LIG    1      -34.265  75.409  28.641  0.00  0.00    +0.004 C 
ATOM     30  C   LIG    1      -35.512  74.959  29.424  0.00  0.00    +0.015 C 
BRANCH  29  31
ATOM     31  C   LIG    1      -33.274  76.140  29.568  0.00  0.00    +0.163 C 
BRANCH  31  32
ATOM     32  O   LIG    1      -33.021  77.460  29.102  0.00  0.00    -0.394 OA
ATOM     33  H   LIG    1      -32.412  77.380  28.349  0.00  0.00    +0.209 HD
ENDBRANCH  31  32
ENDBRANCH  29  31
ENDBRANCH  27  29
ENDBRANCH  23  27
ENDBRANCH   1  25
TORSDOF 7
ENDMDL
