MODEL 1
REMARK VINA RESULT:      -6.9      0.000      0.000
REMARK  Name = pdb/CHEMBL3666248.pdb
REMARK                            x       y       z     vdW  Elec       q    Type
REMARK                         _______ _______ _______ _____ _____    ______ ____
ROOT
ATOM      1  C   LIG    1      -20.601  81.313  15.733  0.00  0.00    +0.042 A 
ATOM      2  C   LIG    1      -20.018  80.166  16.327  0.00  0.00    +0.038 A 
ATOM      3  C   LIG    1      -18.693  79.810  16.056  0.00  0.00    +0.052 A 
ATOM      4  C   LIG    1      -18.000  80.635  15.164  0.00  0.00    +0.134 A 
ATOM      5  N   LIG    1      -18.544  81.694  14.513  0.00  0.00    -0.261 NA
ATOM      6  C   LIG    1      -19.832  82.003  14.791  0.00  0.00    +0.122 A 
ENDROOT
BRANCH   3   7
ATOM      7  N   LIG    1      -18.107  78.652  16.645  0.00  0.00    -0.284 N 
ATOM      8  H   LIG    1      -17.683  78.758  17.566  0.00  0.00    +0.155 HD
ATOM      9  C   LIG    1      -17.989  77.414  16.015  0.00  0.00    +0.222 C 
ATOM     10  O   LIG    1      -18.309  77.187  14.850  0.00  0.00    -0.275 OA
BRANCH   9  11
ATOM     11  C   LIG    1      -17.363  76.307  16.851  0.00  0.00    +0.131 C 
BRANCH  11  12
ATOM     12  C   LIG    1      -18.319  75.268  17.394  0.00  0.00    -0.039 A 
ATOM     13  C   LIG    1      -19.451  74.838  16.688  0.00  0.00    +0.004 A 
ATOM     14  C   LIG    1      -20.251  73.802  17.186  0.00  0.00    +0.012 A 
ATOM     15  C   LIG    1      -19.924  73.159  18.388  0.00  0.00    +0.055 A 
ATOM     16  C   LIG    1      -18.785  73.579  19.086  0.00  0.00    +0.012 A 
ATOM     17  C   LIG    1      -17.989  74.615  18.591  0.00  0.00    +0.004 A 
BRANCH  15  18
ATOM     18  C   LIG    1      -20.775  72.021  18.895  0.00  0.00    +0.417 C 
ATOM     19  F   LIG    1      -21.931  72.450  19.473  0.00  0.00    -0.166 F 
ATOM     20  F   LIG    1      -20.139  71.274  19.839  0.00  0.00    -0.166 F 
ATOM     21  F   LIG    1      -21.150  71.146  17.919  0.00  0.00    -0.166 F 
ENDBRANCH  15  18
ENDBRANCH  11  12
ENDBRANCH   9  11
ENDBRANCH   3   7
BRANCH   1  22
ATOM     22  C   LIG    1      -21.970  81.781  16.033  0.00  0.00    +0.197 C 
ATOM     23  O   LIG    1      -22.150  82.428  17.065  0.00  0.00    -0.287 OA
BRANCH  22  31
ATOM     24  N   LIG    1      -24.600  81.709  13.431  0.00  0.00    -0.329 N 
ATOM     25  C   LIG    1      -24.922  80.557  14.106  0.00  0.00    +0.147 A 
ATOM     26  N   LIG    1      -25.980  79.769  13.839  0.00  0.00    -0.197 NA
ATOM     27  C   LIG    1      -26.044  78.691  14.626  0.00  0.00    +0.214 A 
ATOM     28  N   LIG    1      -25.183  78.375  15.604  0.00  0.00    -0.222 NA
ATOM     29  C   LIG    1      -24.137  79.205  15.857  0.00  0.00    +0.126 A 
ATOM     30  C   LIG    1      -23.980  80.365  15.097  0.00  0.00    +0.048 A 
ATOM     31  C   LIG    1      -23.057  81.499  15.081  0.00  0.00    +0.051 A 
ATOM     32  C   LIG    1      -23.477  82.283  14.007  0.00  0.00    +0.100 A 
BRANCH  24  34
ATOM     33  C   LIG    1      -24.948  83.694  11.996  0.00  0.00    +0.030 C 
ATOM     34  C   LIG    1      -25.359  82.252  12.302  0.00  0.00    +0.083 C 
ATOM     35  C   LIG    1      -25.255  81.380  11.050  0.00  0.00    +0.030 C 
ENDBRANCH  24  34
BRANCH  27  36
ATOM     36  N   LIG    1      -27.128  77.847  14.453  0.00  0.00    -0.327 N 
ATOM     37  H   LIG    1      -27.565  78.028  13.561  0.00  0.00    +0.145 HD
ATOM     38  H   LIG    1      -27.721  77.888  15.270  0.00  0.00    +0.145 HD
ENDBRANCH  27  36
ENDBRANCH  22  31
ENDBRANCH   1  22
TORSDOF 8
ENDMDL
MODEL 2
REMARK VINA RESULT:      -6.9     17.446     20.463
REMARK  Name = pdb/CHEMBL3666248.pdb
REMARK                            x       y       z     vdW  Elec       q    Type
REMARK                         _______ _______ _______ _____ _____    ______ ____
ROOT
ATOM      1  C   LIG    1      -33.064  72.967  29.063  0.00  0.00    +0.042 A 
ATOM      2  C   LIG    1      -33.936  72.987  27.946  0.00  0.00    +0.038 A 
ATOM      3  C   LIG    1      -34.619  71.834  27.545  0.00  0.00    +0.052 A 
ATOM      4  C   LIG    1      -34.375  70.678  28.293  0.00  0.00    +0.134 A 
ATOM      5  N   LIG    1      -33.488  70.596  29.317  0.00  0.00    -0.261 NA
ATOM      6  C   LIG    1      -32.837  71.729  29.672  0.00  0.00    +0.122 A 
ENDROOT
BRANCH   3   7
ATOM      7  N   LIG    1      -35.489  71.850  26.416  0.00  0.00    -0.284 N 
ATOM      8  H   LIG    1      -35.061  71.951  25.496  0.00  0.00    +0.155 HD
ATOM      9  C   LIG    1      -36.881  71.834  26.486  0.00  0.00    +0.222 C 
ATOM     10  O   LIG    1      -37.531  71.875  27.529  0.00  0.00    -0.275 OA
BRANCH   9  11
ATOM     11  C   LIG    1      -37.607  71.817  25.149  0.00  0.00    +0.131 C 
BRANCH  11  12
ATOM     12  C   LIG    1      -38.468  73.024  24.849  0.00  0.00    -0.039 A 
ATOM     13  C   LIG    1      -38.023  74.339  25.045  0.00  0.00    +0.004 A 
ATOM     14  C   LIG    1      -38.817  75.426  24.659  0.00  0.00    +0.012 A 
ATOM     15  C   LIG    1      -40.063  75.222  24.049  0.00  0.00    +0.055 A 
ATOM     16  C   LIG    1      -40.501  73.908  23.840  0.00  0.00    +0.012 A 
ATOM     17  C   LIG    1      -39.710  72.824  24.228  0.00  0.00    +0.004 A 
BRANCH  15  18
ATOM     18  C   LIG    1      -40.893  76.401  23.605  0.00  0.00    +0.417 C 
ATOM     19  F   LIG    1      -40.143  77.376  23.020  0.00  0.00    -0.166 F 
ATOM     20  F   LIG    1      -41.544  77.000  24.639  0.00  0.00    -0.166 F 
ATOM     21  F   LIG    1      -41.855  76.077  22.696  0.00  0.00    -0.166 F 
ENDBRANCH  15  18
ENDBRANCH  11  12
ENDBRANCH   9  11
ENDBRANCH   3   7
BRANCH   1  22
ATOM     22  C   LIG    1      -32.372  74.165  29.579  0.00  0.00    +0.197 C 
ATOM     23  O   LIG    1      -31.160  74.092  29.784  0.00  0.00    -0.287 OA
BRANCH  22  31
ATOM     24  N   LIG    1      -34.643  76.920  30.554  0.00  0.00    -0.329 N 
ATOM     25  C   LIG    1      -34.058  77.491  29.451  0.00  0.00    +0.147 A 
ATOM     26  N   LIG    1      -34.385  78.690  28.932  0.00  0.00    -0.197 NA
ATOM     27  C   LIG    1      -33.639  79.024  27.875  0.00  0.00    +0.214 A 
ATOM     28  N   LIG    1      -32.661  78.285  27.331  0.00  0.00    -0.222 NA
ATOM     29  C   LIG    1      -32.374  77.072  27.871  0.00  0.00    +0.126 A 
ATOM     30  C   LIG    1      -33.098  76.621  28.976  0.00  0.00    +0.048 A 
ATOM     31  C   LIG    1      -33.132  75.408  29.792  0.00  0.00    +0.051 A 
ATOM     32  C   LIG    1      -34.090  75.666  30.771  0.00  0.00    +0.100 A 
BRANCH  24  34
ATOM     33  C   LIG    1      -37.047  76.830  31.128  0.00  0.00    +0.030 C 
ATOM     34  C   LIG    1      -35.708  77.537  31.347  0.00  0.00    +0.083 C 
ATOM     35  C   LIG    1      -35.368  77.608  32.836  0.00  0.00    +0.030 C 
ENDBRANCH  24  34
BRANCH  27  36
ATOM     36  N   LIG    1      -33.937  80.222  27.246  0.00  0.00    -0.327 N 
ATOM     37  H   LIG    1      -34.011  80.077  26.249  0.00  0.00    +0.145 HD
ATOM     38  H   LIG    1      -33.291  80.935  27.557  0.00  0.00    +0.145 HD
ENDBRANCH  27  36
ENDBRANCH  22  31
ENDBRANCH   1  22
TORSDOF 8
ENDMDL
MODEL 3
REMARK VINA RESULT:      -6.8     16.294     18.761
REMARK  Name = pdb/CHEMBL3666248.pdb
REMARK                            x       y       z     vdW  Elec       q    Type
REMARK                         _______ _______ _______ _____ _____    ______ ____
ROOT
ATOM      1  C   LIG    1      -20.565  76.938  30.667  0.00  0.00    +0.042 A 
ATOM      2  C   LIG    1      -20.628  77.839  31.759  0.00  0.00    +0.038 A 
ATOM      3  C   LIG    1      -19.463  78.335  32.352  0.00  0.00    +0.052 A 
ATOM      4  C   LIG    1      -18.254  77.878  31.818  0.00  0.00    +0.134 A 
ATOM      5  N   LIG    1      -18.149  76.956  30.829  0.00  0.00    -0.261 NA
ATOM      6  C   LIG    1      -19.297  76.489  30.285  0.00  0.00    +0.122 A 
ENDROOT
BRANCH   3   7
ATOM      7  N   LIG    1      -19.525  79.234  33.457  0.00  0.00    -0.284 N 
ATOM      8  H   LIG    1      -19.519  80.232  33.250  0.00  0.00    +0.155 HD
ATOM      9  C   LIG    1      -19.496  78.849  34.796  0.00  0.00    +0.222 C 
ATOM     10  O   LIG    1      -19.342  77.695  35.192  0.00  0.00    -0.275 OA
BRANCH   9  11
ATOM     11  C   LIG    1      -19.613  79.979  35.808  0.00  0.00    +0.131 C 
BRANCH  11  12
ATOM     12  C   LIG    1      -21.003  80.539  36.017  0.00  0.00    -0.039 A 
ATOM     13  C   LIG    1      -22.148  79.730  36.046  0.00  0.00    +0.004 A 
ATOM     14  C   LIG    1      -23.402  80.278  36.343  0.00  0.00    +0.012 A 
ATOM     15  C   LIG    1      -23.534  81.642  36.639  0.00  0.00    +0.055 A 
ATOM     16  C   LIG    1      -22.389  82.448  36.623  0.00  0.00    +0.012 A 
ATOM     17  C   LIG    1      -21.139  81.901  36.324  0.00  0.00    +0.004 A 
BRANCH  15  18
ATOM     18  C   LIG    1      -24.886  82.214  36.991  0.00  0.00    +0.417 C 
ATOM     19  F   LIG    1      -25.907  81.368  36.683  0.00  0.00    -0.166 F 
ATOM     20  F   LIG    1      -25.149  83.375  36.333  0.00  0.00    -0.166 F 
ATOM     21  F   LIG    1      -25.026  82.497  38.317  0.00  0.00    -0.166 F 
ENDBRANCH  15  18
ENDBRANCH  11  12
ENDBRANCH   9  11
ENDBRANCH   3   7
BRANCH   1  22
ATOM     22  C   LIG    1      -21.756  76.436  29.953  0.00  0.00    +0.197 C 
ATOM     23  O   LIG    1      -21.763  76.491  28.723  0.00  0.00    -0.287 OA
BRANCH  22  31
ATOM     24  N   LIG    1      -24.180  74.405  31.877  0.00  0.00    -0.329 N 
ATOM     25  C   LIG    1      -24.973  75.489  31.590  0.00  0.00    +0.147 A 
ATOM     26  N   LIG    1      -26.277  75.603  31.906  0.00  0.00    -0.197 NA
ATOM     27  C   LIG    1      -26.805  76.773  31.539  0.00  0.00    +0.214 A 
ATOM     28  N   LIG    1      -26.163  77.768  30.910  0.00  0.00    -0.222 NA
ATOM     29  C   LIG    1      -24.852  77.609  30.589  0.00  0.00    +0.126 A 
ATOM     30  C   LIG    1      -24.203  76.418  30.921  0.00  0.00    +0.048 A 
ATOM     31  C   LIG    1      -22.869  75.853  30.721  0.00  0.00    +0.051 A 
ATOM     32  C   LIG    1      -22.909  74.615  31.362  0.00  0.00    +0.100 A 
BRANCH  24  34
ATOM     33  C   LIG    1      -24.118  71.932  31.912  0.00  0.00    +0.030 C 
ATOM     34  C   LIG    1      -24.631  73.207  32.586  0.00  0.00    +0.083 C 
ATOM     35  C   LIG    1      -24.257  73.225  34.070  0.00  0.00    +0.030 C 
ENDBRANCH  24  34
BRANCH  27  36
ATOM     36  N   LIG    1      -28.156  76.961  31.783  0.00  0.00    -0.327 N 
ATOM     37  H   LIG    1      -28.513  76.196  32.338  0.00  0.00    +0.145 HD
ATOM     38  H   LIG    1      -28.632  77.156  30.914  0.00  0.00    +0.145 HD
ENDBRANCH  27  36
ENDBRANCH  22  31
ENDBRANCH   1  22
TORSDOF 8
ENDMDL
MODEL 4
REMARK VINA RESULT:      -6.8      3.163      4.621
REMARK  Name = pdb/CHEMBL3666248.pdb
REMARK                            x       y       z     vdW  Elec       q    Type
REMARK                         _______ _______ _______ _____ _____    ______ ____
ROOT
ATOM      1  C   LIG    1      -20.978  82.125  14.860  0.00  0.00    +0.042 A 
ATOM      2  C   LIG    1      -20.929  80.752  14.512  0.00  0.00    +0.038 A 
ATOM      3  C   LIG    1      -21.650  79.799  15.239  0.00  0.00    +0.052 A 
ATOM      4  C   LIG    1      -22.395  80.279  16.321  0.00  0.00    +0.134 A 
ATOM      5  N   LIG    1      -22.405  81.571  16.736  0.00  0.00    -0.261 NA
ATOM      6  C   LIG    1      -21.687  82.464  16.016  0.00  0.00    +0.122 A 
ENDROOT
BRANCH   3   7
ATOM      7  N   LIG    1      -21.595  78.416  14.897  0.00  0.00    -0.284 N 
ATOM      8  H   LIG    1      -22.402  78.019  14.418  0.00  0.00    +0.155 HD
ATOM      9  C   LIG    1      -20.562  77.551  15.252  0.00  0.00    +0.222 C 
ATOM     10  O   LIG    1      -19.606  77.855  15.965  0.00  0.00    -0.275 OA
BRANCH   9  11
ATOM     11  C   LIG    1      -20.694  76.123  14.745  0.00  0.00    +0.131 C 
BRANCH  11  12
ATOM     12  C   LIG    1      -21.140  75.097  15.764  0.00  0.00    -0.039 A 
ATOM     13  C   LIG    1      -20.235  74.333  16.514  0.00  0.00    +0.004 A 
ATOM     14  C   LIG    1      -20.690  73.470  17.518  0.00  0.00    +0.012 A 
ATOM     15  C   LIG    1      -22.059  73.367  17.807  0.00  0.00    +0.055 A 
ATOM     16  C   LIG    1      -22.962  74.141  17.068  0.00  0.00    +0.012 A 
ATOM     17  C   LIG    1      -22.507  75.001  16.065  0.00  0.00    +0.004 A 
BRANCH  15  18
ATOM     18  C   LIG    1      -22.534  72.459  18.915  0.00  0.00    +0.417 C 
ATOM     19  F   LIG    1      -23.475  71.570  18.493  0.00  0.00    -0.166 F 
ATOM     20  F   LIG    1      -23.100  73.144  19.945  0.00  0.00    -0.166 F 
ATOM     21  F   LIG    1      -21.538  71.711  19.468  0.00  0.00    -0.166 F 
ENDBRANCH  15  18
ENDBRANCH  11  12
ENDBRANCH   9  11
ENDBRANCH   3   7
BRANCH   1  22
ATOM     22  C   LIG    1      -20.297  83.186  14.090  0.00  0.00    +0.197 C 
ATOM     23  O   LIG    1      -19.109  83.030  13.810  0.00  0.00    -0.287 OA
BRANCH  22  31
ATOM     24  N   LIG    1      -21.803  86.495  13.399  0.00  0.00    -0.329 N 
ATOM     25  C   LIG    1      -22.757  85.691  12.824  0.00  0.00    +0.147 A 
ATOM     26  N   LIG    1      -23.910  86.121  12.278  0.00  0.00    -0.197 NA
ATOM     27  C   LIG    1      -24.645  85.133  11.760  0.00  0.00    +0.214 A 
ATOM     28  N   LIG    1      -24.330  83.830  11.760  0.00  0.00    -0.222 NA
ATOM     29  C   LIG    1      -23.166  83.432  12.337  0.00  0.00    +0.126 A 
ATOM     30  C   LIG    1      -22.326  84.383  12.916  0.00  0.00    +0.048 A 
ATOM     31  C   LIG    1      -21.061  84.366  13.651  0.00  0.00    +0.051 A 
ATOM     32  C   LIG    1      -20.775  85.708  13.897  0.00  0.00    +0.100 A 
BRANCH  24  34
ATOM     33  C   LIG    1      -22.521  88.389  14.820  0.00  0.00    +0.030 C 
ATOM     34  C   LIG    1      -21.892  87.954  13.495  0.00  0.00    +0.083 C 
ATOM     35  C   LIG    1      -20.541  88.640  13.284  0.00  0.00    +0.030 C 
ENDBRANCH  24  34
BRANCH  27  36
ATOM     36  N   LIG    1      -25.872  85.478  11.218  0.00  0.00    -0.327 N 
ATOM     37  H   LIG    1      -25.736  85.951  10.336  0.00  0.00    +0.145 HD
ATOM     38  H   LIG    1      -26.426  85.957  11.913  0.00  0.00    +0.145 HD
ENDBRANCH  27  36
ENDBRANCH  22  31
ENDBRANCH   1  22
TORSDOF 8
ENDMDL
MODEL 5
REMARK VINA RESULT:      -6.7     16.877     20.939
REMARK  Name = pdb/CHEMBL3666248.pdb
REMARK                            x       y       z     vdW  Elec       q    Type
REMARK                         _______ _______ _______ _____ _____    ______ ____
ROOT
ATOM      1  C   LIG    1      -36.005  66.936  21.647  0.00  0.00    +0.042 A 
ATOM      2  C   LIG    1      -36.126  68.001  22.573  0.00  0.00    +0.038 A 
ATOM      3  C   LIG    1      -37.056  69.027  22.374  0.00  0.00    +0.052 A 
ATOM      4  C   LIG    1      -37.832  68.942  21.214  0.00  0.00    +0.134 A 
ATOM      5  N   LIG    1      -37.693  67.985  20.263  0.00  0.00    -0.261 NA
ATOM      6  C   LIG    1      -36.776  67.014  20.482  0.00  0.00    +0.122 A 
ENDROOT
BRANCH   3   7
ATOM      7  N   LIG    1      -37.172  70.104  23.300  0.00  0.00    -0.284 N 
ATOM      8  H   LIG    1      -36.418  70.790  23.318  0.00  0.00    +0.155 HD
ATOM      9  C   LIG    1      -38.190  70.235  24.243  0.00  0.00    +0.222 C 
ATOM     10  O   LIG    1      -39.073  69.402  24.442  0.00  0.00    -0.275 OA
BRANCH   9  11
ATOM     11  C   LIG    1      -38.133  71.488  25.104  0.00  0.00    +0.131 C 
BRANCH  11  12
ATOM     12  C   LIG    1      -38.921  72.676  24.595  0.00  0.00    -0.039 A 
ATOM     13  C   LIG    1      -40.163  72.543  23.957  0.00  0.00    +0.004 A 
ATOM     14  C   LIG    1      -40.903  73.675  23.594  0.00  0.00    +0.012 A 
ATOM     15  C   LIG    1      -40.427  74.963  23.879  0.00  0.00    +0.055 A 
ATOM     16  C   LIG    1      -39.193  75.095  24.529  0.00  0.00    +0.012 A 
ATOM     17  C   LIG    1      -38.454  73.966  24.888  0.00  0.00    +0.004 A 
BRANCH  15  18
ATOM     18  C   LIG    1      -41.250  76.174  23.514  0.00  0.00    +0.417 C 
ATOM     19  F   LIG    1      -42.266  75.875  22.657  0.00  0.00    -0.166 F 
ATOM     20  F   LIG    1      -40.514  77.140  22.899  0.00  0.00    -0.166 F 
ATOM     21  F   LIG    1      -41.835  76.777  24.587  0.00  0.00    -0.166 F 
ENDBRANCH  15  18
ENDBRANCH  11  12
ENDBRANCH   9  11
ENDBRANCH   3   7
BRANCH   1  22
ATOM     22  C   LIG    1      -35.094  65.789  21.836  0.00  0.00    +0.197 C 
ATOM     23  O   LIG    1      -35.294  65.039  22.792  0.00  0.00    -0.287 OA
BRANCH  22  31
ATOM     24  N   LIG    1      -32.254  65.863  19.464  0.00  0.00    -0.329 N 
ATOM     25  C   LIG    1      -32.753  64.616  19.177  0.00  0.00    +0.147 A 
ATOM     26  N   LIG    1      -32.290  63.797  18.213  0.00  0.00    -0.197 NA
ATOM     27  C   LIG    1      -32.935  62.628  18.166  0.00  0.00    +0.214 A 
ATOM     28  N   LIG    1      -33.949  62.251  18.958  0.00  0.00    -0.222 NA
ATOM     29  C   LIG    1      -34.401  63.113  19.906  0.00  0.00    +0.126 A 
ATOM     30  C   LIG    1      -33.803  64.367  20.037  0.00  0.00    +0.048 A 
ATOM     31  C   LIG    1      -34.012  65.555  20.865  0.00  0.00    +0.051 A 
ATOM     32  C   LIG    1      -33.002  66.436  20.482  0.00  0.00    +0.100 A 
BRANCH  24  34
ATOM     33  C   LIG    1      -31.333  67.999  18.621  0.00  0.00    +0.030 C 
ATOM     34  C   LIG    1      -31.127  66.490  18.769  0.00  0.00    +0.083 C 
ATOM     35  C   LIG    1      -29.783  66.187  19.434  0.00  0.00    +0.030 C 
ENDBRANCH  24  34
BRANCH  27  36
ATOM     36  N   LIG    1      -32.557  61.739  17.173  0.00  0.00    -0.327 N 
ATOM     37  H   LIG    1      -31.973  61.014  17.566  0.00  0.00    +0.145 HD
ATOM     38  H   LIG    1      -32.182  62.251  16.387  0.00  0.00    +0.145 HD
ENDBRANCH  27  36
ENDBRANCH  22  31
ENDBRANCH   1  22
TORSDOF 8
ENDMDL
MODEL 6
REMARK VINA RESULT:      -6.7     17.467     20.453
REMARK  Name = pdb/CHEMBL3666248.pdb
REMARK                            x       y       z     vdW  Elec       q    Type
REMARK                         _______ _______ _______ _____ _____    ______ ____
ROOT
ATOM      1  C   LIG    1      -33.895  71.846  29.018  0.00  0.00    +0.042 A 
ATOM      2  C   LIG    1      -34.796  72.069  27.947  0.00  0.00    +0.038 A 
ATOM      3  C   LIG    1      -34.960  71.120  26.933  0.00  0.00    +0.052 A 
ATOM      4  C   LIG    1      -34.178  69.965  27.035  0.00  0.00    +0.134 A 
ATOM      5  N   LIG    1      -33.247  69.747  27.997  0.00  0.00    -0.261 NA
ATOM      6  C   LIG    1      -33.107  70.692  28.957  0.00  0.00    +0.122 A 
ENDROOT
BRANCH   3   7
ATOM      7  N   LIG    1      -35.858  71.348  25.850  0.00  0.00    -0.284 N 
ATOM      8  H   LIG    1      -35.462  71.693  24.977  0.00  0.00    +0.155 HD
ATOM      9  C   LIG    1      -37.244  71.225  25.929  0.00  0.00    +0.222 C 
ATOM     10  O   LIG    1      -37.869  70.975  26.959  0.00  0.00    -0.275 OA
BRANCH   9  11
ATOM     11  C   LIG    1      -38.003  71.480  24.635  0.00  0.00    +0.131 C 
BRANCH  11  12
ATOM     12  C   LIG    1      -38.738  72.800  24.549  0.00  0.00    -0.039 A 
ATOM     13  C   LIG    1      -38.147  74.021  24.906  0.00  0.00    +0.004 A 
ATOM     14  C   LIG    1      -38.831  75.227  24.713  0.00  0.00    +0.012 A 
ATOM     15  C   LIG    1      -40.111  75.242  24.141  0.00  0.00    +0.055 A 
ATOM     16  C   LIG    1      -40.695  74.023  23.771  0.00  0.00    +0.012 A 
ATOM     17  C   LIG    1      -40.014  72.820  23.965  0.00  0.00    +0.004 A 
BRANCH  15  18
ATOM     18  C   LIG    1      -40.822  76.551  23.907  0.00  0.00    +0.417 C 
ATOM     19  F   LIG    1      -42.096  76.380  23.455  0.00  0.00    -0.166 F 
ATOM     20  F   LIG    1      -40.197  77.327  22.980  0.00  0.00    -0.166 F 
ATOM     21  F   LIG    1      -40.926  77.321  25.027  0.00  0.00    -0.166 F 
ENDBRANCH  15  18
ENDBRANCH  11  12
ENDBRANCH   9  11
ENDBRANCH   3   7
BRANCH   1  22
ATOM     22  C   LIG    1      -33.730  72.775  30.154  0.00  0.00    +0.197 C 
ATOM     23  O   LIG    1      -34.127  72.415  31.262  0.00  0.00    -0.287 OA
BRANCH  22  31
ATOM     24  N   LIG    1      -32.488  76.096  29.091  0.00  0.00    -0.329 N 
ATOM     25  C   LIG    1      -31.492  75.756  29.972  0.00  0.00    +0.147 A 
ATOM     26  N   LIG    1      -30.386  76.485  30.214  0.00  0.00    -0.197 NA
ATOM     27  C   LIG    1      -29.593  75.942  31.142  0.00  0.00    +0.214 A 
ATOM     28  N   LIG    1      -29.810  74.790  31.793  0.00  0.00    -0.222 NA
ATOM     29  C   LIG    1      -30.928  74.072  31.507  0.00  0.00    +0.126 A 
ATOM     30  C   LIG    1      -31.823  74.545  30.547  0.00  0.00    +0.048 A 
ATOM     31  C   LIG    1      -33.066  74.072  29.939  0.00  0.00    +0.051 A 
ATOM     32  C   LIG    1      -33.444  75.091  29.065  0.00  0.00    +0.100 A 
BRANCH  24  34
ATOM     33  C   LIG    1      -32.523  76.998  26.787  0.00  0.00    +0.030 C 
ATOM     34  C   LIG    1      -32.506  77.318  28.284  0.00  0.00    +0.083 C 
ATOM     35  C   LIG    1      -33.660  78.250  28.653  0.00  0.00    +0.030 C 
ENDBRANCH  24  34
BRANCH  27  36
ATOM     36  N   LIG    1      -28.407  76.601  31.422  0.00  0.00    -0.327 N 
ATOM     37  H   LIG    1      -28.427  76.955  32.368  0.00  0.00    +0.145 HD
ATOM     38  H   LIG    1      -28.211  77.268  30.689  0.00  0.00    +0.145 HD
ENDBRANCH  27  36
ENDBRANCH  22  31
ENDBRANCH   1  22
TORSDOF 8
ENDMDL
MODEL 7
REMARK VINA RESULT:      -6.6     17.500     19.826
REMARK  Name = pdb/CHEMBL3666248.pdb
REMARK                            x       y       z     vdW  Elec       q    Type
REMARK                         _______ _______ _______ _____ _____    ______ ____
ROOT
ATOM      1  C   LIG    1      -34.437  77.484  27.592  0.00  0.00    +0.042 A 
ATOM      2  C   LIG    1      -35.545  76.789  27.046  0.00  0.00    +0.038 A 
ATOM      3  C   LIG    1      -36.825  77.352  27.055  0.00  0.00    +0.052 A 
ATOM      4  C   LIG    1      -36.940  78.616  27.642  0.00  0.00    +0.134 A 
ATOM      5  N   LIG    1      -35.923  79.280  28.247  0.00  0.00    -0.261 NA
ATOM      6  C   LIG    1      -34.700  78.700  28.230  0.00  0.00    +0.122 A 
ENDROOT
BRANCH   3   7
ATOM      7  N   LIG    1      -37.942  76.650  26.515  0.00  0.00    -0.284 N 
ATOM      8  H   LIG    1      -38.557  76.172  27.173  0.00  0.00    +0.155 HD
ATOM      9  C   LIG    1      -38.198  76.492  25.155  0.00  0.00    +0.222 C 
ATOM     10  O   LIG    1      -37.456  76.875  24.252  0.00  0.00    -0.275 OA
BRANCH   9  11
ATOM     11  C   LIG    1      -39.472  75.736  24.808  0.00  0.00    +0.131 C 
BRANCH  11  12
ATOM     12  C   LIG    1      -39.326  74.241  24.628  0.00  0.00    -0.039 A 
ATOM     13  C   LIG    1      -40.318  73.450  24.030  0.00  0.00    +0.004 A 
ATOM     14  C   LIG    1      -40.097  72.088  23.793  0.00  0.00    +0.012 A 
ATOM     15  C   LIG    1      -38.873  71.492  24.128  0.00  0.00    +0.055 A 
ATOM     16  C   LIG    1      -37.877  72.285  24.712  0.00  0.00    +0.012 A 
ATOM     17  C   LIG    1      -38.099  73.643  24.952  0.00  0.00    +0.004 A 
BRANCH  15  18
ATOM     18  C   LIG    1      -38.634  70.031  23.835  0.00  0.00    +0.417 C 
ATOM     19  F   LIG    1      -39.354  69.589  22.766  0.00  0.00    -0.166 F 
ATOM     20  F   LIG    1      -38.979  69.226  24.877  0.00  0.00    -0.166 F 
ATOM     21  F   LIG    1      -37.334  69.738  23.553  0.00  0.00    -0.166 F 
ENDBRANCH  15  18
ENDBRANCH  11  12
ENDBRANCH   9  11
ENDBRANCH   3   7
BRANCH   1  22
ATOM     22  C   LIG    1      -33.052  76.974  27.550  0.00  0.00    +0.197 C 
ATOM     23  O   LIG    1      -32.312  77.375  26.651  0.00  0.00    -0.287 OA
BRANCH  22  31
ATOM     24  N   LIG    1      -31.443  75.125  30.322  0.00  0.00    -0.329 N 
ATOM     25  C   LIG    1      -32.174  74.104  29.767  0.00  0.00    +0.147 A 
ATOM     26  N   LIG    1      -32.146  72.819  30.170  0.00  0.00    -0.197 NA
ATOM     27  C   LIG    1      -32.979  72.035  29.480  0.00  0.00    +0.214 A 
ATOM     28  N   LIG    1      -33.777  72.421  28.474  0.00  0.00    -0.222 NA
ATOM     29  C   LIG    1      -33.764  73.722  28.083  0.00  0.00    +0.126 A 
ATOM     30  C   LIG    1      -32.924  74.627  28.733  0.00  0.00    +0.048 A 
ATOM     31  C   LIG    1      -32.589  76.044  28.593  0.00  0.00    +0.051 A 
ATOM     32  C   LIG    1      -31.687  76.299  29.626  0.00  0.00    +0.100 A 
BRANCH  24  34
ATOM     33  C   LIG    1      -29.427  76.039  31.427  0.00  0.00    +0.030 C 
ATOM     34  C   LIG    1      -30.524  74.972  31.452  0.00  0.00    +0.083 C 
ATOM     35  C   LIG    1      -31.245  74.966  32.801  0.00  0.00    +0.030 C 
ENDBRANCH  24  34
BRANCH  27  36
ATOM     36  N   LIG    1      -32.982  70.686  29.795  0.00  0.00    -0.327 N 
ATOM     37  H   LIG    1      -33.650  70.507  30.531  0.00  0.00    +0.145 HD
ATOM     38  H   LIG    1      -32.034  70.375  29.952  0.00  0.00    +0.145 HD
ENDBRANCH  27  36
ENDBRANCH  22  31
ENDBRANCH   1  22
TORSDOF 8
ENDMDL
MODEL 8
REMARK VINA RESULT:      -6.5     18.046     19.966
REMARK  Name = pdb/CHEMBL3666248.pdb
REMARK                            x       y       z     vdW  Elec       q    Type
REMARK                         _______ _______ _______ _____ _____    ______ ____
ROOT
ATOM      1  C   LIG    1      -39.177  72.724  24.385  0.00  0.00    +0.042 A 
ATOM      2  C   LIG    1      -38.040  73.392  24.903  0.00  0.00    +0.038 A 
ATOM      3  C   LIG    1      -38.034  74.781  25.069  0.00  0.00    +0.052 A 
ATOM      4  C   LIG    1      -39.196  75.455  24.682  0.00  0.00    +0.134 A 
ATOM      5  N   LIG    1      -40.274  74.865  24.108  0.00  0.00    -0.261 NA
ATOM      6  C   LIG    1      -40.242  73.521  23.951  0.00  0.00    +0.122 A 
ENDROOT
BRANCH   3   7
ATOM      7  N   LIG    1      -36.888  75.455  25.581  0.00  0.00    -0.284 N 
ATOM      8  H   LIG    1      -36.149  75.692  24.920  0.00  0.00    +0.155 HD
ATOM      9  C   LIG    1      -36.663  75.729  26.929  0.00  0.00    +0.222 C 
ATOM     10  O   LIG    1      -37.390  75.360  27.851  0.00  0.00    -0.275 OA
BRANCH   9  11
ATOM     11  C   LIG    1      -35.386  76.495  27.242  0.00  0.00    +0.131 C 
BRANCH  11  12
ATOM     12  C   LIG    1      -34.274  75.694  27.882  0.00  0.00    -0.039 A 
ATOM     13  C   LIG    1      -33.206  76.292  28.566  0.00  0.00    +0.004 A 
ATOM     14  C   LIG    1      -32.254  75.508  29.229  0.00  0.00    +0.012 A 
ATOM     15  C   LIG    1      -32.361  74.110  29.239  0.00  0.00    +0.055 A 
ATOM     16  C   LIG    1      -33.435  73.512  28.568  0.00  0.00    +0.012 A 
ATOM     17  C   LIG    1      -34.383  74.295  27.904  0.00  0.00    +0.004 A 
BRANCH  15  18
ATOM     18  C   LIG    1      -31.347  73.278  29.987  0.00  0.00    +0.417 C 
ATOM     19  F   LIG    1      -30.473  74.038  30.702  0.00  0.00    -0.166 F 
ATOM     20  F   LIG    1      -30.587  72.513  29.158  0.00  0.00    -0.166 F 
ATOM     21  F   LIG    1      -31.907  72.415  30.881  0.00  0.00    -0.166 F 
ENDBRANCH  15  18
ENDBRANCH  11  12
ENDBRANCH   9  11
ENDBRANCH   3   7
BRANCH   1  22
ATOM     22  C   LIG    1      -39.271  71.256  24.252  0.00  0.00    +0.197 C 
ATOM     23  O   LIG    1      -40.305  70.780  23.782  0.00  0.00    -0.287 OA
BRANCH  22  31
ATOM     24  N   LIG    1      -36.395  69.515  25.799  0.00  0.00    -0.329 N 
ATOM     25  C   LIG    1      -36.284  69.036  24.517  0.00  0.00    +0.147 A 
ATOM     26  N   LIG    1      -35.299  68.233  24.070  0.00  0.00    -0.197 NA
ATOM     27  C   LIG    1      -35.446  67.888  22.788  0.00  0.00    +0.214 A 
ATOM     28  N   LIG    1      -36.439  68.272  21.974  0.00  0.00    -0.222 NA
ATOM     29  C   LIG    1      -37.405  69.098  22.456  0.00  0.00    +0.126 A 
ATOM     30  C   LIG    1      -37.344  69.527  23.782  0.00  0.00    +0.048 A 
ATOM     31  C   LIG    1      -38.125  70.418  24.640  0.00  0.00    +0.051 A 
ATOM     32  C   LIG    1      -37.503  70.345  25.886  0.00  0.00    +0.100 A 
BRANCH  24  34
ATOM     33  C   LIG    1      -34.439  70.339  27.070  0.00  0.00    +0.030 C 
ATOM     34  C   LIG    1      -35.460  69.214  26.885  0.00  0.00    +0.083 C 
ATOM     35  C   LIG    1      -36.170  68.903  28.204  0.00  0.00    +0.030 C 
ENDBRANCH  24  34
BRANCH  27  36
ATOM     36  N   LIG    1      -34.452  67.101  22.229  0.00  0.00    -0.327 N 
ATOM     37  H   LIG    1      -34.234  66.333  22.848  0.00  0.00    +0.145 HD
ATOM     38  H   LIG    1      -33.682  67.686  21.938  0.00  0.00    +0.145 HD
ENDBRANCH  27  36
ENDBRANCH  22  31
ENDBRANCH   1  22
TORSDOF 8
ENDMDL
MODEL 9
REMARK VINA RESULT:      -6.4     16.107     19.218
REMARK  Name = pdb/CHEMBL3666248.pdb
REMARK                            x       y       z     vdW  Elec       q    Type
REMARK                         _______ _______ _______ _____ _____    ______ ____
ROOT
ATOM      1  C   LIG    1      -27.563  71.737  32.190  0.00  0.00    +0.042 A 
ATOM      2  C   LIG    1      -28.667  72.190  31.425  0.00  0.00    +0.038 A 
ATOM      3  C   LIG    1      -29.475  71.289  30.723  0.00  0.00    +0.052 A 
ATOM      4  C   LIG    1      -29.117  69.940  30.809  0.00  0.00    +0.134 A 
ATOM      5  N   LIG    1      -28.023  69.473  31.462  0.00  0.00    -0.261 NA
ATOM      6  C   LIG    1      -27.258  70.374  32.122  0.00  0.00    +0.122 A 
ENDROOT
BRANCH   3   7
ATOM      7  N   LIG    1      -30.580  71.744  29.946  0.00  0.00    -0.284 N 
ATOM      8  H   LIG    1      -30.448  71.809  28.937  0.00  0.00    +0.155 HD
ATOM      9  C   LIG    1      -31.789  72.194  30.473  0.00  0.00    +0.222 C 
ATOM     10  O   LIG    1      -32.028  72.322  31.673  0.00  0.00    -0.275 OA
BRANCH   9  11
ATOM     11  C   LIG    1      -32.843  72.595  29.451  0.00  0.00    +0.131 C 
BRANCH  11  12
ATOM     12  C   LIG    1      -32.818  74.042  29.009  0.00  0.00    -0.039 A 
ATOM     13  C   LIG    1      -31.828  74.944  29.424  0.00  0.00    +0.004 A 
ATOM     14  C   LIG    1      -31.787  76.245  28.909  0.00  0.00    +0.012 A 
ATOM     15  C   LIG    1      -32.722  76.667  27.953  0.00  0.00    +0.055 A 
ATOM     16  C   LIG    1      -33.702  75.761  27.527  0.00  0.00    +0.012 A 
ATOM     17  C   LIG    1      -33.745  74.464  28.043  0.00  0.00    +0.004 A 
BRANCH  15  18
ATOM     18  C   LIG    1      -32.645  78.060  27.380  0.00  0.00    +0.417 C 
ATOM     19  F   LIG    1      -32.242  78.069  26.079  0.00  0.00    -0.166 F 
ATOM     20  F   LIG    1      -31.764  78.852  28.050  0.00  0.00    -0.166 F 
ATOM     21  F   LIG    1      -33.835  78.724  27.404  0.00  0.00    -0.166 F 
ENDBRANCH  15  18
ENDBRANCH  11  12
ENDBRANCH   9  11
ENDBRANCH   3   7
BRANCH   1  22
ATOM     22  C   LIG    1      -26.717  72.629  33.009  0.00  0.00    +0.197 C 
ATOM     23  O   LIG    1      -25.830  72.120  33.695  0.00  0.00    -0.287 OA
BRANCH  22  31
ATOM     24  N   LIG    1      -27.822  76.156  33.198  0.00  0.00    -0.329 N 
ATOM     25  C   LIG    1      -26.807  76.288  32.283  0.00  0.00    +0.147 A 
ATOM     26  N   LIG    1      -26.477  77.428  31.647  0.00  0.00    -0.197 NA
ATOM     27  C   LIG    1      -25.428  77.289  30.832  0.00  0.00    +0.214 A 
ATOM     28  N   LIG    1      -24.739  76.160  30.615  0.00  0.00    -0.222 NA
ATOM     29  C   LIG    1      -25.114  75.024  31.260  0.00  0.00    +0.126 A 
ATOM     30  C   LIG    1      -26.203  75.056  32.132  0.00  0.00    +0.048 A 
ATOM     31  C   LIG    1      -26.929  74.085  32.950  0.00  0.00    +0.051 A 
ATOM     32  C   LIG    1      -27.903  74.833  33.609  0.00  0.00    +0.100 A 
BRANCH  24  34
ATOM     33  C   LIG    1      -30.152  76.988  33.228  0.00  0.00    +0.030 C 
ATOM     34  C   LIG    1      -28.699  77.245  33.633  0.00  0.00    +0.083 C 
ATOM     35  C   LIG    1      -28.594  77.521  35.133  0.00  0.00    +0.030 C 
ENDBRANCH  24  34
BRANCH  27  36
ATOM     36  N   LIG    1      -25.046  78.401  30.100  0.00  0.00    -0.327 N 
ATOM     37  H   LIG    1      -25.331  78.292  29.137  0.00  0.00    +0.145 HD
ATOM     38  H   LIG    1      -24.069  78.596  30.268  0.00  0.00    +0.145 HD
ENDBRANCH  27  36
ENDBRANCH  22  31
ENDBRANCH   1  22
TORSDOF 8
ENDMDL
