MODEL 1
REMARK VINA RESULT:      -6.3      0.000      0.000
REMARK  Name = pdb/CHEMBL3661492.pdb
REMARK                            x       y       z     vdW  Elec       q    Type
REMARK                         _______ _______ _______ _____ _____    ______ ____
ROOT
ATOM      1  C   LIG    1      -21.377  77.247  31.028  0.00  0.00    +0.042 A 
ATOM      2  C   LIG    1      -21.848  77.716  32.259  0.00  0.00    +0.038 A 
ATOM      3  C   LIG    1      -20.986  78.382  33.136  0.00  0.00    +0.052 A 
ATOM      4  C   LIG    1      -19.670  78.560  32.718  0.00  0.00    +0.134 A 
ATOM      5  N   LIG    1      -19.179  78.111  31.533  0.00  0.00    -0.261 NA
ATOM      6  C   LIG    1      -20.039  77.449  30.722  0.00  0.00    +0.122 A 
ENDROOT
BRANCH   3   7
ATOM      7  N   LIG    1      -21.515  78.803  34.375  0.00  0.00    -0.284 N 
ATOM      8  H   LIG    1      -20.915  78.703  35.188  0.00  0.00    +0.155 HD
ATOM      9  C   LIG    1      -22.740  79.418  34.589  0.00  0.00    +0.223 C 
ATOM     10  O   LIG    1      -23.559  79.694  33.719  0.00  0.00    -0.275 OA
BRANCH   9  11
ATOM     11  C   LIG    1      -23.027  79.703  36.048  0.00  0.00    +0.151 C 
BRANCH  11  12
ATOM     12  C   LIG    1      -22.166  80.803  36.605  0.00  0.00    +0.050 A 
ATOM     13  N   LIG    1      -20.870  80.495  36.870  0.00  0.00    -0.258 NA
ATOM     14  C   LIG    1      -20.096  81.484  37.393  0.00  0.00    +0.131 A 
ATOM     15  C   LIG    1      -20.551  82.766  37.660  0.00  0.00    +0.059 A 
ATOM     16 CL   LIG    1      -19.504  83.962  38.305  0.00  0.00    -0.082 Cl
ATOM     17  C   LIG    1      -21.879  83.061  37.387  0.00  0.00    +0.023 A 
ATOM     18  C   LIG    1      -22.700  82.069  36.847  0.00  0.00    +0.025 A 
ENDBRANCH  11  12
ENDBRANCH   9  11
ENDBRANCH   3   7
BRANCH   1  19
ATOM     19  C   LIG    1      -22.222  76.481  30.084  0.00  0.00    +0.197 C 
ATOM     20  O   LIG    1      -21.928  76.496  28.885  0.00  0.00    -0.287 OA
BRANCH  19  28
ATOM     21  N   LIG    1      -24.641  74.018  31.309  0.00  0.00    -0.329 N 
ATOM     22  C   LIG    1      -25.420  75.148  31.362  0.00  0.00    +0.145 A 
ATOM     23  N   LIG    1      -26.699  75.202  31.771  0.00  0.00    -0.218 NA
ATOM     24  C   LIG    1      -27.184  76.456  31.735  0.00  0.00    +0.223 A 
ATOM     25  N   LIG    1      -26.549  77.580  31.354  0.00  0.00    -0.243 NA
ATOM     26  C   LIG    1      -25.260  77.472  30.954  0.00  0.00    +0.124 A 
ATOM     27  C   LIG    1      -24.643  76.220  30.938  0.00  0.00    +0.048 A 
ATOM     28  C   LIG    1      -23.358  75.711  30.573  0.00  0.00    +0.051 A 
ATOM     29  C   LIG    1      -23.400  74.345  30.814  0.00  0.00    +0.100 A 
BRANCH  21  31
ATOM     30  C   LIG    1      -24.889  71.640  30.655  0.00  0.00    +0.030 C 
ATOM     31  C   LIG    1      -25.054  72.688  31.756  0.00  0.00    +0.083 C 
ATOM     32  C   LIG    1      -24.311  72.278  33.029  0.00  0.00    +0.030 C 
ENDBRANCH  21  31
ENDBRANCH  19  28
ENDBRANCH   1  19
TORSDOF 6
ENDMDL
MODEL 2
REMARK VINA RESULT:      -6.3      1.953      2.308
REMARK  Name = pdb/CHEMBL3661492.pdb
REMARK                            x       y       z     vdW  Elec       q    Type
REMARK                         _______ _______ _______ _____ _____    ______ ____
ROOT
ATOM      1  C   LIG    1      -20.607  77.040  30.674  0.00  0.00    +0.042 A 
ATOM      2  C   LIG    1      -20.764  77.948  31.726  0.00  0.00    +0.038 A 
ATOM      3  C   LIG    1      -19.646  78.438  32.407  0.00  0.00    +0.052 A 
ATOM      4  C   LIG    1      -18.397  77.992  31.979  0.00  0.00    +0.134 A 
ATOM      5  N   LIG    1      -18.211  77.105  30.967  0.00  0.00    -0.261 NA
ATOM      6  C   LIG    1      -19.321  76.636  30.348  0.00  0.00    +0.122 A 
ENDROOT
BRANCH   3   7
ATOM      7  N   LIG    1      -19.873  79.327  33.480  0.00  0.00    -0.284 N 
ATOM      8  H   LIG    1      -19.995  80.308  33.245  0.00  0.00    +0.155 HD
ATOM      9  C   LIG    1      -20.032  78.991  34.816  0.00  0.00    +0.223 C 
ATOM     10  O   LIG    1      -20.000  77.854  35.273  0.00  0.00    -0.275 OA
BRANCH   9  11
ATOM     11  C   LIG    1      -20.217  80.190  35.722  0.00  0.00    +0.151 C 
BRANCH  11  12
ATOM     12  C   LIG    1      -21.658  80.435  36.075  0.00  0.00    +0.050 A 
ATOM     13  N   LIG    1      -22.581  80.171  35.113  0.00  0.00    -0.258 NA
ATOM     14  C   LIG    1      -23.883  80.411  35.425  0.00  0.00    +0.131 A 
ATOM     15  C   LIG    1      -24.310  80.897  36.650  0.00  0.00    +0.059 A 
ATOM     16 CL   LIG    1      -25.976  81.156  36.970  0.00  0.00    -0.082 Cl
ATOM     17  C   LIG    1      -23.354  81.164  37.620  0.00  0.00    +0.023 A 
ATOM     18  C   LIG    1      -22.009  80.926  37.333  0.00  0.00    +0.025 A 
ENDBRANCH  11  12
ENDBRANCH   9  11
ENDBRANCH   3   7
BRANCH   1  19
ATOM     19  C   LIG    1      -21.753  76.438  29.955  0.00  0.00    +0.197 C 
ATOM     20  O   LIG    1      -21.744  76.445  28.720  0.00  0.00    -0.287 OA
BRANCH  19  28
ATOM     21  N   LIG    1      -24.059  74.420  31.962  0.00  0.00    -0.329 N 
ATOM     22  C   LIG    1      -24.870  75.496  31.697  0.00  0.00    +0.145 A 
ATOM     23  N   LIG    1      -26.138  75.648  32.118  0.00  0.00    -0.218 NA
ATOM     24  C   LIG    1      -26.661  76.820  31.719  0.00  0.00    +0.223 A 
ATOM     25  N   LIG    1      -26.072  77.787  30.990  0.00  0.00    -0.243 NA
ATOM     26  C   LIG    1      -24.793  77.586  30.595  0.00  0.00    +0.124 A 
ATOM     27  C   LIG    1      -24.139  76.402  30.938  0.00  0.00    +0.048 A 
ATOM     28  C   LIG    1      -22.850  75.831  30.698  0.00  0.00    +0.051 A 
ATOM     29  C   LIG    1      -22.843  74.604  31.345  0.00  0.00    +0.100 A 
BRANCH  21  31
ATOM     30  C   LIG    1      -24.165  71.948  32.106  0.00  0.00    +0.030 C 
ATOM     31  C   LIG    1      -24.418  73.282  32.808  0.00  0.00    +0.083 C 
ATOM     32  C   LIG    1      -23.696  73.346  34.156  0.00  0.00    +0.030 C 
ENDBRANCH  21  31
ENDBRANCH  19  28
ENDBRANCH   1  19
TORSDOF 6
ENDMDL
MODEL 3
REMARK VINA RESULT:      -6.2     20.822     23.330
REMARK  Name = pdb/CHEMBL3661492.pdb
REMARK                            x       y       z     vdW  Elec       q    Type
REMARK                         _______ _______ _______ _____ _____    ______ ____
ROOT
ATOM      1  C   LIG    1      -23.042  87.418  13.126  0.00  0.00    +0.042 A 
ATOM      2  C   LIG    1      -22.824  86.093  13.519  0.00  0.00    +0.038 A 
ATOM      3  C   LIG    1      -22.302  85.811  14.785  0.00  0.00    +0.052 A 
ATOM      4  C   LIG    1      -22.032  86.896  15.616  0.00  0.00    +0.134 A 
ATOM      5  N   LIG    1      -22.225  88.193  15.262  0.00  0.00    -0.261 NA
ATOM      6  C   LIG    1      -22.709  88.426  14.018  0.00  0.00    +0.122 A 
ENDROOT
BRANCH   3   7
ATOM      7  N   LIG    1      -22.077  84.456  15.110  0.00  0.00    -0.284 N 
ATOM      8  H   LIG    1      -21.483  83.925  14.480  0.00  0.00    +0.155 HD
ATOM      9  C   LIG    1      -22.513  83.792  16.248  0.00  0.00    +0.223 C 
ATOM     10  O   LIG    1      -23.169  84.291  17.155  0.00  0.00    -0.275 OA
BRANCH   9  11
ATOM     11  C   LIG    1      -22.139  82.325  16.271  0.00  0.00    +0.151 C 
BRANCH  11  12
ATOM     12  C   LIG    1      -23.164  81.454  15.598  0.00  0.00    +0.050 A 
ATOM     13  N   LIG    1      -23.837  81.994  14.548  0.00  0.00    -0.258 NA
ATOM     14  C   LIG    1      -24.778  81.213  13.952  0.00  0.00    +0.131 A 
ATOM     15  C   LIG    1      -25.078  79.920  14.349  0.00  0.00    +0.059 A 
ATOM     16 CL   LIG    1      -26.268  78.995  13.530  0.00  0.00    -0.082 Cl
ATOM     17  C   LIG    1      -24.384  79.386  15.426  0.00  0.00    +0.023 A 
ATOM     18  C   LIG    1      -23.409  80.160  16.058  0.00  0.00    +0.025 A 
ENDBRANCH  11  12
ENDBRANCH   9  11
ENDBRANCH   3   7
BRANCH   1  19
ATOM     19  C   LIG    1      -23.532  87.785  11.778  0.00  0.00    +0.197 C 
ATOM     20  O   LIG    1      -23.724  86.885  10.955  0.00  0.00    -0.287 OA
BRANCH  19  28
ATOM     21  N   LIG    1      -24.796  91.189  11.288  0.00  0.00    -0.329 N 
ATOM     22  C   LIG    1      -23.562  91.318  10.700  0.00  0.00    +0.145 A 
ATOM     23  N   LIG    1      -23.071  92.437  10.139  0.00  0.00    -0.218 NA
ATOM     24  C   LIG    1      -21.824  92.257   9.671  0.00  0.00    +0.223 A 
ATOM     25  N   LIG    1      -21.076  91.138   9.711  0.00  0.00    -0.243 NA
ATOM     26  C   LIG    1      -21.615  90.040  10.291  0.00  0.00    +0.124 A 
ATOM     27  C   LIG    1      -22.909  90.095  10.808  0.00  0.00    +0.048 A 
ATOM     28  C   LIG    1      -23.802  89.179  11.449  0.00  0.00    +0.051 A 
ATOM     29  C   LIG    1      -24.958  89.894  11.725  0.00  0.00    +0.100 A 
BRANCH  21  31
ATOM     30  C   LIG    1      -26.860  92.235  10.401  0.00  0.00    +0.030 C 
ATOM     31  C   LIG    1      -25.763  92.272  11.465  0.00  0.00    +0.083 C 
ATOM     32  C   LIG    1      -26.356  92.259  12.875  0.00  0.00    +0.030 C 
ENDBRANCH  21  31
ENDBRANCH  19  28
ENDBRANCH   1  19
TORSDOF 6
ENDMDL
MODEL 4
REMARK VINA RESULT:      -6.1     16.618     20.440
REMARK  Name = pdb/CHEMBL3661492.pdb
REMARK                            x       y       z     vdW  Elec       q    Type
REMARK                         _______ _______ _______ _____ _____    ______ ____
ROOT
ATOM      1  C   LIG    1      -40.164  70.642  23.257  0.00  0.00    +0.042 A 
ATOM      2  C   LIG    1      -38.863  70.177  23.478  0.00  0.00    +0.038 A 
ATOM      3  C   LIG    1      -38.260  69.308  22.564  0.00  0.00    +0.052 A 
ATOM      4  C   LIG    1      -39.005  68.951  21.442  0.00  0.00    +0.134 A 
ATOM      5  N   LIG    1      -40.272  69.379  21.202  0.00  0.00    -0.261 NA
ATOM      6  C   LIG    1      -40.830  70.201  22.122  0.00  0.00    +0.122 A 
ENDROOT
BRANCH   3   7
ATOM      7  N   LIG    1      -36.958  68.850  22.860  0.00  0.00    -0.284 N 
ATOM      8  H   LIG    1      -36.240  69.557  22.984  0.00  0.00    +0.155 HD
ATOM      9  C   LIG    1      -36.571  67.537  23.085  0.00  0.00    +0.223 C 
ATOM     10  O   LIG    1      -37.314  66.562  23.059  0.00  0.00    -0.275 OA
BRANCH   9  11
ATOM     11  C   LIG    1      -35.087  67.379  23.334  0.00  0.00    +0.151 C 
BRANCH  11  12
ATOM     12  C   LIG    1      -34.668  67.887  24.687  0.00  0.00    +0.050 A 
ATOM     13  N   LIG    1      -34.434  69.220  24.798  0.00  0.00    -0.258 NA
ATOM     14  C   LIG    1      -34.036  69.677  26.016  0.00  0.00    +0.131 A 
ATOM     15  C   LIG    1      -33.865  68.869  27.129  0.00  0.00    +0.059 A 
ATOM     16 CL   LIG    1      -33.377  69.528  28.636  0.00  0.00    -0.082 Cl
ATOM     17  C   LIG    1      -34.105  67.509  26.996  0.00  0.00    +0.023 A 
ATOM     18  C   LIG    1      -34.518  67.008  25.760  0.00  0.00    +0.025 A 
ENDBRANCH  11  12
ENDBRANCH   9  11
ENDBRANCH   3   7
BRANCH   1  19
ATOM     19  C   LIG    1      -40.880  71.514  24.216  0.00  0.00    +0.197 C 
ATOM     20  O   LIG    1      -41.425  70.992  25.193  0.00  0.00    -0.287 OA
BRANCH  19  28
ATOM     21  N   LIG    1      -41.613  75.034  23.520  0.00  0.00    -0.329 N 
ATOM     22  C   LIG    1      -40.329  75.158  23.991  0.00  0.00    +0.145 A 
ATOM     23  N   LIG    1      -39.644  76.309  24.114  0.00  0.00    -0.218 NA
ATOM     24  C   LIG    1      -38.418  76.110  24.629  0.00  0.00    +0.223 A 
ATOM     25  N   LIG    1      -37.856  74.945  25.006  0.00  0.00    -0.243 NA
ATOM     26  C   LIG    1      -38.589  73.816  24.864  0.00  0.00    +0.124 A 
ATOM     27  C   LIG    1      -39.877  73.889  24.332  0.00  0.00    +0.048 A 
ATOM     28  C   LIG    1      -40.913  72.956  24.014  0.00  0.00    +0.051 A 
ATOM     29  C   LIG    1      -41.968  73.706  23.511  0.00  0.00    +0.100 A 
BRANCH  21  31
ATOM     30  C   LIG    1      -43.543  75.719  22.124  0.00  0.00    +0.030 C 
ATOM     31  C   LIG    1      -42.481  76.148  23.137  0.00  0.00    +0.083 C 
ATOM     32  C   LIG    1      -43.117  76.801  24.366  0.00  0.00    +0.030 C 
ENDBRANCH  21  31
ENDBRANCH  19  28
ENDBRANCH   1  19
TORSDOF 6
ENDMDL
MODEL 5
REMARK VINA RESULT:      -5.9     11.210     13.297
REMARK  Name = pdb/CHEMBL3661492.pdb
REMARK                            x       y       z     vdW  Elec       q    Type
REMARK                         _______ _______ _______ _____ _____    ______ ____
ROOT
ATOM      1  C   LIG    1      -35.588  81.035  29.353  0.00  0.00    +0.042 A 
ATOM      2  C   LIG    1      -35.129  82.330  29.091  0.00  0.00    +0.038 A 
ATOM      3  C   LIG    1      -35.846  83.172  28.235  0.00  0.00    +0.052 A 
ATOM      4  C   LIG    1      -37.020  82.665  27.684  0.00  0.00    +0.134 A 
ATOM      5  N   LIG    1      -37.489  81.410  27.912  0.00  0.00    -0.261 NA
ATOM      6  C   LIG    1      -36.754  80.617  28.728  0.00  0.00    +0.122 A 
ENDROOT
BRANCH   3   7
ATOM      7  N   LIG    1      -35.314  84.456  27.988  0.00  0.00    -0.284 N 
ATOM      8  H   LIG    1      -34.789  84.577  27.127  0.00  0.00    +0.155 HD
ATOM      9  C   LIG    1      -35.504  85.595  28.756  0.00  0.00    +0.223 C 
ATOM     10  O   LIG    1      -36.174  85.659  29.781  0.00  0.00    -0.275 OA
BRANCH   9  11
ATOM     11  C   LIG    1      -34.756  86.805  28.238  0.00  0.00    +0.151 C 
BRANCH  11  12
ATOM     12  C   LIG    1      -33.470  87.053  28.978  0.00  0.00    +0.050 A 
ATOM     13  N   LIG    1      -32.790  85.960  29.413  0.00  0.00    -0.258 NA
ATOM     14  C   LIG    1      -31.637  86.185  30.099  0.00  0.00    +0.131 A 
ATOM     15  C   LIG    1      -31.127  87.445  30.369  0.00  0.00    +0.059 A 
ATOM     16 CL   LIG    1      -29.655  87.642  31.227  0.00  0.00    -0.082 Cl
ATOM     17  C   LIG    1      -31.838  88.550  29.920  0.00  0.00    +0.023 A 
ATOM     18  C   LIG    1      -33.023  88.354  29.210  0.00  0.00    +0.025 A 
ENDBRANCH  11  12
ENDBRANCH   9  11
ENDBRANCH   3   7
BRANCH   1  19
ATOM     19  C   LIG    1      -34.844  80.075  30.200  0.00  0.00    +0.197 C 
ATOM     20  O   LIG    1      -34.697  80.335  31.397  0.00  0.00    -0.287 OA
BRANCH  19  28
ATOM     21  N   LIG    1      -33.844  76.672  29.283  0.00  0.00    -0.329 N 
ATOM     22  C   LIG    1      -33.313  77.359  28.219  0.00  0.00    +0.145 A 
ATOM     23  N   LIG    1      -32.638  76.817  27.191  0.00  0.00    -0.218 NA
ATOM     24  C   LIG    1      -32.267  77.744  26.291  0.00  0.00    +0.223 A 
ATOM     25  N   LIG    1      -32.494  79.071  26.325  0.00  0.00    -0.243 NA
ATOM     26  C   LIG    1      -33.182  79.566  27.380  0.00  0.00    +0.124 A 
ATOM     27  C   LIG    1      -33.616  78.705  28.389  0.00  0.00    +0.048 A 
ATOM     28  C   LIG    1      -34.321  78.842  29.626  0.00  0.00    +0.051 A 
ATOM     29  C   LIG    1      -34.437  77.561  30.149  0.00  0.00    +0.100 A 
BRANCH  21  31
ATOM     30  C   LIG    1      -32.493  74.726  30.011  0.00  0.00    +0.030 C 
ATOM     31  C   LIG    1      -33.824  75.218  29.441  0.00  0.00    +0.083 C 
ATOM     32  C   LIG    1      -35.003  74.738  30.290  0.00  0.00    +0.030 C 
ENDBRANCH  21  31
ENDBRANCH  19  28
ENDBRANCH   1  19
TORSDOF 6
ENDMDL
MODEL 6
REMARK VINA RESULT:      -5.9      4.190      9.293
REMARK  Name = pdb/CHEMBL3661492.pdb
REMARK                            x       y       z     vdW  Elec       q    Type
REMARK                         _______ _______ _______ _____ _____    ______ ____
ROOT
ATOM      1  C   LIG    1      -25.888  76.269  31.510  0.00  0.00    +0.042 A 
ATOM      2  C   LIG    1      -25.426  74.951  31.423  0.00  0.00    +0.038 A 
ATOM      3  C   LIG    1      -26.204  73.898  31.913  0.00  0.00    +0.052 A 
ATOM      4  C   LIG    1      -27.440  74.226  32.466  0.00  0.00    +0.134 A 
ATOM      5  N   LIG    1      -27.914  75.495  32.572  0.00  0.00    -0.261 NA
ATOM      6  C   LIG    1      -27.120  76.489  32.108  0.00  0.00    +0.122 A 
ENDROOT
BRANCH   3   7
ATOM      7  N   LIG    1      -25.668  72.595  31.824  0.00  0.00    -0.284 N 
ATOM      8  H   LIG    1      -25.616  72.182  30.898  0.00  0.00    +0.155 HD
ATOM      9  C   LIG    1      -25.124  71.849  32.859  0.00  0.00    +0.223 C 
ATOM     10  O   LIG    1      -25.026  72.215  34.025  0.00  0.00    -0.275 OA
BRANCH   9  11
ATOM     11  C   LIG    1      -24.677  70.466  32.437  0.00  0.00    +0.151 C 
BRANCH  11  12
ATOM     12  C   LIG    1      -24.717  70.273  30.946  0.00  0.00    +0.050 A 
ATOM     13  N   LIG    1      -25.926  69.989  30.395  0.00  0.00    -0.258 NA
ATOM     14  C   LIG    1      -25.960  69.795  29.049  0.00  0.00    +0.131 A 
ATOM     15  C   LIG    1      -24.848  69.873  28.226  0.00  0.00    +0.059 A 
ATOM     16 CL   LIG    1      -24.979  69.632  26.532  0.00  0.00    -0.082 Cl
ATOM     17  C   LIG    1      -23.620  70.160  28.806  0.00  0.00    +0.023 A 
ATOM     18  C   LIG    1      -23.552  70.368  30.185  0.00  0.00    +0.025 A 
ENDBRANCH  11  12
ENDBRANCH   9  11
ENDBRANCH   3   7
BRANCH   1  19
ATOM     19  C   LIG    1      -25.087  77.432  31.066  0.00  0.00    +0.197 C 
ATOM     20  O   LIG    1      -25.606  78.246  30.297  0.00  0.00    -0.287 OA
BRANCH  19  28
ATOM     21  N   LIG    1      -21.964  78.069  32.873  0.00  0.00    -0.329 N 
ATOM     22  C   LIG    1      -21.450  77.616  31.682  0.00  0.00    +0.145 A 
ATOM     23  N   LIG    1      -20.145  77.487  31.388  0.00  0.00    -0.218 NA
ATOM     24  C   LIG    1      -19.956  76.993  30.152  0.00  0.00    +0.223 A 
ATOM     25  N   LIG    1      -20.890  76.640  29.248  0.00  0.00    -0.243 NA
ATOM     26  C   LIG    1      -22.190  76.786  29.596  0.00  0.00    +0.124 A 
ATOM     27  C   LIG    1      -22.518  77.299  30.851  0.00  0.00    +0.048 A 
ATOM     28  C   LIG    1      -23.725  77.614  31.551  0.00  0.00    +0.051 A 
ATOM     29  C   LIG    1      -23.338  78.090  32.796  0.00  0.00    +0.100 A 
BRANCH  21  31
ATOM     30  C   LIG    1      -21.745  79.645  34.773  0.00  0.00    +0.030 C 
ATOM     31  C   LIG    1      -21.174  78.424  34.051  0.00  0.00    +0.083 C 
ATOM     32  C   LIG    1      -21.033  77.232  35.001  0.00  0.00    +0.030 C 
ENDBRANCH  21  31
ENDBRANCH  19  28
ENDBRANCH   1  19
TORSDOF 6
ENDMDL
MODEL 7
REMARK VINA RESULT:      -5.9     13.290     17.189
REMARK  Name = pdb/CHEMBL3661492.pdb
REMARK                            x       y       z     vdW  Elec       q    Type
REMARK                         _______ _______ _______ _____ _____    ______ ____
ROOT
ATOM      1  C   LIG    1      -39.283  72.928  24.381  0.00  0.00    +0.042 A 
ATOM      2  C   LIG    1      -38.182  73.539  24.990  0.00  0.00    +0.038 A 
ATOM      3  C   LIG    1      -38.121  74.931  25.102  0.00  0.00    +0.052 A 
ATOM      4  C   LIG    1      -39.199  75.656  24.598  0.00  0.00    +0.134 A 
ATOM      5  N   LIG    1      -40.278  75.094  23.993  0.00  0.00    -0.261 NA
ATOM      6  C   LIG    1      -40.289  73.744  23.883  0.00  0.00    +0.122 A 
ENDROOT
BRANCH   3   7
ATOM      7  N   LIG    1      -36.970  75.487  25.700  0.00  0.00    -0.284 N 
ATOM      8  H   LIG    1      -36.143  75.567  25.117  0.00  0.00    +0.155 HD
ATOM      9  C   LIG    1      -36.872  76.016  26.979  0.00  0.00    +0.223 C 
ATOM     10  O   LIG    1      -37.786  76.082  27.794  0.00  0.00    -0.275 OA
BRANCH   9  11
ATOM     11  C   LIG    1      -35.479  76.493  27.330  0.00  0.00    +0.151 C 
BRANCH  11  12
ATOM     12  C   LIG    1      -34.615  75.398  27.892  0.00  0.00    +0.050 A 
ATOM     13  N   LIG    1      -35.094  74.129  27.805  0.00  0.00    -0.258 NA
ATOM     14  C   LIG    1      -34.322  73.141  28.331  0.00  0.00    +0.131 A 
ATOM     15  C   LIG    1      -33.093  73.355  28.935  0.00  0.00    +0.059 A 
ATOM     16 CL   LIG    1      -32.172  72.049  29.558  0.00  0.00    -0.082 Cl
ATOM     17  C   LIG    1      -32.621  74.657  29.019  0.00  0.00    +0.023 A 
ATOM     18  C   LIG    1      -33.388  75.695  28.486  0.00  0.00    +0.025 A 
ENDBRANCH  11  12
ENDBRANCH   9  11
ENDBRANCH   3   7
BRANCH   1  19
ATOM     19  C   LIG    1      -39.379  71.465  24.176  0.00  0.00    +0.197 C 
ATOM     20  O   LIG    1      -40.450  70.993  23.784  0.00  0.00    -0.287 OA
BRANCH  19  28
ATOM     21  N   LIG    1      -36.505  69.557  25.410  0.00  0.00    -0.329 N 
ATOM     22  C   LIG    1      -36.557  69.083  24.122  0.00  0.00    +0.145 A 
ATOM     23  N   LIG    1      -35.727  68.171  23.586  0.00  0.00    -0.218 NA
ATOM     24  C   LIG    1      -36.046  67.891  22.310  0.00  0.00    +0.223 A 
ATOM     25  N   LIG    1      -37.051  68.404  21.576  0.00  0.00    -0.243 NA
ATOM     26  C   LIG    1      -37.861  69.316  22.164  0.00  0.00    +0.124 A 
ATOM     27  C   LIG    1      -37.628  69.699  23.485  0.00  0.00    +0.048 A 
ATOM     28  C   LIG    1      -38.220  70.613  24.412  0.00  0.00    +0.051 A 
ATOM     29  C   LIG    1      -37.494  70.497  25.588  0.00  0.00    +0.100 A 
BRANCH  21  31
ATOM     30  C   LIG    1      -34.228  69.811  26.355  0.00  0.00    +0.030 C 
ATOM     31  C   LIG    1      -35.577  69.096  26.441  0.00  0.00    +0.083 C 
ATOM     32  C   LIG    1      -36.189  69.231  27.837  0.00  0.00    +0.030 C 
ENDBRANCH  21  31
ENDBRANCH  19  28
ENDBRANCH   1  19
TORSDOF 6
ENDMDL
MODEL 8
REMARK VINA RESULT:      -5.9     16.501     20.465
REMARK  Name = pdb/CHEMBL3661492.pdb
REMARK                            x       y       z     vdW  Elec       q    Type
REMARK                         _______ _______ _______ _____ _____    ______ ____
ROOT
ATOM      1  C   LIG    1      -40.113  70.479  23.162  0.00  0.00    +0.042 A 
ATOM      2  C   LIG    1      -38.823  70.013  23.439  0.00  0.00    +0.038 A 
ATOM      3  C   LIG    1      -38.170  69.169  22.535  0.00  0.00    +0.052 A 
ATOM      4  C   LIG    1      -38.854  68.838  21.368  0.00  0.00    +0.134 A 
ATOM      5  N   LIG    1      -40.109  69.267  21.073  0.00  0.00    -0.261 NA
ATOM      6  C   LIG    1      -40.717  70.063  21.984  0.00  0.00    +0.122 A 
ENDROOT
BRANCH   3   7
ATOM      7  N   LIG    1      -36.882  68.709  22.887  0.00  0.00    -0.284 N 
ATOM      8  H   LIG    1      -36.147  69.407  22.952  0.00  0.00    +0.155 HD
ATOM      9  C   LIG    1      -36.531  67.414  23.237  0.00  0.00    +0.223 C 
ATOM     10  O   LIG    1      -37.298  66.460  23.296  0.00  0.00    -0.275 OA
BRANCH   9  11
ATOM     11  C   LIG    1      -35.053  67.243  23.517  0.00  0.00    +0.151 C 
BRANCH  11  12
ATOM     12  C   LIG    1      -34.628  67.886  24.808  0.00  0.00    +0.050 A 
ATOM     13  N   LIG    1      -34.480  69.237  24.804  0.00  0.00    -0.258 NA
ATOM     14  C   LIG    1      -34.077  69.816  25.967  0.00  0.00    +0.131 A 
ATOM     15  C   LIG    1      -33.818  69.115  27.134  0.00  0.00    +0.059 A 
ATOM     16 CL   LIG    1      -33.329  69.926  28.565  0.00  0.00    -0.082 Cl
ATOM     17  C   LIG    1      -33.971  67.736  27.119  0.00  0.00    +0.023 A 
ATOM     18  C   LIG    1      -34.386  67.110  25.942  0.00  0.00    +0.025 A 
ENDBRANCH  11  12
ENDBRANCH   9  11
ENDBRANCH   3   7
BRANCH   1  19
ATOM     19  C   LIG    1      -40.882  71.323  24.104  0.00  0.00    +0.197 C 
ATOM     20  O   LIG    1      -41.586  70.768  24.953  0.00  0.00    -0.287 OA
BRANCH  19  28
ATOM     21  N   LIG    1      -40.022  74.882  24.227  0.00  0.00    -0.329 N 
ATOM     22  C   LIG    1      -41.226  74.962  23.573  0.00  0.00    +0.145 A 
ATOM     23  N   LIG    1      -41.816  76.092  23.146  0.00  0.00    -0.218 NA
ATOM     24  C   LIG    1      -42.978  75.844  22.516  0.00  0.00    +0.223 A 
ATOM     25  N   LIG    1      -43.561  74.651  22.290  0.00  0.00    -0.243 NA
ATOM     26  C   LIG    1      -42.924  73.544  22.736  0.00  0.00    +0.124 A 
ATOM     27  C   LIG    1      -41.711  73.668  23.415  0.00  0.00    +0.048 A 
ATOM     28  C   LIG    1      -40.783  72.776  24.037  0.00  0.00    +0.051 A 
ATOM     29  C   LIG    1      -39.755  73.567  24.530  0.00  0.00    +0.100 A 
BRANCH  21  31
ATOM     30  C   LIG    1      -39.704  76.913  25.611  0.00  0.00    +0.030 C 
ATOM     31  C   LIG    1      -39.140  76.014  24.511  0.00  0.00    +0.083 C 
ATOM     32  C   LIG    1      -37.725  75.542  24.849  0.00  0.00    +0.030 C 
ENDBRANCH  21  31
ENDBRANCH  19  28
ENDBRANCH   1  19
TORSDOF 6
ENDMDL
MODEL 9
REMARK VINA RESULT:      -5.9     19.039     20.900
REMARK  Name = pdb/CHEMBL3661492.pdb
REMARK                            x       y       z     vdW  Elec       q    Type
REMARK                         _______ _______ _______ _____ _____    ______ ____
ROOT
ATOM      1  C   LIG    1      -35.885  66.703  21.055  0.00  0.00    +0.042 A 
ATOM      2  C   LIG    1      -36.078  67.680  22.038  0.00  0.00    +0.038 A 
ATOM      3  C   LIG    1      -36.953  68.746  21.808  0.00  0.00    +0.052 A 
ATOM      4  C   LIG    1      -37.614  68.772  20.582  0.00  0.00    +0.134 A 
ATOM      5  N   LIG    1      -37.442  67.843  19.605  0.00  0.00    -0.261 NA
ATOM      6  C   LIG    1      -36.569  66.839  19.856  0.00  0.00    +0.122 A 
ENDROOT
BRANCH   3   7
ATOM      7  N   LIG    1      -37.080  69.716  22.827  0.00  0.00    -0.284 N 
ATOM      8  H   LIG    1      -36.738  70.649  22.618  0.00  0.00    +0.155 HD
ATOM      9  C   LIG    1      -37.702  69.551  24.055  0.00  0.00    +0.223 C 
ATOM     10  O   LIG    1      -38.244  68.523  24.447  0.00  0.00    -0.275 OA
BRANCH   9  11
ATOM     11  C   LIG    1      -37.626  70.776  24.940  0.00  0.00    +0.151 C 
BRANCH  11  12
ATOM     12  C   LIG    1      -38.632  71.829  24.562  0.00  0.00    +0.050 A 
ATOM     13  N   LIG    1      -39.767  71.404  23.948  0.00  0.00    -0.258 NA
ATOM     14  C   LIG    1      -40.668  72.357  23.588  0.00  0.00    +0.131 A 
ATOM     15  C   LIG    1      -40.493  73.714  23.813  0.00  0.00    +0.059 A 
ATOM     16 CL   LIG    1      -41.687  74.852  23.342  0.00  0.00    -0.082 Cl
ATOM     17  C   LIG    1      -39.325  74.131  24.437  0.00  0.00    +0.023 A 
ATOM     18  C   LIG    1      -38.382  73.177  24.822  0.00  0.00    +0.025 A 
ENDBRANCH  11  12
ENDBRANCH   9  11
ENDBRANCH   3   7
BRANCH   1  19
ATOM     19  C   LIG    1      -34.927  65.584  21.212  0.00  0.00    +0.197 C 
ATOM     20  O   LIG    1      -35.114  64.772  22.123  0.00  0.00    -0.287 OA
BRANCH  19  28
ATOM     21  N   LIG    1      -31.918  65.838  19.140  0.00  0.00    -0.329 N 
ATOM     22  C   LIG    1      -32.337  64.582  18.778  0.00  0.00    +0.145 A 
ATOM     23  N   LIG    1      -31.724  63.771  17.898  0.00  0.00    -0.218 NA
ATOM     24  C   LIG    1      -32.361  62.593  17.774  0.00  0.00    +0.223 A 
ATOM     25  N   LIG    1      -33.477  62.183  18.407  0.00  0.00    -0.243 NA
ATOM     26  C   LIG    1      -34.053  63.036  19.285  0.00  0.00    +0.124 A 
ATOM     27  C   LIG    1      -33.492  64.296  19.497  0.00  0.00    +0.048 A 
ATOM     28  C   LIG    1      -33.806  65.442  20.292  0.00  0.00    +0.051 A 
ATOM     29  C   LIG    1      -32.810  66.375  20.039  0.00  0.00    +0.100 A 
BRANCH  21  31
ATOM     30  C   LIG    1      -30.843  67.999  18.574  0.00  0.00    +0.030 C 
ATOM     31  C   LIG    1      -30.688  66.482  18.677  0.00  0.00    +0.083 C 
ATOM     32  C   LIG    1      -29.499  66.104  19.563  0.00  0.00    +0.030 C 
ENDBRANCH  21  31
ENDBRANCH  19  28
ENDBRANCH   1  19
TORSDOF 6
ENDMDL
