MODEL 1
REMARK VINA RESULT:      -6.6      0.000      0.000
REMARK  Name = pdb/CHEMBL3967794.pdb
REMARK                            x       y       z     vdW  Elec       q    Type
REMARK                         _______ _______ _______ _____ _____    ______ ____
ROOT
ATOM      1  C   LIG    1      -36.891  66.970  19.782  0.00  0.00    +0.323 A 
ATOM      2  N   LIG    1      -36.886  68.311  19.733  0.00  0.00    -0.201 NA
ATOM      3  C   LIG    1      -37.668  68.978  20.609  0.00  0.00    +0.145 A 
ATOM      4  C   LIG    1      -38.471  68.377  21.548  0.00  0.00    +0.105 A 
ATOM      5  C   LIG    1      -38.374  66.991  21.519  0.00  0.00    +0.145 A 
ATOM      6  N   LIG    1      -37.615  66.258  20.655  0.00  0.00    -0.201 NA
ENDROOT
BRANCH   4   7
ATOM      7  N   LIG    1      -39.210  69.158  22.464  0.00  0.00    -0.196 NA
ATOM      8  C   LIG    1      -40.334  69.712  22.138  0.00  0.00    +0.285 C 
BRANCH   8   9
ATOM      9  N   LIG    1      -41.189  70.447  22.912  0.00  0.00    -0.267 N 
ATOM     10  H   LIG    1      -41.991  69.998  23.351  0.00  0.00    +0.157 HD
BRANCH   9  11
ATOM     11  C   LIG    1      -41.203  71.839  23.141  0.00  0.00    +0.061 A 
ATOM     12  C   LIG    1      -42.299  72.665  22.779  0.00  0.00    +0.087 A 
ATOM     13  C   LIG    1      -42.245  74.052  23.020  0.00  0.00    +0.030 A 
ATOM     14  C   LIG    1      -41.138  74.620  23.648  0.00  0.00    +0.014 A 
ATOM     15  C   LIG    1      -40.074  73.816  24.068  0.00  0.00    +0.057 A 
ATOM     16  C   LIG    1      -40.120  72.439  23.805  0.00  0.00    +0.037 A 
BRANCH  12  17
ATOM     17  N   LIG    1      -43.483  72.141  22.177  0.00  0.00    -0.237 N 
ATOM     18  N   LIG    1      -43.426  71.291  21.108  0.00  0.00    -0.173 NA
ATOM     19  C   LIG    1      -44.711  71.056  20.813  0.00  0.00    +0.154 A 
ATOM     20  C   LIG    1      -45.597  71.697  21.689  0.00  0.00    +0.079 A 
ATOM     21 CL   LIG    1      -47.285  71.595  21.684  0.00  0.00    -0.080 Cl
ATOM     22  C   LIG    1      -44.791  72.413  22.536  0.00  0.00    +0.134 A 
ENDBRANCH  12  17
BRANCH  15  23
ATOM     23  C   LIG    1      -38.901  74.417  24.804  0.00  0.00    +0.417 C 
ATOM     24  F   LIG    1      -39.121  74.495  26.146  0.00  0.00    -0.166 F 
ATOM     25  F   LIG    1      -38.623  75.686  24.395  0.00  0.00    -0.166 F 
ATOM     26  F   LIG    1      -37.743  73.716  24.655  0.00  0.00    -0.166 F 
ENDBRANCH  15  23
ENDBRANCH   9  11
ENDBRANCH   8   9
BRANCH   8  27
ATOM     27  O   LIG    1      -40.797  69.589  20.884  0.00  0.00    -0.481 OA
ATOM     28  H   LIG    1      -41.371  70.347  20.640  0.00  0.00    +0.295 HD
ENDBRANCH   8  27
ENDBRANCH   4   7
BRANCH   1  29
ATOM     29  O   LIG    1      -36.042  66.244  18.940  0.00  0.00    -0.424 OA
BRANCH  29  33
ATOM     30  C   LIG    1      -32.014  67.538  18.629  0.00  0.00    -0.014 A 
ATOM     31  C   LIG    1      -32.516  66.867  19.763  0.00  0.00    +0.012 A 
ATOM     32  C   LIG    1      -33.852  66.423  19.842  0.00  0.00    +0.047 A 
ATOM     33  C   LIG    1      -34.738  66.669  18.795  0.00  0.00    +0.132 A 
ATOM     34  C   LIG    1      -34.243  67.281  17.647  0.00  0.00    +0.047 A 
ATOM     35  C   LIG    1      -32.919  67.715  17.571  0.00  0.00    +0.012 A 
BRANCH  30  37
ATOM     36  C   LIG    1      -29.462  67.281  18.383  0.00  0.00    +0.124 A 
ATOM     37  C   LIG    1      -30.622  68.070  18.523  0.00  0.00    +0.023 A 
ATOM     38  C   LIG    1      -30.400  69.467  18.562  0.00  0.00    +0.033 A 
ATOM     39  C   LIG    1      -29.120  70.001  18.457  0.00  0.00    +0.060 A 
ATOM     40 CL   LIG    1      -28.867  71.698  18.479  0.00  0.00    -0.082 Cl
ATOM     41  C   LIG    1      -28.064  69.127  18.331  0.00  0.00    +0.133 A 
ATOM     42  N   LIG    1      -28.209  67.784  18.300  0.00  0.00    -0.239 NA
BRANCH  36  43
ATOM     43  N   LIG    1      -29.481  65.893  18.292  0.00  0.00    -0.343 N 
ATOM     44  H   LIG    1      -30.418  65.540  18.455  0.00  0.00    +0.144 HD
ATOM     45  H   LIG    1      -29.161  65.672  17.352  0.00  0.00    +0.144 HD
ENDBRANCH  36  43
ENDBRANCH  30  37
ENDBRANCH  29  33
ENDBRANCH   1  29
TORSDOF 10
ENDMDL
MODEL 2
REMARK VINA RESULT:      -6.5     19.095     21.846
REMARK  Name = pdb/CHEMBL3967794.pdb
REMARK                            x       y       z     vdW  Elec       q    Type
REMARK                         _______ _______ _______ _____ _____    ______ ____
ROOT
ATOM      1  C   LIG    1      -26.198  81.551  37.072  0.00  0.00    +0.323 A 
ATOM      2  N   LIG    1      -27.521  81.347  37.157  0.00  0.00    -0.201 NA
ATOM      3  C   LIG    1      -28.336  82.414  37.008  0.00  0.00    +0.145 A 
ATOM      4  C   LIG    1      -27.901  83.697  36.775  0.00  0.00    +0.105 A 
ATOM      5  C   LIG    1      -26.517  83.779  36.683  0.00  0.00    +0.145 A 
ATOM      6  N   LIG    1      -25.640  82.746  36.835  0.00  0.00    -0.201 NA
ENDROOT
BRANCH   4   7
ATOM      7  N   LIG    1      -28.830  84.741  36.571  0.00  0.00    -0.196 NA
ATOM      8  C   LIG    1      -29.143  85.154  35.385  0.00  0.00    +0.285 C 
BRANCH   8   9
ATOM      9  N   LIG    1      -30.052  86.107  35.017  0.00  0.00    -0.267 N 
ATOM     10  H   LIG    1      -30.814  86.355  35.647  0.00  0.00    +0.157 HD
BRANCH   9  11
ATOM     11  C   LIG    1      -30.179  86.782  33.784  0.00  0.00    +0.061 A 
ATOM     12  C   LIG    1      -29.406  87.926  33.453  0.00  0.00    +0.087 A 
ATOM     13  C   LIG    1      -29.592  88.565  32.211  0.00  0.00    +0.030 A 
ATOM     14  C   LIG    1      -30.504  88.062  31.284  0.00  0.00    +0.014 A 
ATOM     15  C   LIG    1      -31.231  86.902  31.565  0.00  0.00    +0.057 A 
ATOM     16  C   LIG    1      -31.061  86.282  32.812  0.00  0.00    +0.037 A 
BRANCH  12  17
ATOM     17  N   LIG    1      -28.421  88.463  34.335  0.00  0.00    -0.237 N 
ATOM     18  N   LIG    1      -27.376  87.706  34.787  0.00  0.00    -0.173 NA
ATOM     19  C   LIG    1      -26.708  88.532  35.603  0.00  0.00    +0.154 A 
ATOM     20  C   LIG    1      -27.268  89.815  35.657  0.00  0.00    +0.079 A 
ATOM     21 CL   LIG    1      -26.680  91.146  36.518  0.00  0.00    -0.080 Cl
ATOM     22  C   LIG    1      -28.384  89.741  34.863  0.00  0.00    +0.134 A 
ENDBRANCH  12  17
BRANCH  15  23
ATOM     23  C   LIG    1      -32.173  86.319  30.541  0.00  0.00    +0.417 C 
ATOM     24  F   LIG    1      -32.796  87.282  29.807  0.00  0.00    -0.166 F 
ATOM     25  F   LIG    1      -33.166  85.578  31.107  0.00  0.00    -0.166 F 
ATOM     26  F   LIG    1      -31.564  85.498  29.641  0.00  0.00    -0.166 F 
ENDBRANCH  15  23
ENDBRANCH   9  11
ENDBRANCH   8   9
BRANCH   8  27
ATOM     27  O   LIG    1      -28.540  84.617  34.312  0.00  0.00    -0.481 OA
ATOM     28  H   LIG    1      -28.775  83.669  34.209  0.00  0.00    +0.295 HD
ENDBRANCH   8  27
ENDBRANCH   4   7
BRANCH   1  29
ATOM     29  O   LIG    1      -25.324  80.461  37.150  0.00  0.00    -0.424 OA
BRANCH  29  33
ATOM     30  C   LIG    1      -24.269  78.493  33.543  0.00  0.00    -0.014 A 
ATOM     31  C   LIG    1      -23.542  79.584  34.059  0.00  0.00    +0.012 A 
ATOM     32  C   LIG    1      -23.891  80.214  35.271  0.00  0.00    +0.047 A 
ATOM     33  C   LIG    1      -25.006  79.787  35.989  0.00  0.00    +0.132 A 
ATOM     34  C   LIG    1      -25.703  78.676  35.520  0.00  0.00    +0.047 A 
ATOM     35  C   LIG    1      -25.351  78.053  34.323  0.00  0.00    +0.012 A 
BRANCH  30  37
ATOM     36  C   LIG    1      -24.932  77.368  31.321  0.00  0.00    +0.124 A 
ATOM     37  C   LIG    1      -23.966  77.829  32.239  0.00  0.00    +0.023 A 
ATOM     38  C   LIG    1      -22.620  77.624  31.852  0.00  0.00    +0.033 A 
ATOM     39  C   LIG    1      -22.299  77.019  30.642  0.00  0.00    +0.060 A 
ATOM     40 CL   LIG    1      -20.662  76.800  30.174  0.00  0.00    -0.082 Cl
ATOM     41  C   LIG    1      -23.331  76.604  29.832  0.00  0.00    +0.133 A 
ATOM     42  N   LIG    1      -24.635  76.760  30.150  0.00  0.00    -0.239 NA
BRANCH  36  43
ATOM     43  N   LIG    1      -26.304  77.510  31.510  0.00  0.00    -0.343 N 
ATOM     44  H   LIG    1      -26.732  76.608  31.688  0.00  0.00    +0.144 HD
ATOM     45  H   LIG    1      -26.411  78.133  32.307  0.00  0.00    +0.144 HD
ENDBRANCH  36  43
ENDBRANCH  30  37
ENDBRANCH  29  33
ENDBRANCH   1  29
TORSDOF 10
ENDMDL
MODEL 3
REMARK VINA RESULT:      -6.5     15.556     20.449
REMARK  Name = pdb/CHEMBL3967794.pdb
REMARK                            x       y       z     vdW  Elec       q    Type
REMARK                         _______ _______ _______ _____ _____    ______ ____
ROOT
ATOM      1  C   LIG    1      -25.725  77.708  14.010  0.00  0.00    +0.323 A 
ATOM      2  N   LIG    1      -24.631  78.140  13.363  0.00  0.00    -0.201 NA
ATOM      3  C   LIG    1      -23.948  79.175  13.898  0.00  0.00    +0.145 A 
ATOM      4  C   LIG    1      -24.298  79.819  15.061  0.00  0.00    +0.105 A 
ATOM      5  C   LIG    1      -25.429  79.269  15.652  0.00  0.00    +0.145 A 
ATOM      6  N   LIG    1      -26.169  78.235  15.159  0.00  0.00    -0.201 NA
ENDROOT
BRANCH   4   7
ATOM      7  N   LIG    1      -23.488  80.854  15.576  0.00  0.00    -0.196 NA
ATOM      8  C   LIG    1      -23.623  82.084  15.191  0.00  0.00    +0.285 C 
BRANCH   8   9
ATOM      9  N   LIG    1      -22.964  83.200  15.625  0.00  0.00    -0.267 N 
ATOM     10  H   LIG    1      -23.099  83.534  16.578  0.00  0.00    +0.157 HD
BRANCH   9  11
ATOM     11  C   LIG    1      -22.145  84.087  14.893  0.00  0.00    +0.061 A 
ATOM     12  C   LIG    1      -21.007  83.654  14.163  0.00  0.00    +0.087 A 
ATOM     13  C   LIG    1      -20.221  84.592  13.465  0.00  0.00    +0.030 A 
ATOM     14  C   LIG    1      -20.571  85.942  13.452  0.00  0.00    +0.014 A 
ATOM     15  C   LIG    1      -21.722  86.380  14.114  0.00  0.00    +0.057 A 
ATOM     16  C   LIG    1      -22.489  85.447  14.827  0.00  0.00    +0.037 A 
BRANCH  12  17
ATOM     17  N   LIG    1      -20.621  82.282  14.094  0.00  0.00    -0.237 N 
ATOM     18  N   LIG    1      -20.040  81.648  15.158  0.00  0.00    -0.173 NA
ATOM     19  C   LIG    1      -19.795  80.413  14.703  0.00  0.00    +0.154 A 
ATOM     20  C   LIG    1      -20.240  80.218  13.388  0.00  0.00    +0.079 A 
ATOM     21 CL   LIG    1      -20.170  78.785  12.493  0.00  0.00    -0.080 Cl
ATOM     22  C   LIG    1      -20.737  81.436  13.005  0.00  0.00    +0.134 A 
ENDBRANCH  12  17
BRANCH  15  23
ATOM     23  C   LIG    1      -22.140  87.829  14.051  0.00  0.00    +0.417 C 
ATOM     24  F   LIG    1      -22.720  88.247  15.210  0.00  0.00    -0.166 F 
ATOM     25  F   LIG    1      -23.051  88.067  13.068  0.00  0.00    -0.166 F 
ATOM     26  F   LIG    1      -21.108  88.686  13.818  0.00  0.00    -0.166 F 
ENDBRANCH  15  23
ENDBRANCH   9  11
ENDBRANCH   8   9
BRANCH   8  27
ATOM     27  O   LIG    1      -24.522  82.388  14.241  0.00  0.00    -0.481 OA
ATOM     28  H   LIG    1      -25.329  82.789  14.629  0.00  0.00    +0.295 HD
ENDBRANCH   8  27
ENDBRANCH   4   7
BRANCH   1  29
ATOM     29  O   LIG    1      -26.419  76.594  13.528  0.00  0.00    -0.424 OA
BRANCH  29  33
ATOM     30  C   LIG    1      -29.862  77.362  11.172  0.00  0.00    -0.014 A 
ATOM     31  C   LIG    1      -28.995  78.381  11.615  0.00  0.00    +0.012 A 
ATOM     32  C   LIG    1      -27.842  78.109  12.379  0.00  0.00    +0.047 A 
ATOM     33  C   LIG    1      -27.539  76.801  12.751  0.00  0.00    +0.132 A 
ATOM     34  C   LIG    1      -28.355  75.777  12.275  0.00  0.00    +0.047 A 
ATOM     35  C   LIG    1      -29.493  76.052  11.516  0.00  0.00    +0.012 A 
BRANCH  30  37
ATOM     36  C   LIG    1      -32.201  78.395  10.856  0.00  0.00    +0.124 A 
ATOM     37  C   LIG    1      -31.120  77.610  10.405  0.00  0.00    +0.023 A 
ATOM     38  C   LIG    1      -31.288  77.033   9.124  0.00  0.00    +0.033 A 
ATOM     39  C   LIG    1      -32.440  77.248   8.377  0.00  0.00    +0.060 A 
ATOM     40 CL   LIG    1      -32.619  76.563   6.814  0.00  0.00    -0.082 Cl
ATOM     41  C   LIG    1      -33.431  78.029   8.928  0.00  0.00    +0.133 A 
ATOM     42  N   LIG    1      -33.337  78.598  10.150  0.00  0.00    -0.239 NA
BRANCH  36  43
ATOM     43  N   LIG    1      -32.209  79.069  12.074  0.00  0.00    -0.343 N 
ATOM     44  H   LIG    1      -32.520  80.027  11.946  0.00  0.00    +0.144 HD
ATOM     45  H   LIG    1      -32.846  78.551  12.674  0.00  0.00    +0.144 HD
ENDBRANCH  36  43
ENDBRANCH  30  37
ENDBRANCH  29  33
ENDBRANCH   1  29
TORSDOF 10
ENDMDL
MODEL 4
REMARK VINA RESULT:      -6.4     19.255     21.712
REMARK  Name = pdb/CHEMBL3967794.pdb
REMARK                            x       y       z     vdW  Elec       q    Type
REMARK                         _______ _______ _______ _____ _____    ______ ____
ROOT
ATOM      1  C   LIG    1      -26.027  81.404  37.022  0.00  0.00    +0.323 A 
ATOM      2  N   LIG    1      -27.355  81.288  37.176  0.00  0.00    -0.201 NA
ATOM      3  C   LIG    1      -28.102  82.410  37.089  0.00  0.00    +0.145 A 
ATOM      4  C   LIG    1      -27.594  83.665  36.853  0.00  0.00    +0.105 A 
ATOM      5  C   LIG    1      -26.214  83.656  36.686  0.00  0.00    +0.145 A 
ATOM      6  N   LIG    1      -25.403  82.563  36.773  0.00  0.00    -0.201 NA
ENDROOT
BRANCH   4   7
ATOM      7  N   LIG    1      -28.458  84.773  36.718  0.00  0.00    -0.196 NA
ATOM      8  C   LIG    1      -28.969  85.105  35.575  0.00  0.00    +0.285 C 
BRANCH   8   9
ATOM      9  N   LIG    1      -29.855  86.106  35.285  0.00  0.00    -0.267 N 
ATOM     10  H   LIG    1      -30.846  85.984  35.489  0.00  0.00    +0.157 HD
BRANCH   9  11
ATOM     11  C   LIG    1      -29.626  87.326  34.615  0.00  0.00    +0.061 A 
ATOM     12  C   LIG    1      -30.273  87.666  33.398  0.00  0.00    +0.087 A 
ATOM     13  C   LIG    1      -29.988  88.894  32.769  0.00  0.00    +0.030 A 
ATOM     14  C   LIG    1      -29.103  89.800  33.350  0.00  0.00    +0.014 A 
ATOM     15  C   LIG    1      -28.502  89.512  34.579  0.00  0.00    +0.057 A 
ATOM     16  C   LIG    1      -28.768  88.279  35.190  0.00  0.00    +0.037 A 
BRANCH  12  17
ATOM     17  N   LIG    1      -31.226  86.805  32.774  0.00  0.00    -0.237 N 
ATOM     18  N   LIG    1      -32.269  86.265  33.475  0.00  0.00    -0.173 NA
ATOM     19  C   LIG    1      -32.903  85.504  32.574  0.00  0.00    +0.154 A 
ATOM     20  C   LIG    1      -32.324  85.570  31.300  0.00  0.00    +0.079 A 
ATOM     21 CL   LIG    1      -32.870  84.807  29.894  0.00  0.00    -0.080 Cl
ATOM     22  C   LIG    1      -31.232  86.384  31.457  0.00  0.00    +0.134 A 
ENDBRANCH  12  17
BRANCH  15  23
ATOM     23  C   LIG    1      -27.591  90.516  35.243  0.00  0.00    +0.417 C 
ATOM     24  F   LIG    1      -27.236  91.524  34.399  0.00  0.00    -0.166 F 
ATOM     25  F   LIG    1      -26.426  89.959  35.673  0.00  0.00    -0.166 F 
ATOM     26  F   LIG    1      -28.142  91.117  36.334  0.00  0.00    -0.166 F 
ENDBRANCH  15  23
ENDBRANCH   9  11
ENDBRANCH   8   9
BRANCH   8  27
ATOM     27  O   LIG    1      -28.638  84.414  34.473  0.00  0.00    -0.481 OA
ATOM     28  H   LIG    1      -29.392  83.874  34.151  0.00  0.00    +0.295 HD
ENDBRANCH   8  27
ENDBRANCH   4   7
BRANCH   1  29
ATOM     29  O   LIG    1      -25.227  80.257  37.034  0.00  0.00    -0.424 OA
BRANCH  29  33
ATOM     30  C   LIG    1      -24.054  78.510  33.350  0.00  0.00    -0.014 A 
ATOM     31  C   LIG    1      -25.187  78.083  34.073  0.00  0.00    +0.012 A 
ATOM     32  C   LIG    1      -25.577  78.688  35.285  0.00  0.00    +0.047 A 
ATOM     33  C   LIG    1      -24.820  79.724  35.828  0.00  0.00    +0.132 A 
ATOM     34  C   LIG    1      -23.731  80.194  35.099  0.00  0.00    +0.047 A 
ATOM     35  C   LIG    1      -23.351  79.594  33.898  0.00  0.00    +0.012 A 
BRANCH  30  37
ATOM     36  C   LIG    1      -24.383  77.573  30.973  0.00  0.00    +0.124 A 
ATOM     37  C   LIG    1      -23.575  77.864  32.091  0.00  0.00    +0.023 A 
ATOM     38  C   LIG    1      -22.214  77.498  31.963  0.00  0.00    +0.033 A 
ATOM     39  C   LIG    1      -21.730  76.904  30.803  0.00  0.00    +0.060 A 
ATOM     40 CL   LIG    1      -20.071  76.488  30.652  0.00  0.00    -0.082 Cl
ATOM     41  C   LIG    1      -22.619  76.663  29.780  0.00  0.00    +0.133 A 
ATOM     42  N   LIG    1      -23.931  76.978  29.845  0.00  0.00    -0.239 NA
BRANCH  36  43
ATOM     43  N   LIG    1      -25.737  77.888  30.897  0.00  0.00    -0.343 N 
ATOM     44  H   LIG    1      -26.285  77.227  31.438  0.00  0.00    +0.144 HD
ATOM     45  H   LIG    1      -25.823  78.831  31.269  0.00  0.00    +0.144 HD
ENDBRANCH  36  43
ENDBRANCH  30  37
ENDBRANCH  29  33
ENDBRANCH   1  29
TORSDOF 10
ENDMDL
MODEL 5
REMARK VINA RESULT:      -6.4     18.676     21.998
REMARK  Name = pdb/CHEMBL3967794.pdb
REMARK                            x       y       z     vdW  Elec       q    Type
REMARK                         _______ _______ _______ _____ _____    ______ ____
ROOT
ATOM      1  C   LIG    1      -32.613  93.664  23.862  0.00  0.00    +0.323 A 
ATOM      2  N   LIG    1      -31.864  92.607  24.211  0.00  0.00    -0.201 NA
ATOM      3  C   LIG    1      -32.201  91.937  25.335  0.00  0.00    +0.145 A 
ATOM      4  C   LIG    1      -33.260  92.265  26.147  0.00  0.00    +0.105 A 
ATOM      5  C   LIG    1      -33.974  93.358  25.671  0.00  0.00    +0.145 A 
ATOM      6  N   LIG    1      -33.681  94.083  24.555  0.00  0.00    -0.201 NA
ENDROOT
BRANCH   4   7
ATOM      7  N   LIG    1      -33.573  91.469  27.271  0.00  0.00    -0.196 NA
ATOM      8  C   LIG    1      -34.345  90.433  27.180  0.00  0.00    +0.285 C 
BRANCH   8   9
ATOM      9  N   LIG    1      -34.701  89.536  28.149  0.00  0.00    -0.267 N 
ATOM     10  H   LIG    1      -35.547  89.687  28.696  0.00  0.00    +0.157 HD
BRANCH   9  11
ATOM     11  C   LIG    1      -33.993  88.409  28.618  0.00  0.00    +0.061 A 
ATOM     12  C   LIG    1      -34.408  87.078  28.354  0.00  0.00    +0.087 A 
ATOM     13  C   LIG    1      -33.666  85.995  28.866  0.00  0.00    +0.030 A 
ATOM     14  C   LIG    1      -32.502  86.217  29.599  0.00  0.00    +0.014 A 
ATOM     15  C   LIG    1      -32.041  87.518  29.819  0.00  0.00    +0.057 A 
ATOM     16  C   LIG    1      -32.795  88.595  29.329  0.00  0.00    +0.037 A 
BRANCH  12  17
ATOM     17  N   LIG    1      -35.563  86.780  27.570  0.00  0.00    -0.237 N 
ATOM     18  N   LIG    1      -36.737  87.461  27.738  0.00  0.00    -0.173 NA
ATOM     19  C   LIG    1      -37.574  86.881  26.867  0.00  0.00    +0.154 A 
ATOM     20  C   LIG    1      -36.961  85.873  26.112  0.00  0.00    +0.079 A 
ATOM     21 CL   LIG    1      -37.664  84.959  24.875  0.00  0.00    -0.080 Cl
ATOM     22  C   LIG    1      -35.682  85.802  26.599  0.00  0.00    +0.134 A 
ENDBRANCH  12  17
BRANCH  15  23
ATOM     23  C   LIG    1      -30.749  87.762  30.559  0.00  0.00    +0.417 C 
ATOM     24  F   LIG    1      -30.814  88.861  31.359  0.00  0.00    -0.166 F 
ATOM     25  F   LIG    1      -29.698  87.971  29.718  0.00  0.00    -0.166 F 
ATOM     26  F   LIG    1      -30.378  86.731  31.367  0.00  0.00    -0.166 F 
ENDBRANCH  15  23
ENDBRANCH   9  11
ENDBRANCH   8   9
BRANCH   8  27
ATOM     27  O   LIG    1      -34.907  90.124  26.001  0.00  0.00    -0.481 OA
ATOM     28  H   LIG    1      -35.156  90.931  25.502  0.00  0.00    +0.295 HD
ENDBRANCH   8  27
ENDBRANCH   4   7
BRANCH   1  29
ATOM     29  O   LIG    1      -32.341  94.341  22.669  0.00  0.00    -0.424 OA
BRANCH  29  33
ATOM     30  C   LIG    1      -33.157  92.283  19.050  0.00  0.00    -0.014 A 
ATOM     31  C   LIG    1      -34.135  92.504  20.041  0.00  0.00    +0.012 A 
ATOM     32  C   LIG    1      -33.854  93.210  21.229  0.00  0.00    +0.047 A 
ATOM     33  C   LIG    1      -32.570  93.688  21.475  0.00  0.00    +0.132 A 
ATOM     34  C   LIG    1      -31.607  93.525  20.482  0.00  0.00    +0.047 A 
ATOM     35  C   LIG    1      -31.890  92.830  19.306  0.00  0.00    +0.012 A 
BRANCH  30  37
ATOM     36  C   LIG    1      -33.739  90.131  17.758  0.00  0.00    +0.124 A 
ATOM     37  C   LIG    1      -33.396  91.498  17.801  0.00  0.00    +0.023 A 
ATOM     38  C   LIG    1      -33.281  92.131  16.541  0.00  0.00    +0.033 A 
ATOM     39  C   LIG    1      -33.505  91.436  15.358  0.00  0.00    +0.060 A 
ATOM     40 CL   LIG    1      -33.387  92.222  13.837  0.00  0.00    -0.082 Cl
ATOM     41  C   LIG    1      -33.827  90.100  15.444  0.00  0.00    +0.133 A 
ATOM     42  N   LIG    1      -33.941  89.436  16.615  0.00  0.00    -0.239 NA
BRANCH  36  43
ATOM     43  N   LIG    1      -33.930  89.348  18.892  0.00  0.00    -0.343 N 
ATOM     44  H   LIG    1      -34.456  89.862  19.592  0.00  0.00    +0.144 HD
ATOM     45  H   LIG    1      -34.440  88.525  18.579  0.00  0.00    +0.144 HD
ENDBRANCH  36  43
ENDBRANCH  30  37
ENDBRANCH  29  33
ENDBRANCH   1  29
TORSDOF 10
ENDMDL
MODEL 6
REMARK VINA RESULT:      -6.4     17.122     19.606
REMARK  Name = pdb/CHEMBL3967794.pdb
REMARK                            x       y       z     vdW  Elec       q    Type
REMARK                         _______ _______ _______ _____ _____    ______ ____
ROOT
ATOM      1  C   LIG    1      -23.054  77.111  31.605  0.00  0.00    +0.323 A 
ATOM      2  N   LIG    1      -23.870  77.784  30.780  0.00  0.00    -0.201 NA
ATOM      3  C   LIG    1      -25.157  77.384  30.699  0.00  0.00    +0.145 A 
ATOM      4  C   LIG    1      -25.690  76.332  31.406  0.00  0.00    +0.105 A 
ATOM      5  C   LIG    1      -24.758  75.730  32.243  0.00  0.00    +0.145 A 
ATOM      6  N   LIG    1      -23.445  76.077  32.362  0.00  0.00    -0.201 NA
ENDROOT
BRANCH   4   7
ATOM      7  N   LIG    1      -27.064  76.023  31.303  0.00  0.00    -0.196 NA
ATOM      8  C   LIG    1      -27.946  76.569  32.078  0.00  0.00    +0.285 C 
BRANCH   8   9
ATOM      9  N   LIG    1      -29.305  76.421  32.074  0.00  0.00    -0.267 N 
ATOM     10  H   LIG    1      -29.865  76.833  32.820  0.00  0.00    +0.157 HD
BRANCH   9  11
ATOM     11  C   LIG    1      -30.112  75.657  31.204  0.00  0.00    +0.061 A 
ATOM     12  C   LIG    1      -30.191  74.241  31.277  0.00  0.00    +0.087 A 
ATOM     13  C   LIG    1      -31.003  73.535  30.367  0.00  0.00    +0.030 A 
ATOM     14  C   LIG    1      -31.763  74.216  29.417  0.00  0.00    +0.014 A 
ATOM     15  C   LIG    1      -31.747  75.613  29.369  0.00  0.00    +0.057 A 
ATOM     16  C   LIG    1      -30.919  76.312  30.259  0.00  0.00    +0.037 A 
BRANCH  12  17
ATOM     17  N   LIG    1      -29.478  73.486  32.256  0.00  0.00    -0.237 N 
ATOM     18  N   LIG    1      -29.696  73.663  33.594  0.00  0.00    -0.173 NA
ATOM     19  C   LIG    1      -28.832  72.821  34.175  0.00  0.00    +0.154 A 
ATOM     20  C   LIG    1      -28.090  72.075  33.249  0.00  0.00    +0.079 A 
ATOM     21 CL   LIG    1      -26.952  70.872  33.590  0.00  0.00    -0.080 Cl
ATOM     22  C   LIG    1      -28.496  72.539  32.025  0.00  0.00    +0.134 A 
ENDBRANCH  12  17
BRANCH  15  23
ATOM     23  C   LIG    1      -32.615  76.358  28.384  0.00  0.00    +0.417 C 
ATOM     24  F   LIG    1      -33.503  77.183  29.003  0.00  0.00    -0.166 F 
ATOM     25  F   LIG    1      -33.358  75.522  27.607  0.00  0.00    -0.166 F 
ATOM     26  F   LIG    1      -31.913  77.142  27.520  0.00  0.00    -0.166 F 
ENDBRANCH  15  23
ENDBRANCH   9  11
ENDBRANCH   8   9
BRANCH   8  27
ATOM     27  O   LIG    1      -27.552  77.416  33.042  0.00  0.00    -0.481 OA
ATOM     28  H   LIG    1      -27.286  76.933  33.854  0.00  0.00    +0.295 HD
ENDBRANCH   8  27
ENDBRANCH   4   7
BRANCH   1  29
ATOM     29  O   LIG    1      -21.732  77.538  31.771  0.00  0.00    -0.424 OA
BRANCH  29  33
ATOM     30  C   LIG    1      -20.922  79.987  35.139  0.00  0.00    -0.014 A 
ATOM     31  C   LIG    1      -22.213  79.515  34.830  0.00  0.00    +0.012 A 
ATOM     32  C   LIG    1      -22.464  78.684  33.720  0.00  0.00    +0.047 A 
ATOM     33  C   LIG    1      -21.426  78.324  32.862  0.00  0.00    +0.132 A 
ATOM     34  C   LIG    1      -20.136  78.737  33.185  0.00  0.00    +0.047 A 
ATOM     35  C   LIG    1      -19.892  79.557  34.288  0.00  0.00    +0.012 A 
BRANCH  30  37
ATOM     36  C   LIG    1      -21.251  82.151  36.499  0.00  0.00    +0.124 A 
ATOM     37  C   LIG    1      -20.619  80.910  36.275  0.00  0.00    +0.023 A 
ATOM     38  C   LIG    1      -19.630  80.557  37.223  0.00  0.00    +0.033 A 
ATOM     39  C   LIG    1      -19.328  81.386  38.297  0.00  0.00    +0.060 A 
ATOM     40 CL   LIG    1      -18.144  80.933  39.455  0.00  0.00    -0.082 Cl
ATOM     41  C   LIG    1      -20.008  82.577  38.406  0.00  0.00    +0.133 A 
ATOM     42  N   LIG    1      -20.954  82.977  37.528  0.00  0.00    -0.239 NA
BRANCH  36  43
ATOM     43  N   LIG    1      -22.270  82.653  35.695  0.00  0.00    -0.343 N 
ATOM     44  H   LIG    1      -21.885  83.226  34.952  0.00  0.00    +0.144 HD
ATOM     45  H   LIG    1      -22.754  81.841  35.322  0.00  0.00    +0.144 HD
ENDBRANCH  36  43
ENDBRANCH  30  37
ENDBRANCH  29  33
ENDBRANCH   1  29
TORSDOF 10
ENDMDL
MODEL 7
REMARK VINA RESULT:      -6.3     19.040     21.804
REMARK  Name = pdb/CHEMBL3967794.pdb
REMARK                            x       y       z     vdW  Elec       q    Type
REMARK                         _______ _______ _______ _____ _____    ______ ____
ROOT
ATOM      1  C   LIG    1      -26.184  82.765  37.223  0.00  0.00    +0.323 A 
ATOM      2  N   LIG    1      -27.424  82.347  37.522  0.00  0.00    -0.201 NA
ATOM      3  C   LIG    1      -28.461  83.127  37.148  0.00  0.00    +0.145 A 
ATOM      4  C   LIG    1      -28.334  84.322  36.481  0.00  0.00    +0.105 A 
ATOM      5  C   LIG    1      -27.008  84.636  36.205  0.00  0.00    +0.145 A 
ATOM      6  N   LIG    1      -25.918  83.901  36.564  0.00  0.00    -0.201 NA
ENDROOT
BRANCH   4   7
ATOM      7  N   LIG    1      -29.479  85.041  36.076  0.00  0.00    -0.196 NA
ATOM      8  C   LIG    1      -29.943  84.964  34.869  0.00  0.00    +0.285 C 
BRANCH   8   9
ATOM      9  N   LIG    1      -31.059  85.547  34.335  0.00  0.00    -0.267 N 
ATOM     10  H   LIG    1      -31.943  85.513  34.841  0.00  0.00    +0.157 HD
BRANCH   9  11
ATOM     11  C   LIG    1      -31.227  86.145  33.068  0.00  0.00    +0.061 A 
ATOM     12  C   LIG    1      -30.530  87.318  32.675  0.00  0.00    +0.087 A 
ATOM     13  C   LIG    1      -30.755  87.875  31.401  0.00  0.00    +0.030 A 
ATOM     14  C   LIG    1      -31.630  87.264  30.503  0.00  0.00    +0.014 A 
ATOM     15  C   LIG    1      -32.280  86.075  30.848  0.00  0.00    +0.057 A 
ATOM     16  C   LIG    1      -32.072  85.536  32.126  0.00  0.00    +0.037 A 
BRANCH  12  17
ATOM     17  N   LIG    1      -29.585  87.966  33.526  0.00  0.00    -0.237 N 
ATOM     18  N   LIG    1      -28.356  87.422  33.774  0.00  0.00    -0.173 NA
ATOM     19  C   LIG    1      -27.788  88.285  34.627  0.00  0.00    +0.154 A 
ATOM     20  C   LIG    1      -28.600  89.393  34.903  0.00  0.00    +0.079 A 
ATOM     21 CL   LIG    1      -28.213  90.721  35.875  0.00  0.00    -0.080 Cl
ATOM     22  C   LIG    1      -29.761  89.153  34.214  0.00  0.00    +0.134 A 
ENDBRANCH  12  17
BRANCH  15  23
ATOM     23  C   LIG    1      -33.179  85.376  29.857  0.00  0.00    +0.417 C 
ATOM     24  F   LIG    1      -34.466  85.815  29.933  0.00  0.00    -0.166 F 
ATOM     25  F   LIG    1      -33.229  84.030  30.058  0.00  0.00    -0.166 F 
ATOM     26  F   LIG    1      -32.801  85.546  28.560  0.00  0.00    -0.166 F 
ENDBRANCH  15  23
ENDBRANCH   9  11
ENDBRANCH   8   9
BRANCH   8  27
ATOM     27  O   LIG    1      -29.298  84.222  33.955  0.00  0.00    -0.481 OA
ATOM     28  H   LIG    1      -29.738  84.273  33.079  0.00  0.00    +0.295 HD
ENDBRANCH   8  27
ENDBRANCH   4   7
BRANCH   1  29
ATOM     29  O   LIG    1      -25.088  81.952  37.530  0.00  0.00    -0.424 OA
BRANCH  29  33
ATOM     30  C   LIG    1      -23.510  79.441  34.497  0.00  0.00    -0.014 A 
ATOM     31  C   LIG    1      -22.834  80.582  34.973  0.00  0.00    +0.012 A 
ATOM     32  C   LIG    1      -23.360  81.394  35.997  0.00  0.00    +0.047 A 
ATOM     33  C   LIG    1      -24.603  81.104  36.556  0.00  0.00    +0.132 A 
ATOM     34  C   LIG    1      -25.258  79.950  36.134  0.00  0.00    +0.047 A 
ATOM     35  C   LIG    1      -24.731  79.146  35.123  0.00  0.00    +0.012 A 
BRANCH  30  37
ATOM     36  C   LIG    1      -21.729  78.004  33.311  0.00  0.00    +0.124 A 
ATOM     37  C   LIG    1      -23.014  78.582  33.379  0.00  0.00    +0.023 A 
ATOM     38  C   LIG    1      -23.861  78.299  32.281  0.00  0.00    +0.033 A 
ATOM     39  C   LIG    1      -23.439  77.496  31.228  0.00  0.00    +0.060 A 
ATOM     40 CL   LIG    1      -24.486  77.140  29.915  0.00  0.00    -0.082 Cl
ATOM     41  C   LIG    1      -22.157  76.995  31.271  0.00  0.00    +0.133 A 
ATOM     42  N   LIG    1      -21.297  77.238  32.284  0.00  0.00    -0.239 NA
BRANCH  36  43
ATOM     43  N   LIG    1      -20.769  78.141  34.309  0.00  0.00    -0.343 N 
ATOM     44  H   LIG    1      -20.735  77.305  34.884  0.00  0.00    +0.144 HD
ATOM     45  H   LIG    1      -19.887  78.292  33.826  0.00  0.00    +0.144 HD
ENDBRANCH  36  43
ENDBRANCH  30  37
ENDBRANCH  29  33
ENDBRANCH   1  29
TORSDOF 10
ENDMDL
MODEL 8
REMARK VINA RESULT:      -6.3      8.250     11.976
REMARK  Name = pdb/CHEMBL3967794.pdb
REMARK                            x       y       z     vdW  Elec       q    Type
REMARK                         _______ _______ _______ _____ _____    ______ ____
ROOT
ATOM      1  C   LIG    1      -40.605  77.191  26.092  0.00  0.00    +0.323 A 
ATOM      2  N   LIG    1      -39.463  77.876  26.255  0.00  0.00    -0.201 NA
ATOM      3  C   LIG    1      -39.377  79.104  25.698  0.00  0.00    +0.145 A 
ATOM      4  C   LIG    1      -40.382  79.700  24.975  0.00  0.00    +0.105 A 
ATOM      5  C   LIG    1      -41.521  78.908  24.896  0.00  0.00    +0.145 A 
ATOM      6  N   LIG    1      -41.668  77.659  25.423  0.00  0.00    -0.201 NA
ENDROOT
BRANCH   4   7
ATOM      7  N   LIG    1      -40.225  81.014  24.481  0.00  0.00    -0.196 NA
ATOM      8  C   LIG    1      -39.622  81.255  23.360  0.00  0.00    +0.285 C 
BRANCH   8   9
ATOM      9  N   LIG    1      -39.434  82.449  22.723  0.00  0.00    -0.267 N 
ATOM     10  H   LIG    1      -39.652  82.537  21.731  0.00  0.00    +0.157 HD
BRANCH   9  11
ATOM     11  C   LIG    1      -38.856  83.638  23.218  0.00  0.00    +0.061 A 
ATOM     12  C   LIG    1      -39.348  84.927  22.885  0.00  0.00    +0.087 A 
ATOM     13  C   LIG    1      -38.716  86.076  23.399  0.00  0.00    +0.030 A 
ATOM     14  C   LIG    1      -37.630  85.960  24.266  0.00  0.00    +0.014 A 
ATOM     15  C   LIG    1      -37.168  84.699  24.656  0.00  0.00    +0.057 A 
ATOM     16  C   LIG    1      -37.784  83.558  24.123  0.00  0.00    +0.037 A 
BRANCH  12  17
ATOM     17  N   LIG    1      -40.485  85.115  22.042  0.00  0.00    -0.237 N 
ATOM     18  N   LIG    1      -41.713  84.613  22.374  0.00  0.00    -0.173 NA
ATOM     19  C   LIG    1      -42.492  84.957  21.340  0.00  0.00    +0.154 A 
ATOM     20  C   LIG    1      -41.811  85.704  20.369  0.00  0.00    +0.079 A 
ATOM     21 CL   LIG    1      -42.462  86.373  18.959  0.00  0.00    -0.080 Cl
ATOM     22  C   LIG    1      -40.519  85.768  20.823  0.00  0.00    +0.134 A 
ENDBRANCH  12  17
BRANCH  15  23
ATOM     23  C   LIG    1      -36.034  84.568  25.642  0.00  0.00    +0.417 C 
ATOM     24  F   LIG    1      -35.728  83.267  25.904  0.00  0.00    -0.166 F 
ATOM     25  F   LIG    1      -36.321  85.136  26.846  0.00  0.00    -0.166 F 
ATOM     26  F   LIG    1      -34.875  85.148  25.225  0.00  0.00    -0.166 F 
ENDBRANCH  15  23
ENDBRANCH   9  11
ENDBRANCH   8   9
BRANCH   8  27
ATOM     27  O   LIG    1      -39.084  80.241  22.663  0.00  0.00    -0.481 OA
ATOM     28  H   LIG    1      -39.514  79.388  22.887  0.00  0.00    +0.295 HD
ENDBRANCH   8  27
ENDBRANCH   4   7
BRANCH   1  29
ATOM     29  O   LIG    1      -40.760  75.947  26.712  0.00  0.00    -0.424 OA
BRANCH  29  33
ATOM     30  C   LIG    1      -39.346  72.438  24.792  0.00  0.00    -0.014 A 
ATOM     31  C   LIG    1      -39.497  72.537  26.190  0.00  0.00    +0.012 A 
ATOM     32  C   LIG    1      -39.989  73.702  26.812  0.00  0.00    +0.047 A 
ATOM     33  C   LIG    1      -40.316  74.821  26.050  0.00  0.00    +0.132 A 
ATOM     34  C   LIG    1      -40.225  74.720  24.664  0.00  0.00    +0.047 A 
ATOM     35  C   LIG    1      -39.742  73.563  24.052  0.00  0.00    +0.012 A 
BRANCH  30  37
ATOM     36  C   LIG    1      -37.416  70.892  24.068  0.00  0.00    +0.124 A 
ATOM     37  C   LIG    1      -38.781  71.243  24.096  0.00  0.00    +0.023 A 
ATOM     38  C   LIG    1      -39.643  70.366  23.395  0.00  0.00    +0.033 A 
ATOM     39  C   LIG    1      -39.155  69.239  22.743  0.00  0.00    +0.060 A 
ATOM     40 CL   LIG    1      -40.215  68.169  21.918  0.00  0.00    -0.082 Cl
ATOM     41  C   LIG    1      -37.799  69.006  22.781  0.00  0.00    +0.133 A 
ATOM     42  N   LIG    1      -36.924  69.811  23.422  0.00  0.00    -0.239 NA
BRANCH  36  43
ATOM     43  N   LIG    1      -36.422  71.612  24.726  0.00  0.00    -0.343 N 
ATOM     44  H   LIG    1      -36.556  71.563  25.731  0.00  0.00    +0.144 HD
ATOM     45  H   LIG    1      -35.542  71.184  24.450  0.00  0.00    +0.144 HD
ENDBRANCH  36  43
ENDBRANCH  30  37
ENDBRANCH  29  33
ENDBRANCH   1  29
TORSDOF 10
ENDMDL
MODEL 9
REMARK VINA RESULT:      -6.3     11.931     16.202
REMARK  Name = pdb/CHEMBL3967794.pdb
REMARK                            x       y       z     vdW  Elec       q    Type
REMARK                         _______ _______ _______ _____ _____    ______ ____
ROOT
ATOM      1  C   LIG    1      -38.966  81.751  25.262  0.00  0.00    +0.323 A 
ATOM      2  N   LIG    1      -38.245  81.672  26.391  0.00  0.00    -0.201 NA
ATOM      3  C   LIG    1      -37.165  82.474  26.508  0.00  0.00    +0.145 A 
ATOM      4  C   LIG    1      -36.752  83.368  25.549  0.00  0.00    +0.105 A 
ATOM      5  C   LIG    1      -37.590  83.378  24.439  0.00  0.00    +0.145 A 
ATOM      6  N   LIG    1      -38.685  82.588  24.254  0.00  0.00    -0.201 NA
ENDROOT
BRANCH   4   7
ATOM      7  N   LIG    1      -35.644  84.210  25.784  0.00  0.00    -0.196 NA
ATOM      8  C   LIG    1      -35.755  85.314  26.452  0.00  0.00    +0.285 C 
BRANCH   8   9
ATOM      9  N   LIG    1      -34.782  86.206  26.809  0.00  0.00    -0.267 N 
ATOM     10  H   LIG    1      -34.214  86.655  26.092  0.00  0.00    +0.157 HD
BRANCH   9  11
ATOM     11  C   LIG    1      -34.335  86.561  28.100  0.00  0.00    +0.061 A 
ATOM     12  C   LIG    1      -34.476  87.872  28.627  0.00  0.00    +0.087 A 
ATOM     13  C   LIG    1      -33.994  88.166  29.917  0.00  0.00    +0.030 A 
ATOM     14  C   LIG    1      -33.412  87.171  30.702  0.00  0.00    +0.014 A 
ATOM     15  C   LIG    1      -33.319  85.860  30.226  0.00  0.00    +0.057 A 
ATOM     16  C   LIG    1      -33.778  85.575  28.932  0.00  0.00    +0.037 A 
BRANCH  12  17
ATOM     17  N   LIG    1      -35.105  88.925  27.896  0.00  0.00    -0.237 N 
ATOM     18  N   LIG    1      -36.382  88.802  27.421  0.00  0.00    -0.173 NA
ATOM     19  C   LIG    1      -36.597  89.955  26.774  0.00  0.00    +0.154 A 
ATOM     20  C   LIG    1      -35.510  90.836  26.854  0.00  0.00    +0.079 A 
ATOM     21 CL   LIG    1      -35.422  92.402  26.224  0.00  0.00    -0.080 Cl
ATOM     22  C   LIG    1      -34.552  90.144  27.550  0.00  0.00    +0.134 A 
ENDBRANCH  12  17
BRANCH  15  23
ATOM     23  C   LIG    1      -32.747  84.766  31.095  0.00  0.00    +0.417 C 
ATOM     24  F   LIG    1      -31.406  84.616  30.914  0.00  0.00    -0.166 F 
ATOM     25  F   LIG    1      -33.300  83.550  30.833  0.00  0.00    -0.166 F 
ATOM     26  F   LIG    1      -32.925  84.977  32.428  0.00  0.00    -0.166 F 
ENDBRANCH  15  23
ENDBRANCH   9  11
ENDBRANCH   8   9
BRANCH   8  27
ATOM     27  O   LIG    1      -36.960  85.704  26.896  0.00  0.00    -0.481 OA
ATOM     28  H   LIG    1      -37.232  86.555  26.489  0.00  0.00    +0.295 HD
ENDBRANCH   8  27
ENDBRANCH   4   7
BRANCH   1  29
ATOM     29  O   LIG    1      -40.132  80.990  25.132  0.00  0.00    -0.424 OA
BRANCH  29  33
ATOM     30  C   LIG    1      -39.781  76.796  24.593  0.00  0.00    -0.014 A 
ATOM     31  C   LIG    1      -39.607  77.719  23.543  0.00  0.00    +0.012 A 
ATOM     32  C   LIG    1      -39.705  79.111  23.741  0.00  0.00    +0.047 A 
ATOM     33  C   LIG    1      -40.014  79.622  25.000  0.00  0.00    +0.132 A 
ATOM     34  C   LIG    1      -40.135  78.726  26.060  0.00  0.00    +0.047 A 
ATOM     35  C   LIG    1      -40.033  77.349  25.859  0.00  0.00    +0.012 A 
BRANCH  30  37
ATOM     36  C   LIG    1      -38.674  74.481  24.822  0.00  0.00    +0.124 A 
ATOM     37  C   LIG    1      -39.738  75.313  24.418  0.00  0.00    +0.023 A 
ATOM     38  C   LIG    1      -40.825  74.647  23.802  0.00  0.00    +0.033 A 
ATOM     39  C   LIG    1      -40.825  73.267  23.630  0.00  0.00    +0.060 A 
ATOM     40 CL   LIG    1      -42.160  72.469  22.905  0.00  0.00    -0.082 Cl
ATOM     41  C   LIG    1      -39.724  72.562  24.060  0.00  0.00    +0.133 A 
ATOM     42  N   LIG    1      -38.651  73.140  24.643  0.00  0.00    -0.239 NA
BRANCH  36  43
ATOM     43  N   LIG    1      -37.536  74.946  25.473  0.00  0.00    -0.343 N 
ATOM     44  H   LIG    1      -36.808  75.167  24.801  0.00  0.00    +0.144 HD
ATOM     45  H   LIG    1      -37.829  75.775  25.985  0.00  0.00    +0.144 HD
ENDBRANCH  36  43
ENDBRANCH  30  37
ENDBRANCH  29  33
ENDBRANCH   1  29
TORSDOF 10
ENDMDL
