MODEL 1
REMARK VINA RESULT:      -6.1      0.000      0.000
REMARK  Name = pdb/CHEMBL3671135.pdb
REMARK                            x       y       z     vdW  Elec       q    Type
REMARK                         _______ _______ _______ _____ _____    ______ ____
ROOT
ATOM      1  C   LIG    1      -19.555  76.908  30.568  0.00  0.00    +0.100 A 
ATOM      2  C   LIG    1      -19.100  77.473  31.749  0.00  0.00    +0.170 A 
ATOM      3  N   LIG    1      -19.762  77.995  32.831  0.00  0.00    -0.212 NA
ATOM      4  C   LIG    1      -19.049  78.538  33.796  0.00  0.00    +0.126 A 
ATOM      5  C   LIG    1      -17.538  78.552  33.757  0.00  0.00    +0.063 A 
ATOM      6  C   LIG    1      -16.945  78.006  32.690  0.00  0.00    +0.118 A 
ATOM      7  N   LIG    1      -17.707  77.463  31.670  0.00  0.00    -0.221 N 
ATOM      8  N   LIG    1      -17.262  76.893  30.526  0.00  0.00    -0.173 NA
ATOM      9  C   LIG    1      -18.377  76.571  29.870  0.00  0.00    +0.150 A 
ENDROOT
BRANCH   4  10
ATOM     10  N   LIG    1      -19.697  79.108  34.882  0.00  0.00    -0.308 N 
ATOM     11  C   LIG    1      -20.989  79.804  34.754  0.00  0.00    +0.108 C 
ATOM     12  C   LIG    1      -20.855  80.981  35.733  0.00  0.00    +0.029 C 
ATOM     13  C   LIG    1      -19.988  80.419  36.846  0.00  0.00    +0.021 C 
ATOM     14  C   LIG    1      -18.997  79.535  36.096  0.00  0.00    +0.107 C 
BRANCH  11  15
ATOM     15  C   LIG    1      -22.148  78.882  35.088  0.00  0.00    +0.011 A 
ATOM     16  C   LIG    1      -23.414  79.145  34.547  0.00  0.00    +0.129 A 
ATOM     17  F   LIG    1      -23.588  80.205  33.743  0.00  0.00    -0.205 F 
ATOM     18  C   LIG    1      -24.516  78.333  34.822  0.00  0.00    +0.041 A 
ATOM     19  C   LIG    1      -24.370  77.232  35.663  0.00  0.00    +0.041 A 
ATOM     20  C   LIG    1      -23.125  76.962  36.215  0.00  0.00    +0.124 A 
ATOM     21  F   LIG    1      -22.978  75.910  37.030  0.00  0.00    -0.205 F 
ATOM     22  C   LIG    1      -22.024  77.768  35.936  0.00  0.00    +0.046 A 
ENDBRANCH  11  15
ENDBRANCH   4  10
BRANCH   1  25
ATOM     23  N   LIG    1      -21.869  76.690  31.103  0.00  0.00    -0.308 N 
ATOM     24  H   LIG    1      -21.529  76.727  32.063  0.00  0.00    +0.149 HD
ATOM     25  C   LIG    1      -20.916  76.714  30.112  0.00  0.00    +0.249 C 
ATOM     26  O   LIG    1      -21.186  76.598  28.918  0.00  0.00    -0.270 OA
BRANCH  23  30
ATOM     27  C   LIG    1      -26.113  76.687  31.701  0.00  0.00    +0.115 C 
ATOM     28  C   LIG    1      -25.412  75.338  31.551  0.00  0.00    +0.033 C 
ATOM     29  C   LIG    1      -23.905  75.462  31.769  0.00  0.00    +0.025 C 
ATOM     30  C   LIG    1      -23.286  76.516  30.838  0.00  0.00    +0.073 C 
ATOM     31  C   LIG    1      -24.009  77.862  30.963  0.00  0.00    +0.025 C 
ATOM     32  C   LIG    1      -25.513  77.725  30.757  0.00  0.00    +0.033 C 
BRANCH  27  33
ATOM     33  O   LIG    1      -27.496  76.520  31.412  0.00  0.00    -0.392 OA
ATOM     34  H   LIG    1      -27.685  77.003  30.589  0.00  0.00    +0.210 HD
ENDBRANCH  27  33
ENDBRANCH  23  30
ENDBRANCH   1  25
TORSDOF 5
ENDMDL
MODEL 2
REMARK VINA RESULT:      -6.0      2.615      5.622
REMARK  Name = pdb/CHEMBL3671135.pdb
REMARK                            x       y       z     vdW  Elec       q    Type
REMARK                         _______ _______ _______ _____ _____    ______ ____
ROOT
ATOM      1  C   LIG    1      -18.322  78.297  33.259  0.00  0.00    +0.100 A 
ATOM      2  C   LIG    1      -19.212  77.860  32.290  0.00  0.00    +0.170 A 
ATOM      3  N   LIG    1      -20.582  77.898  32.218  0.00  0.00    -0.212 NA
ATOM      4  C   LIG    1      -21.168  77.327  31.186  0.00  0.00    +0.126 A 
ATOM      5  C   LIG    1      -20.371  76.686  30.073  0.00  0.00    +0.063 A 
ATOM      6  C   LIG    1      -19.039  76.701  30.183  0.00  0.00    +0.118 A 
ATOM      7  N   LIG    1      -18.436  77.280  31.286  0.00  0.00    -0.221 N 
ATOM      8  N   LIG    1      -17.112  77.361  31.551  0.00  0.00    -0.173 NA
ATOM      9  C   LIG    1      -17.054  77.966  32.737  0.00  0.00    +0.150 A 
ENDROOT
BRANCH   4  10
ATOM     10  N   LIG    1      -22.554  77.317  31.111  0.00  0.00    -0.308 N 
ATOM     11  C   LIG    1      -23.383  76.445  31.959  0.00  0.00    +0.108 C 
ATOM     12  C   LIG    1      -24.519  76.014  31.017  0.00  0.00    +0.029 C 
ATOM     13  C   LIG    1      -24.714  77.224  30.120  0.00  0.00    +0.021 C 
ATOM     14  C   LIG    1      -23.292  77.732  29.916  0.00  0.00    +0.107 C 
BRANCH  11  15
ATOM     15  C   LIG    1      -23.880  77.182  33.190  0.00  0.00    +0.011 A 
ATOM     16  C   LIG    1      -24.566  76.473  34.186  0.00  0.00    +0.129 A 
ATOM     17  F   LIG    1      -24.776  75.157  34.042  0.00  0.00    -0.205 F 
ATOM     18  C   LIG    1      -25.047  77.100  35.337  0.00  0.00    +0.041 A 
ATOM     19  C   LIG    1      -24.855  78.469  35.510  0.00  0.00    +0.041 A 
ATOM     20  C   LIG    1      -24.186  79.188  34.529  0.00  0.00    +0.124 A 
ATOM     21  F   LIG    1      -24.003  80.506  34.684  0.00  0.00    -0.205 F 
ATOM     22  C   LIG    1      -23.700  78.563  33.383  0.00  0.00    +0.046 A 
ENDBRANCH  11  15
ENDBRANCH   4  10
BRANCH   1  25
ATOM     23  N   LIG    1      -19.852  79.476  34.658  0.00  0.00    -0.308 N 
ATOM     24  H   LIG    1      -20.442  79.459  33.828  0.00  0.00    +0.149 HD
ATOM     25  C   LIG    1      -18.595  78.933  34.532  0.00  0.00    +0.249 C 
ATOM     26  O   LIG    1      -17.758  78.959  35.432  0.00  0.00    -0.270 OA
BRANCH  23  30
ATOM     27  C   LIG    1      -22.498  81.209  37.551  0.00  0.00    +0.115 C 
ATOM     28  C   LIG    1      -21.555  82.143  36.795  0.00  0.00    +0.033 C 
ATOM     29  C   LIG    1      -20.996  81.480  35.538  0.00  0.00    +0.025 C 
ATOM     30  C   LIG    1      -20.311  80.144  35.864  0.00  0.00    +0.073 C 
ATOM     31  C   LIG    1      -21.243  79.217  36.650  0.00  0.00    +0.025 C 
ATOM     32  C   LIG    1      -21.805  79.893  37.896  0.00  0.00    +0.033 C 
BRANCH  27  33
ATOM     33  O   LIG    1      -22.922  81.853  38.746  0.00  0.00    -0.392 OA
ATOM     34  H   LIG    1      -23.778  81.467  39.001  0.00  0.00    +0.210 HD
ENDBRANCH  27  33
ENDBRANCH  23  30
ENDBRANCH   1  25
TORSDOF 5
ENDMDL
MODEL 3
REMARK VINA RESULT:      -5.9      2.554      5.847
REMARK  Name = pdb/CHEMBL3671135.pdb
REMARK                            x       y       z     vdW  Elec       q    Type
REMARK                         _______ _______ _______ _____ _____    ______ ____
ROOT
ATOM      1  C   LIG    1      -24.921  77.318  32.983  0.00  0.00    +0.100 A 
ATOM      2  C   LIG    1      -24.701  78.262  33.974  0.00  0.00    +0.170 A 
ATOM      3  N   LIG    1      -23.599  79.012  34.300  0.00  0.00    -0.212 NA
ATOM      4  C   LIG    1      -23.666  79.789  35.362  0.00  0.00    +0.126 A 
ATOM      5  C   LIG    1      -24.928  79.905  36.185  0.00  0.00    +0.063 A 
ATOM      6  C   LIG    1      -25.980  79.171  35.806  0.00  0.00    +0.118 A 
ATOM      7  N   LIG    1      -25.888  78.338  34.704  0.00  0.00    -0.221 N 
ATOM      8  N   LIG    1      -26.849  77.525  34.207  0.00  0.00    -0.173 NA
ATOM      9  C   LIG    1      -26.257  76.914  33.180  0.00  0.00    +0.150 A 
ENDROOT
BRANCH   4  10
ATOM     10  N   LIG    1      -22.551  80.526  35.735  0.00  0.00    -0.308 N 
ATOM     11  C   LIG    1      -21.483  79.968  36.581  0.00  0.00    +0.108 C 
ATOM     12  C   LIG    1      -21.088  81.152  37.477  0.00  0.00    +0.029 C 
ATOM     13  C   LIG    1      -21.295  82.360  36.580  0.00  0.00    +0.021 C 
ATOM     14  C   LIG    1      -22.544  81.990  35.789  0.00  0.00    +0.107 C 
BRANCH  11  15
ATOM     15  C   LIG    1      -20.330  79.447  35.742  0.00  0.00    +0.011 A 
ATOM     16  C   LIG    1      -19.263  78.789  36.371  0.00  0.00    +0.129 A 
ATOM     17  F   LIG    1      -19.273  78.628  37.702  0.00  0.00    -0.205 F 
ATOM     18  C   LIG    1      -18.176  78.293  35.650  0.00  0.00    +0.041 A 
ATOM     19  C   LIG    1      -18.131  78.456  34.267  0.00  0.00    +0.041 A 
ATOM     20  C   LIG    1      -19.174  79.113  33.628  0.00  0.00    +0.124 A 
ATOM     21  F   LIG    1      -19.136  79.281  32.300  0.00  0.00    -0.205 F 
ATOM     22  C   LIG    1      -20.263  79.604  34.347  0.00  0.00    +0.046 A 
ENDBRANCH  11  15
ENDBRANCH   4  10
BRANCH   1  25
ATOM     23  N   LIG    1      -22.674  76.900  32.302  0.00  0.00    -0.308 N 
ATOM     24  H   LIG    1      -22.446  77.370  33.177  0.00  0.00    +0.149 HD
ATOM     25  C   LIG    1      -24.006  76.822  31.974  0.00  0.00    +0.249 C 
ATOM     26  O   LIG    1      -24.411  76.351  30.913  0.00  0.00    -0.270 OA
BRANCH  23  30
ATOM     27  C   LIG    1      -18.833  76.628  30.419  0.00  0.00    +0.115 C 
ATOM     28  C   LIG    1      -20.013  77.093  29.570  0.00  0.00    +0.033 C 
ATOM     29  C   LIG    1      -21.187  77.542  30.438  0.00  0.00    +0.025 C 
ATOM     30  C   LIG    1      -21.612  76.442  31.423  0.00  0.00    +0.073 C 
ATOM     31  C   LIG    1      -20.422  75.951  32.255  0.00  0.00    +0.025 C 
ATOM     32  C   LIG    1      -19.252  75.517  31.379  0.00  0.00    +0.033 C 
BRANCH  27  33
ATOM     33  O   LIG    1      -17.806  76.152  29.558  0.00  0.00    -0.392 OA
ATOM     34  H   LIG    1      -17.049  76.757  29.640  0.00  0.00    +0.210 HD
ENDBRANCH  27  33
ENDBRANCH  23  30
ENDBRANCH   1  25
TORSDOF 5
ENDMDL
MODEL 4
REMARK VINA RESULT:      -5.7      2.729      5.453
REMARK  Name = pdb/CHEMBL3671135.pdb
REMARK                            x       y       z     vdW  Elec       q    Type
REMARK                         _______ _______ _______ _____ _____    ______ ____
ROOT
ATOM      1  C   LIG    1      -24.318  77.784  32.027  0.00  0.00    +0.100 A 
ATOM      2  C   LIG    1      -23.033  77.547  31.565  0.00  0.00    +0.170 A 
ATOM      3  N   LIG    1      -21.804  77.676  32.162  0.00  0.00    -0.212 NA
ATOM      4  C   LIG    1      -20.730  77.443  31.436  0.00  0.00    +0.126 A 
ATOM      5  C   LIG    1      -20.826  76.995  29.995  0.00  0.00    +0.063 A 
ATOM      6  C   LIG    1      -22.049  76.861  29.472  0.00  0.00    +0.118 A 
ATOM      7  N   LIG    1      -23.169  77.136  30.238  0.00  0.00    -0.221 N 
ATOM      8  N   LIG    1      -24.464  77.066  29.854  0.00  0.00    -0.173 NA
ATOM      9  C   LIG    1      -25.144  77.462  30.930  0.00  0.00    +0.150 A 
ENDROOT
BRANCH   4  10
ATOM     10  N   LIG    1      -19.476  77.605  32.007  0.00  0.00    -0.308 N 
ATOM     11  C   LIG    1      -19.135  78.765  32.848  0.00  0.00    +0.108 C 
ATOM     12  C   LIG    1      -17.683  79.072  32.454  0.00  0.00    +0.029 C 
ATOM     13  C   LIG    1      -17.103  77.704  32.140  0.00  0.00    +0.021 C 
ATOM     14  C   LIG    1      -18.264  76.987  31.461  0.00  0.00    +0.107 C 
BRANCH  11  15
ATOM     15  C   LIG    1      -19.296  78.442  34.323  0.00  0.00    +0.011 A 
ATOM     16  C   LIG    1      -19.860  79.399  35.179  0.00  0.00    +0.129 A 
ATOM     17  F   LIG    1      -20.250  80.584  34.688  0.00  0.00    -0.205 F 
ATOM     18  C   LIG    1      -20.028  79.158  36.543  0.00  0.00    +0.041 A 
ATOM     19  C   LIG    1      -19.621  77.941  37.086  0.00  0.00    +0.041 A 
ATOM     20  C   LIG    1      -19.052  76.986  36.255  0.00  0.00    +0.124 A 
ATOM     21  F   LIG    1      -18.651  75.816  36.769  0.00  0.00    -0.205 F 
ATOM     22  C   LIG    1      -18.889  77.223  34.891  0.00  0.00    +0.046 A 
ENDBRANCH  11  15
ENDBRANCH   4  10
BRANCH   1  25
ATOM     23  N   LIG    1      -23.816  79.008  34.011  0.00  0.00    -0.308 N 
ATOM     24  H   LIG    1      -22.889  79.076  33.594  0.00  0.00    +0.149 HD
ATOM     25  C   LIG    1      -24.749  78.270  33.322  0.00  0.00    +0.249 C 
ATOM     26  O   LIG    1      -25.879  78.045  33.751  0.00  0.00    -0.270 OA
BRANCH  23  30
ATOM     27  C   LIG    1      -23.096  80.632  37.912  0.00  0.00    +0.115 C 
ATOM     28  C   LIG    1      -23.807  79.283  37.820  0.00  0.00    +0.033 C 
ATOM     29  C   LIG    1      -23.620  78.643  36.445  0.00  0.00    +0.025 C 
ATOM     30  C   LIG    1      -24.070  79.586  35.319  0.00  0.00    +0.073 C 
ATOM     31  C   LIG    1      -23.383  80.951  35.428  0.00  0.00    +0.025 C 
ATOM     32  C   LIG    1      -23.565  81.575  36.807  0.00  0.00    +0.033 C 
BRANCH  27  33
ATOM     33  O   LIG    1      -23.371  81.210  39.182  0.00  0.00    -0.392 OA
ATOM     34  H   LIG    1      -22.795  80.775  39.834  0.00  0.00    +0.210 HD
ENDBRANCH  27  33
ENDBRANCH  23  30
ENDBRANCH   1  25
TORSDOF 5
ENDMDL
MODEL 5
REMARK VINA RESULT:      -5.7      3.296      7.456
REMARK  Name = pdb/CHEMBL3671135.pdb
REMARK                            x       y       z     vdW  Elec       q    Type
REMARK                         _______ _______ _______ _____ _____    ______ ____
ROOT
ATOM      1  C   LIG    1      -23.756  80.316  35.814  0.00  0.00    +0.100 A 
ATOM      2  C   LIG    1      -24.740  79.378  35.542  0.00  0.00    +0.170 A 
ATOM      3  N   LIG    1      -24.793  78.334  34.653  0.00  0.00    -0.212 NA
ATOM      4  C   LIG    1      -25.912  77.645  34.567  0.00  0.00    +0.126 A 
ATOM      5  C   LIG    1      -27.102  77.947  35.449  0.00  0.00    +0.063 A 
ATOM      6  C   LIG    1      -26.986  78.959  36.315  0.00  0.00    +0.118 A 
ATOM      7  N   LIG    1      -25.813  79.693  36.377  0.00  0.00    -0.221 N 
ATOM      8  N   LIG    1      -25.546  80.748  37.180  0.00  0.00    -0.173 NA
ATOM      9  C   LIG    1      -24.314  81.118  36.831  0.00  0.00    +0.150 A 
ENDROOT
BRANCH   4  10
ATOM     10  N   LIG    1      -26.004  76.610  33.647  0.00  0.00    -0.308 N 
ATOM     11  C   LIG    1      -26.155  76.850  32.202  0.00  0.00    +0.108 C 
ATOM     12  C   LIG    1      -27.117  75.737  31.759  0.00  0.00    +0.029 C 
ATOM     13  C   LIG    1      -26.764  74.578  32.674  0.00  0.00    +0.021 C 
ATOM     14  C   LIG    1      -26.467  75.267  34.001  0.00  0.00    +0.107 C 
BRANCH  11  15
ATOM     15  C   LIG    1      -24.815  76.796  31.491  0.00  0.00    +0.011 A 
ATOM     16  C   LIG    1      -24.534  77.726  30.480  0.00  0.00    +0.129 A 
ATOM     17  F   LIG    1      -25.448  78.650  30.153  0.00  0.00    -0.205 F 
ATOM     18  C   LIG    1      -23.320  77.720  29.791  0.00  0.00    +0.041 A 
ATOM     19  C   LIG    1      -22.354  76.764  30.099  0.00  0.00    +0.041 A 
ATOM     20  C   LIG    1      -22.619  75.830  31.091  0.00  0.00    +0.124 A 
ATOM     21  F   LIG    1      -21.699  74.903  31.388  0.00  0.00    -0.205 F 
ATOM     22  C   LIG    1      -23.828  75.838  31.783  0.00  0.00    +0.046 A 
ENDBRANCH  11  15
ENDBRANCH   4  10
BRANCH   1  25
ATOM     23  N   LIG    1      -21.873  79.319  34.742  0.00  0.00    -0.308 N 
ATOM     24  H   LIG    1      -22.365  78.451  34.946  0.00  0.00    +0.149 HD
ATOM     25  C   LIG    1      -22.453  80.478  35.201  0.00  0.00    +0.249 C 
ATOM     26  O   LIG    1      -21.926  81.583  35.090  0.00  0.00    -0.270 OA
BRANCH  23  30
ATOM     27  C   LIG    1      -18.215  77.786  33.116  0.00  0.00    +0.115 C 
ATOM     28  C   LIG    1      -18.128  78.686  34.347  0.00  0.00    +0.033 C 
ATOM     29  C   LIG    1      -19.478  78.805  35.053  0.00  0.00    +0.025 C 
ATOM     30  C   LIG    1      -20.575  79.285  34.091  0.00  0.00    +0.073 C 
ATOM     31  C   LIG    1      -20.643  78.404  32.839  0.00  0.00    +0.025 C 
ATOM     32  C   LIG    1      -19.289  78.282  32.151  0.00  0.00    +0.033 C 
BRANCH  27  33
ATOM     33  O   LIG    1      -16.952  77.778  32.463  0.00  0.00    -0.392 OA
ATOM     34  H   LIG    1      -16.265  77.845  33.149  0.00  0.00    +0.210 HD
ENDBRANCH  27  33
ENDBRANCH  23  30
ENDBRANCH   1  25
TORSDOF 5
ENDMDL
MODEL 6
REMARK VINA RESULT:      -5.7     13.737     16.982
REMARK  Name = pdb/CHEMBL3671135.pdb
REMARK                            x       y       z     vdW  Elec       q    Type
REMARK                         _______ _______ _______ _____ _____    ______ ____
ROOT
ATOM      1  C   LIG    1      -37.274  71.153  24.837  0.00  0.00    +0.100 A 
ATOM      2  C   LIG    1      -36.265  71.044  25.781  0.00  0.00    +0.170 A 
ATOM      3  N   LIG    1      -35.842  71.890  26.775  0.00  0.00    -0.212 NA
ATOM      4  C   LIG    1      -34.788  71.542  27.483  0.00  0.00    +0.126 A 
ATOM      5  C   LIG    1      -34.077  70.227  27.258  0.00  0.00    +0.063 A 
ATOM      6  C   LIG    1      -34.547  69.430  26.294  0.00  0.00    +0.118 A 
ATOM      7  N   LIG    1      -35.639  69.820  25.538  0.00  0.00    -0.221 N 
ATOM      8  N   LIG    1      -36.220  69.140  24.523  0.00  0.00    -0.173 NA
ATOM      9  C   LIG    1      -37.194  69.949  24.106  0.00  0.00    +0.150 A 
ENDROOT
BRANCH   4  10
ATOM     10  N   LIG    1      -34.317  72.400  28.468  0.00  0.00    -0.308 N 
ATOM     11  C   LIG    1      -33.585  73.637  28.151  0.00  0.00    +0.108 C 
ATOM     12  C   LIG    1      -32.517  73.708  29.254  0.00  0.00    +0.029 C 
ATOM     13  C   LIG    1      -33.209  73.088  30.456  0.00  0.00    +0.021 C 
ATOM     14  C   LIG    1      -34.032  71.965  29.837  0.00  0.00    +0.107 C 
BRANCH  11  15
ATOM     15  C   LIG    1      -34.511  74.841  28.143  0.00  0.00    +0.011 A 
ATOM     16  C   LIG    1      -34.016  76.087  27.735  0.00  0.00    +0.129 A 
ATOM     17  F   LIG    1      -32.735  76.204  27.357  0.00  0.00    -0.205 F 
ATOM     18  C   LIG    1      -34.822  77.227  27.710  0.00  0.00    +0.041 A 
ATOM     19  C   LIG    1      -36.154  77.141  28.108  0.00  0.00    +0.041 A 
ATOM     20  C   LIG    1      -36.658  75.916  28.525  0.00  0.00    +0.124 A 
ATOM     21  F   LIG    1      -37.936  75.825  28.917  0.00  0.00    -0.205 F 
ATOM     22  C   LIG    1      -35.857  74.777  28.544  0.00  0.00    +0.046 A 
ENDBRANCH  11  15
ENDBRANCH   4  10
BRANCH   1  25
ATOM     23  N   LIG    1      -37.790  73.468  25.079  0.00  0.00    -0.308 N 
ATOM     24  H   LIG    1      -36.921  73.485  25.610  0.00  0.00    +0.149 HD
ATOM     25  C   LIG    1      -38.201  72.243  24.611  0.00  0.00    +0.249 C 
ATOM     26  O   LIG    1      -39.268  72.071  24.025  0.00  0.00    -0.270 OA
BRANCH  23  30
ATOM     27  C   LIG    1      -39.390  77.361  25.893  0.00  0.00    +0.115 C 
ATOM     28  C   LIG    1      -40.332  76.164  26.002  0.00  0.00    +0.033 C 
ATOM     29  C   LIG    1      -39.561  74.849  26.106  0.00  0.00    +0.025 C 
ATOM     30  C   LIG    1      -38.580  74.679  24.936  0.00  0.00    +0.073 C 
ATOM     31  C   LIG    1      -37.654  75.893  24.804  0.00  0.00    +0.025 C 
ATOM     32  C   LIG    1      -38.434  77.200  24.714  0.00  0.00    +0.033 C 
BRANCH  27  33
ATOM     33  O   LIG    1      -40.164  78.541  25.722  0.00  0.00    -0.392 OA
ATOM     34  H   LIG    1      -40.242  78.971  26.592  0.00  0.00    +0.210 HD
ENDBRANCH  27  33
ENDBRANCH  23  30
ENDBRANCH   1  25
TORSDOF 5
ENDMDL
MODEL 7
REMARK VINA RESULT:      -5.6     19.697     22.526
REMARK  Name = pdb/CHEMBL3671135.pdb
REMARK                            x       y       z     vdW  Elec       q    Type
REMARK                         _______ _______ _______ _____ _____    ______ ____
ROOT
ATOM      1  C   LIG    1      -23.275  82.163  15.231  0.00  0.00    +0.100 A 
ATOM      2  C   LIG    1      -23.939  81.745  14.089  0.00  0.00    +0.170 A 
ATOM      3  N   LIG    1      -24.295  82.407  12.940  0.00  0.00    -0.212 NA
ATOM      4  C   LIG    1      -24.999  81.755  12.038  0.00  0.00    +0.126 A 
ATOM      5  C   LIG    1      -25.373  80.302  12.219  0.00  0.00    +0.063 A 
ATOM      6  C   LIG    1      -24.978  79.700  13.345  0.00  0.00    +0.118 A 
ATOM      7  N   LIG    1      -24.261  80.404  14.298  0.00  0.00    -0.221 N 
ATOM      8  N   LIG    1      -23.807  79.947  15.488  0.00  0.00    -0.173 NA
ATOM      9  C   LIG    1      -23.223  81.010  16.042  0.00  0.00    +0.150 A 
ENDROOT
BRANCH   4  10
ATOM     10  N   LIG    1      -25.405  82.415  10.887  0.00  0.00    -0.308 N 
ATOM     11  C   LIG    1      -26.252  83.618  10.924  0.00  0.00    +0.108 C 
ATOM     12  C   LIG    1      -27.182  83.434   9.716  0.00  0.00    +0.029 C 
ATOM     13  C   LIG    1      -26.313  82.703   8.707  0.00  0.00    +0.021 C 
ATOM     14  C   LIG    1      -25.496  81.758   9.580  0.00  0.00    +0.107 C 
BRANCH  11  15
ATOM     15  C   LIG    1      -25.417  84.884  10.843  0.00  0.00    +0.011 A 
ATOM     16  C   LIG    1      -26.057  86.131  10.817  0.00  0.00    +0.129 A 
ATOM     17  F   LIG    1      -27.395  86.193  10.863  0.00  0.00    -0.205 F 
ATOM     18  C   LIG    1      -25.339  87.326  10.740  0.00  0.00    +0.041 A 
ATOM     19  C   LIG    1      -23.947  87.294  10.678  0.00  0.00    +0.041 A 
ATOM     20  C   LIG    1      -23.297  86.067  10.694  0.00  0.00    +0.124 A 
ATOM     21  F   LIG    1      -21.960  86.026  10.627  0.00  0.00    -0.205 F 
ATOM     22  C   LIG    1      -24.012  84.874  10.776  0.00  0.00    +0.046 A 
ENDBRANCH  11  15
ENDBRANCH   4  10
BRANCH   1  25
ATOM     23  N   LIG    1      -22.372  84.240  14.485  0.00  0.00    -0.308 N 
ATOM     24  H   LIG    1      -22.404  83.791  13.571  0.00  0.00    +0.149 HD
ATOM     25  C   LIG    1      -22.758  83.476  15.561  0.00  0.00    +0.249 C 
ATOM     26  O   LIG    1      -22.692  83.870  16.723  0.00  0.00    -0.270 OA
BRANCH  23  30
ATOM     27  C   LIG    1      -21.117  88.202  13.437  0.00  0.00    +0.115 C 
ATOM     28  C   LIG    1      -20.043  87.202  13.858  0.00  0.00    +0.033 C 
ATOM     29  C   LIG    1      -20.558  85.765  13.789  0.00  0.00    +0.025 C 
ATOM     30  C   LIG    1      -21.839  85.585  14.617  0.00  0.00    +0.073 C 
ATOM     31  C   LIG    1      -22.907  86.610  14.219  0.00  0.00    +0.025 C 
ATOM     32  C   LIG    1      -22.380  88.039  14.279  0.00  0.00    +0.033 C 
BRANCH  27  33
ATOM     33  O   LIG    1      -20.605  89.520  13.596  0.00  0.00    -0.392 OA
ATOM     34  H   LIG    1      -21.196  89.994  14.206  0.00  0.00    +0.210 HD
ENDBRANCH  27  33
ENDBRANCH  23  30
ENDBRANCH   1  25
TORSDOF 5
ENDMDL
MODEL 8
REMARK VINA RESULT:      -5.6     19.452     22.812
REMARK  Name = pdb/CHEMBL3671135.pdb
REMARK                            x       y       z     vdW  Elec       q    Type
REMARK                         _______ _______ _______ _____ _____    ______ ____
ROOT
ATOM      1  C   LIG    1      -42.326  70.553  20.728  0.00  0.00    +0.100 A 
ATOM      2  C   LIG    1      -42.510  71.668  21.531  0.00  0.00    +0.170 A 
ATOM      3  N   LIG    1      -41.928  72.055  22.711  0.00  0.00    -0.212 NA
ATOM      4  C   LIG    1      -42.367  73.152  23.293  0.00  0.00    +0.126 A 
ATOM      5  C   LIG    1      -43.448  74.004  22.670  0.00  0.00    +0.063 A 
ATOM      6  C   LIG    1      -43.962  73.593  21.506  0.00  0.00    +0.118 A 
ATOM      7  N   LIG    1      -43.511  72.424  20.919  0.00  0.00    -0.221 N 
ATOM      8  N   LIG    1      -43.938  71.868  19.762  0.00  0.00    -0.173 NA
ATOM      9  C   LIG    1      -43.227  70.745  19.659  0.00  0.00    +0.150 A 
ENDROOT
BRANCH   4  10
ATOM     10  N   LIG    1      -41.821  73.543  24.508  0.00  0.00    -0.308 N 
ATOM     11  C   LIG    1      -40.379  73.449  24.791  0.00  0.00    +0.108 C 
ATOM     12  C   LIG    1      -40.336  73.021  26.266  0.00  0.00    +0.029 C 
ATOM     13  C   LIG    1      -41.557  73.696  26.866  0.00  0.00    +0.021 C 
ATOM     14  C   LIG    1      -42.592  73.587  25.752  0.00  0.00    +0.107 C 
BRANCH  11  15
ATOM     15  C   LIG    1      -39.679  74.771  24.535  0.00  0.00    +0.011 A 
ATOM     16  C   LIG    1      -38.317  74.900  24.843  0.00  0.00    +0.129 A 
ATOM     17  F   LIG    1      -37.650  73.858  25.359  0.00  0.00    -0.205 F 
ATOM     18  C   LIG    1      -37.624  76.093  24.631  0.00  0.00    +0.041 A 
ATOM     19  C   LIG    1      -38.292  77.198  24.108  0.00  0.00    +0.041 A 
ATOM     20  C   LIG    1      -39.643  77.091  23.806  0.00  0.00    +0.124 A 
ATOM     21  F   LIG    1      -40.296  78.150  23.310  0.00  0.00    -0.205 F 
ATOM     22  C   LIG    1      -40.335  75.899  24.012  0.00  0.00    +0.046 A 
ENDBRANCH  11  15
ENDBRANCH   4  10
BRANCH   1  25
ATOM     23  N   LIG    1      -40.164  69.743  21.327  0.00  0.00    -0.308 N 
ATOM     24  H   LIG    1      -39.936  70.734  21.376  0.00  0.00    +0.149 HD
ATOM     25  C   LIG    1      -41.438  69.424  20.920  0.00  0.00    +0.249 C 
ATOM     26  O   LIG    1      -41.818  68.268  20.744  0.00  0.00    -0.270 OA
BRANCH  23  30
ATOM     27  C   LIG    1      -36.340  68.027  22.224  0.00  0.00    +0.115 C 
ATOM     28  C   LIG    1      -36.912  67.806  20.826  0.00  0.00    +0.033 C 
ATOM     29  C   LIG    1      -38.034  68.795  20.515  0.00  0.00    +0.025 C 
ATOM     30  C   LIG    1      -39.139  68.745  21.580  0.00  0.00    +0.073 C 
ATOM     31  C   LIG    1      -38.564  68.935  22.988  0.00  0.00    +0.025 C 
ATOM     32  C   LIG    1      -37.437  67.952  23.283  0.00  0.00    +0.033 C 
BRANCH  27  33
ATOM     33  O   LIG    1      -35.358  67.031  22.482  0.00  0.00    -0.392 OA
ATOM     34  H   LIG    1      -34.562  67.264  21.973  0.00  0.00    +0.210 HD
ENDBRANCH  27  33
ENDBRANCH  23  30
ENDBRANCH   1  25
TORSDOF 5
ENDMDL
MODEL 9
REMARK VINA RESULT:      -5.6     12.856     16.066
REMARK  Name = pdb/CHEMBL3671135.pdb
REMARK                            x       y       z     vdW  Elec       q    Type
REMARK                         _______ _______ _______ _____ _____    ______ ____
ROOT
ATOM      1  C   LIG    1      -34.855  70.950  27.216  0.00  0.00    +0.100 A 
ATOM      2  C   LIG    1      -34.202  71.943  27.929  0.00  0.00    +0.170 A 
ATOM      3  N   LIG    1      -34.183  73.308  27.795  0.00  0.00    -0.212 NA
ATOM      4  C   LIG    1      -33.396  74.003  28.590  0.00  0.00    +0.126 A 
ATOM      5  C   LIG    1      -32.564  73.338  29.663  0.00  0.00    +0.063 A 
ATOM      6  C   LIG    1      -32.641  72.008  29.766  0.00  0.00    +0.118 A 
ATOM      7  N   LIG    1      -33.451  71.287  28.906  0.00  0.00    -0.221 N 
ATOM      8  N   LIG    1      -33.624  69.946  28.870  0.00  0.00    -0.173 NA
ATOM      9  C   LIG    1      -34.461  69.753  27.850  0.00  0.00    +0.150 A 
ENDROOT
BRANCH   4  10
ATOM     10  N   LIG    1      -33.330  75.381  28.447  0.00  0.00    -0.308 N 
ATOM     11  C   LIG    1      -34.069  76.102  27.397  0.00  0.00    +0.108 C 
ATOM     12  C   LIG    1      -33.090  77.205  26.969  0.00  0.00    +0.029 C 
ATOM     13  C   LIG    1      -32.350  77.540  28.253  0.00  0.00    +0.021 C 
ATOM     14  C   LIG    1      -32.200  76.181  28.926  0.00  0.00    +0.107 C 
BRANCH  11  15
ATOM     15  C   LIG    1      -35.385  76.646  27.923  0.00  0.00    +0.011 A 
ATOM     16  C   LIG    1      -36.497  76.702  27.071  0.00  0.00    +0.129 A 
ATOM     17  F   LIG    1      -36.387  76.276  25.804  0.00  0.00    -0.205 F 
ATOM     18  C   LIG    1      -37.730  77.196  27.500  0.00  0.00    +0.041 A 
ATOM     19  C   LIG    1      -37.873  77.657  28.807  0.00  0.00    +0.041 A 
ATOM     20  C   LIG    1      -36.780  77.618  29.662  0.00  0.00    +0.124 A 
ATOM     21  F   LIG    1      -36.906  78.066  30.918  0.00  0.00    -0.205 F 
ATOM     22  C   LIG    1      -35.550  77.120  29.236  0.00  0.00    +0.046 A 
ENDBRANCH  11  15
ENDBRANCH   4  10
BRANCH   1  25
ATOM     23  N   LIG    1      -36.725  72.013  26.187  0.00  0.00    -0.308 N 
ATOM     24  H   LIG    1      -36.811  72.473  27.092  0.00  0.00    +0.149 HD
ATOM     25  C   LIG    1      -35.729  71.073  26.067  0.00  0.00    +0.249 C 
ATOM     26  O   LIG    1      -35.567  70.391  25.058  0.00  0.00    -0.270 OA
BRANCH  23  30
ATOM     27  C   LIG    1      -40.446  72.928  24.267  0.00  0.00    +0.115 C 
ATOM     28  C   LIG    1      -39.851  71.540  24.045  0.00  0.00    +0.033 C 
ATOM     29  C   LIG    1      -38.788  71.211  25.092  0.00  0.00    +0.025 C 
ATOM     30  C   LIG    1      -37.690  72.285  25.136  0.00  0.00    +0.073 C 
ATOM     31  C   LIG    1      -38.288  73.683  25.327  0.00  0.00    +0.025 C 
ATOM     32  C   LIG    1      -39.356  73.996  24.285  0.00  0.00    +0.033 C 
BRANCH  27  33
ATOM     33  O   LIG    1      -41.369  73.205  23.221  0.00  0.00    -0.392 OA
ATOM     34  H   LIG    1      -40.870  73.600  22.485  0.00  0.00    +0.210 HD
ENDBRANCH  27  33
ENDBRANCH  23  30
ENDBRANCH   1  25
TORSDOF 5
ENDMDL
