MODEL 1
REMARK VINA RESULT:      -5.6      0.000      0.000
REMARK  Name = pdb/CHEMBL3676034.pdb
REMARK                            x       y       z     vdW  Elec       q    Type
REMARK                         _______ _______ _______ _____ _____    ______ ____
ROOT
ATOM      1  C   LIG    1      -19.367  85.915  12.928  0.00  0.00    +0.100 A 
ATOM      2  C   LIG    1      -19.577  84.566  13.149  0.00  0.00    +0.170 A 
ATOM      3  N   LIG    1      -20.331  83.884  14.075  0.00  0.00    -0.212 NA
ATOM      4  C   LIG    1      -20.318  82.568  14.044  0.00  0.00    +0.126 A 
ATOM      5  C   LIG    1      -19.487  81.807  13.034  0.00  0.00    +0.063 A 
ATOM      6  C   LIG    1      -18.766  82.519  12.164  0.00  0.00    +0.118 A 
ATOM      7  N   LIG    1      -18.806  83.900  12.195  0.00  0.00    -0.221 N 
ATOM      8  N   LIG    1      -18.138  84.750  11.385  0.00  0.00    -0.173 NA
ATOM      9  C   LIG    1      -18.487  85.959  11.826  0.00  0.00    +0.150 A 
ENDROOT
BRANCH   4  10
ATOM     10  N   LIG    1      -21.085  81.853  14.954  0.00  0.00    -0.308 N 
ATOM     11  C   LIG    1      -22.425  82.284  15.407  0.00  0.00    +0.108 C 
ATOM     12  C   LIG    1      -22.525  81.645  16.809  0.00  0.00    +0.029 C 
ATOM     13  C   LIG    1      -21.728  80.359  16.673  0.00  0.00    +0.021 C 
ATOM     14  C   LIG    1      -20.560  80.792  15.807  0.00  0.00    +0.107 C 
BRANCH  11  15
ATOM     15  C   LIG    1      -23.539  81.839  14.474  0.00  0.00    +0.011 A 
ATOM     16  C   LIG    1      -23.872  82.614  13.352  0.00  0.00    +0.129 A 
ATOM     17  F   LIG    1      -23.222  83.763  13.113  0.00  0.00    -0.205 F 
ATOM     18  C   LIG    1      -24.877  82.228  12.460  0.00  0.00    +0.041 A 
ATOM     19  C   LIG    1      -25.559  81.032  12.667  0.00  0.00    +0.041 A 
ATOM     20  C   LIG    1      -25.230  80.245  13.760  0.00  0.00    +0.124 A 
ATOM     21  F   LIG    1      -25.872  79.087  13.960  0.00  0.00    -0.205 F 
ATOM     22  C   LIG    1      -24.240  80.637  14.657  0.00  0.00    +0.046 A 
ENDBRANCH  11  15
ENDBRANCH   4  10
BRANCH   1  25
ATOM     23  N   LIG    1      -20.886  87.741  13.008  0.00  0.00    -0.309 N 
ATOM     24  H   LIG    1      -21.063  87.531  12.030  0.00  0.00    +0.149 HD
ATOM     25  C   LIG    1      -19.877  87.063  13.650  0.00  0.00    +0.249 C 
ATOM     26  O   LIG    1      -19.485  87.346  14.769  0.00  0.00    -0.270 OA
BRANCH  23  27
ATOM     27  C   LIG    1      -21.548  88.892  13.592  0.00  0.00    +0.132 C 
BRANCH  27  28
ATOM     28  C   LIG    1      -22.655  88.468  14.557  0.00  0.00    +0.174 C 
BRANCH  28  29
ATOM     29  O   LIG    1      -22.143  88.396  15.887  0.00  0.00    -0.393 OA
ATOM     30  H   LIG    1      -22.827  87.967  16.429  0.00  0.00    +0.209 HD
ENDBRANCH  28  29
ENDBRANCH  27  28
ENDBRANCH  23  27
ENDBRANCH   1  25
TORSDOF 6
ENDMDL
MODEL 2
REMARK VINA RESULT:      -5.5     22.461     24.012
REMARK  Name = pdb/CHEMBL3676034.pdb
REMARK                            x       y       z     vdW  Elec       q    Type
REMARK                         _______ _______ _______ _____ _____    ______ ____
ROOT
ATOM      1  C   LIG    1      -36.976  68.587  22.312  0.00  0.00    +0.100 A 
ATOM      2  C   LIG    1      -38.115  69.277  22.684  0.00  0.00    +0.170 A 
ATOM      3  N   LIG    1      -38.441  69.989  23.814  0.00  0.00    -0.212 NA
ATOM      4  C   LIG    1      -39.637  70.534  23.886  0.00  0.00    +0.126 A 
ATOM      5  C   LIG    1      -40.648  70.377  22.771  0.00  0.00    +0.063 A 
ATOM      6  C   LIG    1      -40.283  69.667  21.700  0.00  0.00    +0.118 A 
ATOM      7  N   LIG    1      -39.016  69.120  21.630  0.00  0.00    -0.221 N 
ATOM      8  N   LIG    1      -38.505  68.383  20.618  0.00  0.00    -0.173 NA
ATOM      9  C   LIG    1      -37.276  68.075  21.032  0.00  0.00    +0.150 A 
ENDROOT
BRANCH   4  10
ATOM     10  N   LIG    1      -39.987  71.275  25.007  0.00  0.00    -0.308 N 
ATOM     11  C   LIG    1      -39.346  72.558  25.369  0.00  0.00    +0.108 C 
ATOM     12  C   LIG    1      -39.523  72.597  26.903  0.00  0.00    +0.029 C 
ATOM     13  C   LIG    1      -40.842  71.879  27.129  0.00  0.00    +0.021 C 
ATOM     14  C   LIG    1      -40.775  70.750  26.118  0.00  0.00    +0.107 C 
BRANCH  11  15
ATOM     15  C   LIG    1      -39.973  73.753  24.671  0.00  0.00    +0.011 A 
ATOM     16  C   LIG    1      -39.305  74.987  24.648  0.00  0.00    +0.129 A 
ATOM     17  F   LIG    1      -38.121  75.121  25.264  0.00  0.00    -0.205 F 
ATOM     18  C   LIG    1      -39.840  76.104  24.000  0.00  0.00    +0.041 A 
ATOM     19  C   LIG    1      -41.058  75.997  23.335  0.00  0.00    +0.041 A 
ATOM     20  C   LIG    1      -41.723  74.779  23.331  0.00  0.00    +0.124 A 
ATOM     21  F   LIG    1      -42.890  74.663  22.684  0.00  0.00    -0.205 F 
ATOM     22  C   LIG    1      -41.198  73.671  23.990  0.00  0.00    +0.046 A 
ENDBRANCH  11  15
ENDBRANCH   4  10
BRANCH   1  25
ATOM     23  N   LIG    1      -35.765  68.810  24.344  0.00  0.00    -0.309 N 
ATOM     24  H   LIG    1      -36.532  69.407  24.641  0.00  0.00    +0.149 HD
ATOM     25  C   LIG    1      -35.742  68.374  23.041  0.00  0.00    +0.249 C 
ATOM     26  O   LIG    1      -34.796  67.786  22.547  0.00  0.00    -0.270 OA
BRANCH  23  27
ATOM     27  C   LIG    1      -34.638  68.647  25.242  0.00  0.00    +0.132 C 
BRANCH  27  28
ATOM     28  C   LIG    1      -34.350  69.932  26.018  0.00  0.00    +0.174 C 
BRANCH  28  29
ATOM     29  O   LIG    1      -34.521  71.064  25.167  0.00  0.00    -0.393 OA
ATOM     30  H   LIG    1      -34.389  70.754  24.255  0.00  0.00    +0.209 HD
ENDBRANCH  28  29
ENDBRANCH  27  28
ENDBRANCH  23  27
ENDBRANCH   1  25
TORSDOF 6
ENDMDL
MODEL 3
REMARK VINA RESULT:      -5.4     18.715     21.364
REMARK  Name = pdb/CHEMBL3676034.pdb
REMARK                            x       y       z     vdW  Elec       q    Type
REMARK                         _______ _______ _______ _____ _____    ______ ____
ROOT
ATOM      1  C   LIG    1      -23.485  82.070  36.401  0.00  0.00    +0.100 A 
ATOM      2  C   LIG    1      -23.181  80.899  35.732  0.00  0.00    +0.170 A 
ATOM      3  N   LIG    1      -23.958  79.851  35.295  0.00  0.00    -0.212 NA
ATOM      4  C   LIG    1      -23.365  78.846  34.687  0.00  0.00    +0.126 A 
ATOM      5  C   LIG    1      -21.866  78.815  34.482  0.00  0.00    +0.063 A 
ATOM      6  C   LIG    1      -21.158  79.853  34.934  0.00  0.00    +0.118 A 
ATOM      7  N   LIG    1      -21.797  80.913  35.551  0.00  0.00    -0.221 N 
ATOM      8  N   LIG    1      -21.221  82.026  36.056  0.00  0.00    -0.173 NA
ATOM      9  C   LIG    1      -22.243  82.720  36.557  0.00  0.00    +0.150 A 
ENDROOT
BRANCH   4  10
ATOM     10  N   LIG    1      -24.126  77.783  34.218  0.00  0.00    -0.308 N 
ATOM     11  C   LIG    1      -24.801  77.782  32.903  0.00  0.00    +0.108 C 
ATOM     12  C   LIG    1      -25.991  76.826  33.140  0.00  0.00    +0.029 C 
ATOM     13  C   LIG    1      -25.448  75.822  34.141  0.00  0.00    +0.021 C 
ATOM     14  C   LIG    1      -24.617  76.697  35.061  0.00  0.00    +0.107 C 
BRANCH  11  15
ATOM     15  C   LIG    1      -23.896  77.330  31.769  0.00  0.00    +0.011 A 
ATOM     16  C   LIG    1      -24.099  77.814  30.468  0.00  0.00    +0.129 A 
ATOM     17  F   LIG    1      -25.110  78.658  30.216  0.00  0.00    -0.205 F 
ATOM     18  C   LIG    1      -23.275  77.436  29.403  0.00  0.00    +0.041 A 
ATOM     19  C   LIG    1      -22.205  76.575  29.632  0.00  0.00    +0.041 A 
ATOM     20  C   LIG    1      -21.978  76.103  30.917  0.00  0.00    +0.124 A 
ATOM     21  F   LIG    1      -20.944  75.285  31.148  0.00  0.00    -0.205 F 
ATOM     22  C   LIG    1      -22.808  76.466  31.973  0.00  0.00    +0.046 A 
ENDBRANCH  11  15
ENDBRANCH   4  10
BRANCH   1  25
ATOM     23  N   LIG    1      -25.401  81.705  37.760  0.00  0.00    -0.309 N 
ATOM     24  H   LIG    1      -25.058  80.752  37.845  0.00  0.00    +0.149 HD
ATOM     25  C   LIG    1      -24.761  82.554  36.889  0.00  0.00    +0.249 C 
ATOM     26  O   LIG    1      -25.182  83.661  36.600  0.00  0.00    -0.270 OA
BRANCH  23  27
ATOM     27  C   LIG    1      -26.668  82.035  38.383  0.00  0.00    +0.132 C 
BRANCH  27  28
ATOM     28  C   LIG    1      -27.847  81.638  37.495  0.00  0.00    +0.174 C 
BRANCH  28  29
ATOM     29  O   LIG    1      -28.173  82.707  36.609  0.00  0.00    -0.393 OA
ATOM     30  H   LIG    1      -27.801  82.476  35.741  0.00  0.00    +0.209 HD
ENDBRANCH  28  29
ENDBRANCH  27  28
ENDBRANCH  23  27
ENDBRANCH   1  25
TORSDOF 6
ENDMDL
MODEL 4
REMARK VINA RESULT:      -5.4     18.565     21.342
REMARK  Name = pdb/CHEMBL3676034.pdb
REMARK                            x       y       z     vdW  Elec       q    Type
REMARK                         _______ _______ _______ _____ _____    ______ ____
ROOT
ATOM      1  C   LIG    1      -36.496  76.510  26.772  0.00  0.00    +0.100 A 
ATOM      2  C   LIG    1      -37.360  77.588  26.833  0.00  0.00    +0.170 A 
ATOM      3  N   LIG    1      -37.212  78.871  27.303  0.00  0.00    -0.212 NA
ATOM      4  C   LIG    1      -38.245  79.684  27.238  0.00  0.00    +0.126 A 
ATOM      5  C   LIG    1      -39.577  79.230  26.680  0.00  0.00    +0.063 A 
ATOM      6  C   LIG    1      -39.669  77.971  26.245  0.00  0.00    +0.118 A 
ATOM      7  N   LIG    1      -38.569  77.136  26.300  0.00  0.00    -0.221 N 
ATOM      8  N   LIG    1      -38.508  75.846  25.900  0.00  0.00    -0.173 NA
ATOM      9  C   LIG    1      -37.257  75.481  26.180  0.00  0.00    +0.150 A 
ENDROOT
BRANCH   4  10
ATOM     10  N   LIG    1      -38.119  80.991  27.688  0.00  0.00    -0.308 N 
ATOM     11  C   LIG    1      -37.296  82.012  27.005  0.00  0.00    +0.108 C 
ATOM     12  C   LIG    1      -36.915  82.962  28.163  0.00  0.00    +0.029 C 
ATOM     13  C   LIG    1      -38.121  82.901  29.085  0.00  0.00    +0.021 C 
ATOM     14  C   LIG    1      -38.502  81.434  29.025  0.00  0.00    +0.107 C 
BRANCH  11  15
ATOM     15  C   LIG    1      -38.034  82.718  25.880  0.00  0.00    +0.011 A 
ATOM     16  C   LIG    1      -37.323  83.463  24.927  0.00  0.00    +0.129 A 
ATOM     17  F   LIG    1      -35.989  83.575  25.021  0.00  0.00    -0.205 F 
ATOM     18  C   LIG    1      -37.965  84.110  23.867  0.00  0.00    +0.041 A 
ATOM     19  C   LIG    1      -39.346  84.000  23.728  0.00  0.00    +0.041 A 
ATOM     20  C   LIG    1      -40.062  83.251  24.651  0.00  0.00    +0.124 A 
ATOM     21  F   LIG    1      -41.389  83.130  24.518  0.00  0.00    -0.205 F 
ATOM     22  C   LIG    1      -39.425  82.621  25.715  0.00  0.00    +0.046 A 
ENDBRANCH  11  15
ENDBRANCH   4  10
BRANCH   1  25
ATOM     23  N   LIG    1      -34.399  77.559  27.157  0.00  0.00    -0.309 N 
ATOM     24  H   LIG    1      -34.782  78.336  26.627  0.00  0.00    +0.149 HD
ATOM     25  C   LIG    1      -35.126  76.394  27.229  0.00  0.00    +0.249 C 
ATOM     26  O   LIG    1      -34.692  75.361  27.708  0.00  0.00    -0.270 OA
BRANCH  23  27
ATOM     27  C   LIG    1      -33.023  77.649  27.607  0.00  0.00    +0.132 C 
BRANCH  27  28
ATOM     28  C   LIG    1      -32.316  78.862  27.003  0.00  0.00    +0.174 C 
BRANCH  28  29
ATOM     29  O   LIG    1      -32.353  78.789  25.579  0.00  0.00    -0.393 OA
ATOM     30  H   LIG    1      -33.260  79.013  25.309  0.00  0.00    +0.209 HD
ENDBRANCH  28  29
ENDBRANCH  27  28
ENDBRANCH  23  27
ENDBRANCH   1  25
TORSDOF 6
ENDMDL
MODEL 5
REMARK VINA RESULT:      -5.4     14.663     17.045
REMARK  Name = pdb/CHEMBL3676034.pdb
REMARK                            x       y       z     vdW  Elec       q    Type
REMARK                         _______ _______ _______ _____ _____    ______ ____
ROOT
ATOM      1  C   LIG    1      -31.915  93.782  23.913  0.00  0.00    +0.100 A 
ATOM      2  C   LIG    1      -32.346  93.607  22.610  0.00  0.00    +0.170 A 
ATOM      3  N   LIG    1      -33.472  93.029  22.075  0.00  0.00    -0.212 NA
ATOM      4  C   LIG    1      -33.597  92.999  20.765  0.00  0.00    +0.126 A 
ATOM      5  C   LIG    1      -32.530  93.564  19.854  0.00  0.00    +0.063 A 
ATOM      6  C   LIG    1      -31.451  94.106  20.425  0.00  0.00    +0.118 A 
ATOM      7  N   LIG    1      -31.344  94.150  21.803  0.00  0.00    -0.221 N 
ATOM      8  N   LIG    1      -30.321  94.662  22.522  0.00  0.00    -0.173 NA
ATOM      9  C   LIG    1      -30.676  94.445  23.789  0.00  0.00    +0.150 A 
ENDROOT
BRANCH   4  10
ATOM     10  N   LIG    1      -34.734  92.439  20.197  0.00  0.00    -0.308 N 
ATOM     11  C   LIG    1      -35.094  92.593  18.771  0.00  0.00    +0.108 C 
ATOM     12  C   LIG    1      -36.631  92.454  18.799  0.00  0.00    +0.029 C 
ATOM     13  C   LIG    1      -36.881  91.479  19.937  0.00  0.00    +0.021 C 
ATOM     14  C   LIG    1      -35.858  91.915  20.968  0.00  0.00    +0.107 C 
BRANCH  11  15
ATOM     15  C   LIG    1      -34.422  91.567  17.874  0.00  0.00    +0.011 A 
ATOM     16  C   LIG    1      -33.858  91.961  16.651  0.00  0.00    +0.129 A 
ATOM     17  F   LIG    1      -33.930  93.243  16.260  0.00  0.00    -0.205 F 
ATOM     18  C   LIG    1      -33.215  91.051  15.807  0.00  0.00    +0.041 A 
ATOM     19  C   LIG    1      -33.105  89.716  16.190  0.00  0.00    +0.041 A 
ATOM     20  C   LIG    1      -33.641  89.314  17.405  0.00  0.00    +0.124 A 
ATOM     21  F   LIG    1      -33.529  88.035  17.787  0.00  0.00    -0.205 F 
ATOM     22  C   LIG    1      -34.295  90.217  18.237  0.00  0.00    +0.046 A 
ENDBRANCH  11  15
ENDBRANCH   4  10
BRANCH   1  25
ATOM     23  N   LIG    1      -32.759  92.017  25.261  0.00  0.00    -0.309 N 
ATOM     24  H   LIG    1      -32.672  91.446  24.425  0.00  0.00    +0.149 HD
ATOM     25  C   LIG    1      -32.533  93.369  25.156  0.00  0.00    +0.249 C 
ATOM     26  O   LIG    1      -32.757  94.158  26.057  0.00  0.00    -0.270 OA
BRANCH  23  27
ATOM     27  C   LIG    1      -33.332  91.410  26.448  0.00  0.00    +0.132 C 
BRANCH  27  28
ATOM     28  C   LIG    1      -34.848  91.270  26.327  0.00  0.00    +0.174 C 
BRANCH  28  29
ATOM     29  O   LIG    1      -35.175  90.058  25.649  0.00  0.00    -0.393 OA
ATOM     30  H   LIG    1      -35.579  89.468  26.307  0.00  0.00    +0.209 HD
ENDBRANCH  28  29
ENDBRANCH  27  28
ENDBRANCH  23  27
ENDBRANCH   1  25
TORSDOF 6
ENDMDL
MODEL 6
REMARK VINA RESULT:      -5.4     19.266     22.395
REMARK  Name = pdb/CHEMBL3676034.pdb
REMARK                            x       y       z     vdW  Elec       q    Type
REMARK                         _______ _______ _______ _____ _____    ______ ____
ROOT
ATOM      1  C   LIG    1      -36.843  76.507  26.669  0.00  0.00    +0.100 A 
ATOM      2  C   LIG    1      -37.666  75.611  26.012  0.00  0.00    +0.170 A 
ATOM      3  N   LIG    1      -37.535  74.274  25.718  0.00  0.00    -0.212 NA
ATOM      4  C   LIG    1      -38.505  73.683  25.051  0.00  0.00    +0.126 A 
ATOM      5  C   LIG    1      -39.731  74.444  24.595  0.00  0.00    +0.063 A 
ATOM      6  C   LIG    1      -39.803  75.742  24.899  0.00  0.00    +0.118 A 
ATOM      7  N   LIG    1      -38.788  76.343  25.619  0.00  0.00    -0.221 N 
ATOM      8  N   LIG    1      -38.720  77.638  26.000  0.00  0.00    -0.173 NA
ATOM      9  C   LIG    1      -37.552  77.726  26.638  0.00  0.00    +0.150 A 
ENDROOT
BRANCH   4  10
ATOM     10  N   LIG    1      -38.408  72.330  24.756  0.00  0.00    -0.308 N 
ATOM     11  C   LIG    1      -37.132  71.582  24.768  0.00  0.00    +0.108 C 
ATOM     12  C   LIG    1      -37.403  70.445  23.759  0.00  0.00    +0.029 C 
ATOM     13  C   LIG    1      -38.887  70.168  23.924  0.00  0.00    +0.021 C 
ATOM     14  C   LIG    1      -39.461  71.561  24.100  0.00  0.00    +0.107 C 
BRANCH  11  15
ATOM     15  C   LIG    1      -36.756  71.070  26.149  0.00  0.00    +0.011 A 
ATOM     16  C   LIG    1      -35.421  70.754  26.444  0.00  0.00    +0.129 A 
ATOM     17  F   LIG    1      -34.476  70.880  25.500  0.00  0.00    -0.205 F 
ATOM     18  C   LIG    1      -35.032  70.299  27.707  0.00  0.00    +0.041 A 
ATOM     19  C   LIG    1      -35.983  70.174  28.717  0.00  0.00    +0.041 A 
ATOM     20  C   LIG    1      -37.305  70.501  28.447  0.00  0.00    +0.124 A 
ATOM     21  F   LIG    1      -38.224  70.395  29.415  0.00  0.00    -0.205 F 
ATOM     22  C   LIG    1      -37.694  70.938  27.185  0.00  0.00    +0.046 A 
ENDBRANCH  11  15
ENDBRANCH   4  10
BRANCH   1  25
ATOM     23  N   LIG    1      -34.573  77.195  26.813  0.00  0.00    -0.309 N 
ATOM     24  H   LIG    1      -34.784  77.777  26.007  0.00  0.00    +0.149 HD
ATOM     25  C   LIG    1      -35.529  76.307  27.245  0.00  0.00    +0.249 C 
ATOM     26  O   LIG    1      -35.322  75.462  28.100  0.00  0.00    -0.270 OA
BRANCH  23  27
ATOM     27  C   LIG    1      -33.210  77.178  27.308  0.00  0.00    +0.132 C 
BRANCH  27  28
ATOM     28  C   LIG    1      -32.507  78.511  27.054  0.00  0.00    +0.174 C 
BRANCH  28  29
ATOM     29  O   LIG    1      -32.336  78.715  25.653  0.00  0.00    -0.393 OA
ATOM     30  H   LIG    1      -32.654  79.612  25.458  0.00  0.00    +0.209 HD
ENDBRANCH  28  29
ENDBRANCH  27  28
ENDBRANCH  23  27
ENDBRANCH   1  25
TORSDOF 6
ENDMDL
MODEL 7
REMARK VINA RESULT:      -5.3     21.410     24.103
REMARK  Name = pdb/CHEMBL3676034.pdb
REMARK                            x       y       z     vdW  Elec       q    Type
REMARK                         _______ _______ _______ _____ _____    ______ ____
ROOT
ATOM      1  C   LIG    1      -38.121  75.123  25.391  0.00  0.00    +0.100 A 
ATOM      2  C   LIG    1      -39.329  75.342  24.755  0.00  0.00    +0.170 A 
ATOM      3  N   LIG    1      -40.484  74.601  24.678  0.00  0.00    -0.212 NA
ATOM      4  C   LIG    1      -41.485  75.076  23.967  0.00  0.00    +0.126 A 
ATOM      5  C   LIG    1      -41.379  76.393  23.230  0.00  0.00    +0.063 A 
ATOM      6  C   LIG    1      -40.231  77.068  23.331  0.00  0.00    +0.118 A 
ATOM      7  N   LIG    1      -39.197  76.567  24.099  0.00  0.00    -0.221 N 
ATOM      8  N   LIG    1      -37.985  77.131  24.296  0.00  0.00    -0.173 NA
ATOM      9  C   LIG    1      -37.348  76.262  25.081  0.00  0.00    +0.150 A 
ENDROOT
BRANCH   4  10
ATOM     10  N   LIG    1      -42.671  74.358  23.887  0.00  0.00    -0.308 N 
ATOM     11  C   LIG    1      -43.288  73.942  22.609  0.00  0.00    +0.108 C 
ATOM     12  C   LIG    1      -44.785  73.854  22.975  0.00  0.00    +0.029 C 
ATOM     13  C   LIG    1      -44.772  73.414  24.429  0.00  0.00    +0.021 C 
ATOM     14  C   LIG    1      -43.607  74.203  24.996  0.00  0.00    +0.107 C 
BRANCH  11  15
ATOM     15  C   LIG    1      -42.730  72.632  22.077  0.00  0.00    +0.011 A 
ATOM     16  C   LIG    1      -43.047  72.206  20.778  0.00  0.00    +0.129 A 
ATOM     17  F   LIG    1      -43.864  72.943  20.010  0.00  0.00    -0.205 F 
ATOM     18  C   LIG    1      -42.538  71.017  20.247  0.00  0.00    +0.041 A 
ATOM     19  C   LIG    1      -41.674  70.236  21.010  0.00  0.00    +0.041 A 
ATOM     20  C   LIG    1      -41.335  70.653  22.289  0.00  0.00    +0.124 A 
ATOM     21  F   LIG    1      -40.494  69.915  23.025  0.00  0.00    -0.205 F 
ATOM     22  C   LIG    1      -41.854  71.828  22.824  0.00  0.00    +0.046 A 
ENDBRANCH  11  15
ENDBRANCH   4  10
BRANCH   1  25
ATOM     23  N   LIG    1      -38.012  72.764  25.652  0.00  0.00    -0.309 N 
ATOM     24  H   LIG    1      -38.687  72.731  24.893  0.00  0.00    +0.149 HD
ATOM     25  C   LIG    1      -37.679  73.990  26.178  0.00  0.00    +0.249 C 
ATOM     26  O   LIG    1      -37.002  74.127  27.182  0.00  0.00    -0.270 OA
BRANCH  23  27
ATOM     27  C   LIG    1      -37.622  71.514  26.277  0.00  0.00    +0.132 C 
BRANCH  27  28
ATOM     28  C   LIG    1      -36.488  70.836  25.509  0.00  0.00    +0.174 C 
BRANCH  28  29
ATOM     29  O   LIG    1      -36.271  71.505  24.268  0.00  0.00    -0.393 OA
ATOM     30  H   LIG    1      -37.110  71.470  23.778  0.00  0.00    +0.209 HD
ENDBRANCH  28  29
ENDBRANCH  27  28
ENDBRANCH  23  27
ENDBRANCH   1  25
TORSDOF 6
ENDMDL
MODEL 8
REMARK VINA RESULT:      -5.3      3.226      6.212
REMARK  Name = pdb/CHEMBL3676034.pdb
REMARK                            x       y       z     vdW  Elec       q    Type
REMARK                         _______ _______ _______ _____ _____    ______ ____
ROOT
ATOM      1  C   LIG    1      -23.663  81.423  13.761  0.00  0.00    +0.100 A 
ATOM      2  C   LIG    1      -22.376  81.893  13.952  0.00  0.00    +0.170 A 
ATOM      3  N   LIG    1      -21.707  82.990  13.463  0.00  0.00    -0.212 NA
ATOM      4  C   LIG    1      -20.453  83.167  13.821  0.00  0.00    +0.126 A 
ATOM      5  C   LIG    1      -19.743  82.189  14.731  0.00  0.00    +0.063 A 
ATOM      6  C   LIG    1      -20.436  81.136  15.169  0.00  0.00    +0.118 A 
ATOM      7  N   LIG    1      -21.759  80.974  14.803  0.00  0.00    -0.221 N 
ATOM      8  N   LIG    1      -22.585  79.967  15.164  0.00  0.00    -0.173 NA
ATOM      9  C   LIG    1      -23.729  80.249  14.541  0.00  0.00    +0.150 A 
ENDROOT
BRANCH   4  10
ATOM     10  N   LIG    1      -19.758  84.277  13.358  0.00  0.00    -0.308 N 
ATOM     11  C   LIG    1      -20.359  85.309  12.486  0.00  0.00    +0.108 C 
ATOM     12  C   LIG    1      -19.133  85.854  11.722  0.00  0.00    +0.029 C 
ATOM     13  C   LIG    1      -18.001  85.731  12.728  0.00  0.00    +0.021 C 
ATOM     14  C   LIG    1      -18.305  84.404  13.397  0.00  0.00    +0.107 C 
BRANCH  11  15
ATOM     15  C   LIG    1      -21.099  86.386  13.262  0.00  0.00    +0.011 A 
ATOM     16  C   LIG    1      -21.936  87.290  12.590  0.00  0.00    +0.129 A 
ATOM     17  F   LIG    1      -22.067  87.221  11.257  0.00  0.00    -0.205 F 
ATOM     18  C   LIG    1      -22.648  88.282  13.271  0.00  0.00    +0.041 A 
ATOM     19  C   LIG    1      -22.551  88.372  14.657  0.00  0.00    +0.041 A 
ATOM     20  C   LIG    1      -21.742  87.473  15.339  0.00  0.00    +0.124 A 
ATOM     21  F   LIG    1      -21.652  87.544  16.673  0.00  0.00    -0.205 F 
ATOM     22  C   LIG    1      -21.021  86.496  14.659  0.00  0.00    +0.046 A 
ENDBRANCH  11  15
ENDBRANCH   4  10
BRANCH   1  25
ATOM     23  N   LIG    1      -24.324  82.868  11.994  0.00  0.00    -0.309 N 
ATOM     24  H   LIG    1      -23.385  83.251  12.066  0.00  0.00    +0.149 HD
ATOM     25  C   LIG    1      -24.729  81.952  12.935  0.00  0.00    +0.249 C 
ATOM     26  O   LIG    1      -25.876  81.549  13.028  0.00  0.00    -0.270 OA
BRANCH  23  27
ATOM     27  C   LIG    1      -25.241  83.476  11.049  0.00  0.00    +0.132 C 
BRANCH  27  28
ATOM     28  C   LIG    1      -25.873  84.744  11.621  0.00  0.00    +0.174 C 
BRANCH  28  29
ATOM     29  O   LIG    1      -27.046  84.415  12.362  0.00  0.00    -0.393 OA
ATOM     30  H   LIG    1      -27.030  84.954  13.171  0.00  0.00    +0.209 HD
ENDBRANCH  28  29
ENDBRANCH  27  28
ENDBRANCH  23  27
ENDBRANCH   1  25
TORSDOF 6
ENDMDL
MODEL 9
REMARK VINA RESULT:      -5.2     18.244     20.946
REMARK  Name = pdb/CHEMBL3676034.pdb
REMARK                            x       y       z     vdW  Elec       q    Type
REMARK                         _______ _______ _______ _____ _____    ______ ____
ROOT
ATOM      1  C   LIG    1      -29.406  76.337  32.389  0.00  0.00    +0.100 A 
ATOM      2  C   LIG    1      -28.069  76.649  32.550  0.00  0.00    +0.170 A 
ATOM      3  N   LIG    1      -26.981  76.527  31.718  0.00  0.00    -0.212 NA
ATOM      4  C   LIG    1      -25.804  76.907  32.170  0.00  0.00    +0.126 A 
ATOM      5  C   LIG    1      -25.629  77.447  33.572  0.00  0.00    +0.063 A 
ATOM      6  C   LIG    1      -26.717  77.535  34.341  0.00  0.00    +0.118 A 
ATOM      7  N   LIG    1      -27.950  77.154  33.846  0.00  0.00    -0.221 N 
ATOM      8  N   LIG    1      -29.133  77.186  34.499  0.00  0.00    -0.173 NA
ATOM      9  C   LIG    1      -30.004  76.702  33.613  0.00  0.00    +0.150 A 
ENDROOT
BRANCH   4  10
ATOM     10  N   LIG    1      -24.690  76.813  31.345  0.00  0.00    -0.308 N 
ATOM     11  C   LIG    1      -23.389  76.270  31.792  0.00  0.00    +0.108 C 
ATOM     12  C   LIG    1      -22.390  76.994  30.862  0.00  0.00    +0.029 C 
ATOM     13  C   LIG    1      -23.168  77.168  29.569  0.00  0.00    +0.021 C 
ATOM     14  C   LIG    1      -24.558  77.511  30.070  0.00  0.00    +0.107 C 
BRANCH  11  15
ATOM     15  C   LIG    1      -23.307  74.757  31.684  0.00  0.00    +0.011 A 
ATOM     16  C   LIG    1      -22.247  74.063  32.289  0.00  0.00    +0.129 A 
ATOM     17  F   LIG    1      -21.290  74.737  32.943  0.00  0.00    -0.205 F 
ATOM     18  C   LIG    1      -22.148  72.670  32.229  0.00  0.00    +0.041 A 
ATOM     19  C   LIG    1      -23.134  71.936  31.573  0.00  0.00    +0.041 A 
ATOM     20  C   LIG    1      -24.198  72.605  30.987  0.00  0.00    +0.124 A 
ATOM     21  F   LIG    1      -25.158  71.907  30.365  0.00  0.00    -0.205 F 
ATOM     22  C   LIG    1      -24.289  73.993  31.033  0.00  0.00    +0.046 A 
ENDBRANCH  11  15
ENDBRANCH   4  10
BRANCH   1  25
ATOM     23  N   LIG    1      -30.503  76.630  30.301  0.00  0.00    -0.309 N 
ATOM     24  H   LIG    1      -30.489  77.621  30.526  0.00  0.00    +0.149 HD
ATOM     25  C   LIG    1      -30.088  75.737  31.260  0.00  0.00    +0.249 C 
ATOM     26  O   LIG    1      -30.208  74.529  31.148  0.00  0.00    -0.270 OA
BRANCH  23  27
ATOM     27  C   LIG    1      -31.167  76.214  29.080  0.00  0.00    +0.132 C 
BRANCH  27  28
ATOM     28  C   LIG    1      -32.574  76.802  28.982  0.00  0.00    +0.174 C 
BRANCH  28  29
ATOM     29  O   LIG    1      -32.502  78.186  28.644  0.00  0.00    -0.393 OA
ATOM     30  H   LIG    1      -33.373  78.436  28.291  0.00  0.00    +0.209 HD
ENDBRANCH  28  29
ENDBRANCH  27  28
ENDBRANCH  23  27
ENDBRANCH   1  25
TORSDOF 6
ENDMDL
