MODEL 1
REMARK VINA RESULT:      -6.6      0.000      0.000
REMARK  Name = pdb/CHEMBL3673463.pdb
REMARK                            x       y       z     vdW  Elec       q    Type
REMARK                         _______ _______ _______ _____ _____    ______ ____
ROOT
ATOM      1  N   LIG    1      -25.225  82.258  37.731  0.00  0.00    -0.311 N 
ATOM      2  C   LIG    1      -24.841  81.335  36.805  0.00  0.00    +0.161 A 
ATOM      3  N   LIG    1      -25.595  80.420  36.192  0.00  0.00    -0.235 NA
ATOM      4  C   LIG    1      -24.871  79.637  35.342  0.00  0.00    +0.121 A 
ATOM      5  C   LIG    1      -23.494  79.735  35.093  0.00  0.00    +0.005 A 
ATOM      6  C   LIG    1      -22.780  80.744  35.753  0.00  0.00    +0.041 A 
ATOM      7  C   LIG    1      -23.469  81.563  36.645  0.00  0.00    +0.108 A 
ATOM      8  N   LIG    1      -23.045  82.591  37.438  0.00  0.00    -0.234 NA
ATOM      9  C   LIG    1      -24.125  82.990  38.087  0.00  0.00    +0.201 A 
ENDROOT
BRANCH   5  10
ATOM     10  C   LIG    1      -22.835  78.798  34.200  0.00  0.00    +0.021 A 
ATOM     11  C   LIG    1      -23.473  77.873  33.389  0.00  0.00    +0.117 A 
ATOM     12  N   LIG    1      -22.494  77.223  32.687  0.00  0.00    -0.268 N 
ATOM     13  N   LIG    1      -21.261  77.665  32.992  0.00  0.00    -0.179 NA
ATOM     14  C   LIG    1      -21.470  78.613  33.900  0.00  0.00    +0.143 A 
BRANCH  12  15
ATOM     15  C   LIG    1      -22.701  76.167  31.696  0.00  0.00    +0.110 C 
ATOM     16  C   LIG    1      -21.517  76.055  30.730  0.00  0.00    +0.042 C 
ATOM     17  C   LIG    1      -21.530  77.169  29.688  0.00  0.00    +0.083 C 
ATOM     18  N   LIG    1      -22.796  77.199  28.951  0.00  0.00    -0.316 NA
ATOM     19  H   LIG    1      -22.765  77.982  28.296  0.00  0.00    +0.122 HD
ATOM     20  C   LIG    1      -23.938  77.402  29.847  0.00  0.00    +0.083 C 
ATOM     21  C   LIG    1      -24.013  76.306  30.909  0.00  0.00    +0.042 C 
ENDBRANCH  12  15
ENDBRANCH   5  10
BRANCH   1  22
ATOM     22  C   LIG    1      -26.587  82.454  38.196  0.00  0.00    +0.160 C 
BRANCH  22  27
ATOM     23  C   LIG    1      -27.601  85.192  35.744  0.00  0.00    +0.162 A 
ATOM     24  C   LIG    1      -28.896  84.782  35.368  0.00  0.00    +0.162 A 
ATOM     25  C   LIG    1      -29.464  83.665  35.995  0.00  0.00    +0.050 A 
ATOM     26  C   LIG    1      -28.735  82.910  36.917  0.00  0.00    +0.009 A 
ATOM     27  C   LIG    1      -27.414  83.252  37.220  0.00  0.00    -0.024 A 
ATOM     28  C   LIG    1      -26.853  84.378  36.605  0.00  0.00    +0.054 A 
BRANCH  23  30
ATOM     29  C   LIG    1      -27.436  87.555  35.955  0.00  0.00    +0.277 C 
ATOM     30  O   LIG    1      -27.099  86.365  35.230  0.00  0.00    -0.491 OA
ENDBRANCH  23  30
BRANCH  24  31
ATOM     31  O   LIG    1      -29.569  85.499  34.401  0.00  0.00    -0.484 OA
BRANCH  31  32
ATOM     32  C   LIG    1      -30.565  84.752  33.670  0.00  0.00    +0.266 C 
BRANCH  32  33
ATOM     33  C   LIG    1      -31.136  85.513  32.495  0.00  0.00    +0.008 A 
ATOM     34  C   LIG    1      -31.260  86.895  32.500  0.00  0.00    +0.118 A 
ATOM     35  N   LIG    1      -31.848  87.616  31.512  0.00  0.00    -0.260 NA
ATOM     36  C   LIG    1      -32.325  86.938  30.444  0.00  0.00    +0.038 A 
ATOM     37  C   LIG    1      -33.141  87.704  29.445  0.00  0.00    +0.065 C 
ATOM     38  C   LIG    1      -32.141  85.571  30.288  0.00  0.00    +0.023 A 
ATOM     39  C   LIG    1      -31.565  84.849  31.335  0.00  0.00    +0.010 A 
ENDBRANCH  32  33
ENDBRANCH  31  32
ENDBRANCH  24  31
ENDBRANCH  22  27
ENDBRANCH   1  22
TORSDOF 8
ENDMDL
MODEL 2
REMARK VINA RESULT:      -6.6     17.873     21.742
REMARK  Name = pdb/CHEMBL3673463.pdb
REMARK                            x       y       z     vdW  Elec       q    Type
REMARK                         _______ _______ _______ _____ _____    ______ ____
ROOT
ATOM      1  N   LIG    1      -36.185  66.485  18.879  0.00  0.00    -0.311 N 
ATOM      2  C   LIG    1      -34.834  66.656  18.948  0.00  0.00    +0.161 A 
ATOM      3  N   LIG    1      -34.036  66.499  20.007  0.00  0.00    -0.235 NA
ATOM      4  C   LIG    1      -32.735  66.785  19.722  0.00  0.00    +0.121 A 
ATOM      5  C   LIG    1      -32.228  67.196  18.480  0.00  0.00    +0.005 A 
ATOM      6  C   LIG    1      -33.127  67.305  17.410  0.00  0.00    +0.041 A 
ATOM      7  C   LIG    1      -34.473  67.038  17.651  0.00  0.00    +0.108 A 
ATOM      8  N   LIG    1      -35.563  67.088  16.830  0.00  0.00    -0.234 NA
ATOM      9  C   LIG    1      -36.585  66.752  17.599  0.00  0.00    +0.201 A 
ENDROOT
BRANCH   5  10
ATOM     10  C   LIG    1      -30.821  67.522  18.326  0.00  0.00    +0.021 A 
ATOM     11  C   LIG    1      -30.199  68.660  18.816  0.00  0.00    +0.117 A 
ATOM     12  N   LIG    1      -28.874  68.557  18.488  0.00  0.00    -0.268 N 
ATOM     13  N   LIG    1      -28.596  67.427  17.813  0.00  0.00    -0.179 NA
ATOM     14  C   LIG    1      -29.768  66.807  17.719  0.00  0.00    +0.143 A 
BRANCH  12  15
ATOM     15  C   LIG    1      -27.828  69.526  18.814  0.00  0.00    +0.110 C 
ATOM     16  C   LIG    1      -28.417  70.887  19.200  0.00  0.00    +0.042 C 
ATOM     17  C   LIG    1      -28.891  71.665  17.976  0.00  0.00    +0.083 C 
ATOM     18  N   LIG    1      -27.816  71.827  16.994  0.00  0.00    -0.316 NA
ATOM     19  H   LIG    1      -28.196  72.320  16.184  0.00  0.00    +0.122 HD
ATOM     20  C   LIG    1      -27.301  70.533  16.538  0.00  0.00    +0.083 C 
ATOM     21  C   LIG    1      -26.778  69.699  17.706  0.00  0.00    +0.042 C 
ENDBRANCH  12  15
ENDBRANCH   5  10
BRANCH   1  22
ATOM     22  C   LIG    1      -37.023  66.032  19.976  0.00  0.00    +0.160 C 
BRANCH  22  27
ATOM     23  C   LIG    1      -40.167  67.984  20.893  0.00  0.00    +0.162 A 
ATOM     24  C   LIG    1      -39.629  69.134  21.505  0.00  0.00    +0.162 A 
ATOM     25  C   LIG    1      -38.238  69.305  21.524  0.00  0.00    +0.050 A 
ATOM     26  C   LIG    1      -37.386  68.318  21.025  0.00  0.00    +0.009 A 
ATOM     27  C   LIG    1      -37.909  67.130  20.507  0.00  0.00    -0.024 A 
ATOM     28  C   LIG    1      -39.300  66.966  20.474  0.00  0.00    +0.054 A 
BRANCH  23  30
ATOM     29  C   LIG    1      -42.130  66.713  21.325  0.00  0.00    +0.277 C 
ATOM     30  O   LIG    1      -41.532  67.882  20.753  0.00  0.00    -0.491 OA
ENDBRANCH  23  30
BRANCH  24  31
ATOM     31  O   LIG    1      -40.488  70.061  22.058  0.00  0.00    -0.484 OA
BRANCH  31  32
ATOM     32  C   LIG    1      -40.380  70.215  23.489  0.00  0.00    +0.266 C 
BRANCH  32  33
ATOM     33  C   LIG    1      -39.747  71.525  23.901  0.00  0.00    +0.008 A 
ATOM     34  C   LIG    1      -38.465  71.592  24.427  0.00  0.00    +0.118 A 
ATOM     35  N   LIG    1      -37.886  72.728  24.894  0.00  0.00    -0.260 NA
ATOM     36  C   LIG    1      -38.605  73.870  24.823  0.00  0.00    +0.038 A 
ATOM     37  C   LIG    1      -38.050  75.083  25.509  0.00  0.00    +0.065 C 
ATOM     38  C   LIG    1      -39.847  73.929  24.203  0.00  0.00    +0.023 A 
ATOM     39  C   LIG    1      -40.433  72.742  23.762  0.00  0.00    +0.010 A 
ENDBRANCH  32  33
ENDBRANCH  31  32
ENDBRANCH  24  31
ENDBRANCH  22  27
ENDBRANCH   1  22
TORSDOF 8
ENDMDL
MODEL 3
REMARK VINA RESULT:      -6.6     17.142     19.820
REMARK  Name = pdb/CHEMBL3673463.pdb
REMARK                            x       y       z     vdW  Elec       q    Type
REMARK                         _______ _______ _______ _____ _____    ______ ____
ROOT
ATOM      1  N   LIG    1      -40.801  70.460  22.915  0.00  0.00    -0.311 N 
ATOM      2  C   LIG    1      -39.612  69.795  22.880  0.00  0.00    +0.161 A 
ATOM      3  N   LIG    1      -38.686  69.710  23.838  0.00  0.00    -0.235 NA
ATOM      4  C   LIG    1      -37.601  68.984  23.447  0.00  0.00    +0.121 A 
ATOM      5  C   LIG    1      -37.420  68.367  22.199  0.00  0.00    +0.005 A 
ATOM      6  C   LIG    1      -38.454  68.477  21.260  0.00  0.00    +0.041 A 
ATOM      7  C   LIG    1      -39.580  69.222  21.603  0.00  0.00    +0.108 A 
ATOM      8  N   LIG    1      -40.711  69.523  20.900  0.00  0.00    -0.234 NA
ATOM      9  C   LIG    1      -41.430  70.276  21.715  0.00  0.00    +0.201 A 
ENDROOT
BRANCH   5  10
ATOM     10  C   LIG    1      -36.186  67.666  21.893  0.00  0.00    +0.021 A 
ATOM     11  C   LIG    1      -35.899  67.023  20.699  0.00  0.00    +0.117 A 
ATOM     12  N   LIG    1      -34.627  66.530  20.812  0.00  0.00    -0.268 N 
ATOM     13  N   LIG    1      -34.071  66.809  22.004  0.00  0.00    -0.179 NA
ATOM     14  C   LIG    1      -35.009  67.493  22.650  0.00  0.00    +0.143 A 
BRANCH  12  15
ATOM     15  C   LIG    1      -33.897  65.786  19.785  0.00  0.00    +0.110 C 
ATOM     16  C   LIG    1      -32.399  66.107  19.810  0.00  0.00    +0.042 C 
ATOM     17  C   LIG    1      -32.101  67.462  19.176  0.00  0.00    +0.083 C 
ATOM     18  N   LIG    1      -32.624  67.543  17.810  0.00  0.00    -0.316 NA
ATOM     19  H   LIG    1      -32.431  68.478  17.449  0.00  0.00    +0.122 HD
ATOM     20  C   LIG    1      -34.074  67.333  17.774  0.00  0.00    +0.083 C 
ATOM     21  C   LIG    1      -34.456  65.978  18.367  0.00  0.00    +0.042 C 
ENDBRANCH  12  15
ENDBRANCH   5  10
BRANCH   1  22
ATOM     22  C   LIG    1      -41.318  71.180  24.066  0.00  0.00    +0.160 C 
BRANCH  22  27
ATOM     23  C   LIG    1      -39.500  74.518  24.361  0.00  0.00    +0.162 A 
ATOM     24  C   LIG    1      -40.450  75.416  23.836  0.00  0.00    +0.162 A 
ATOM     25  C   LIG    1      -41.717  74.933  23.481  0.00  0.00    +0.050 A 
ATOM     26  C   LIG    1      -42.014  73.570  23.560  0.00  0.00    +0.009 A 
ATOM     27  C   LIG    1      -41.043  72.660  23.984  0.00  0.00    -0.024 A 
ATOM     28  C   LIG    1      -39.783  73.146  24.355  0.00  0.00    +0.054 A 
BRANCH  23  30
ATOM     29  C   LIG    1      -38.073  74.828  26.239  0.00  0.00    +0.277 C 
ATOM     30  O   LIG    1      -38.308  75.014  24.838  0.00  0.00    -0.491 OA
ENDBRANCH  23  30
BRANCH  24  31
ATOM     31  O   LIG    1      -40.110  76.745  23.699  0.00  0.00    -0.484 OA
BRANCH  31  32
ATOM     32  C   LIG    1      -40.925  77.665  24.454  0.00  0.00    +0.266 C 
BRANCH  32  33
ATOM     33  C   LIG    1      -40.808  79.096  23.977  0.00  0.00    +0.008 A 
ATOM     34  C   LIG    1      -41.894  79.960  23.961  0.00  0.00    +0.118 A 
ATOM     35  N   LIG    1      -41.863  81.221  23.460  0.00  0.00    -0.260 NA
ATOM     36  C   LIG    1      -40.688  81.666  22.962  0.00  0.00    +0.038 A 
ATOM     37  C   LIG    1      -40.695  82.979  22.236  0.00  0.00    +0.065 C 
ATOM     38  C   LIG    1      -39.517  80.924  23.043  0.00  0.00    +0.023 A 
ATOM     39  C   LIG    1      -39.584  79.617  23.531  0.00  0.00    +0.010 A 
ENDBRANCH  32  33
ENDBRANCH  31  32
ENDBRANCH  24  31
ENDBRANCH  22  27
ENDBRANCH   1  22
TORSDOF 8
ENDMDL
MODEL 4
REMARK VINA RESULT:      -6.5      8.867     10.639
REMARK  Name = pdb/CHEMBL3673463.pdb
REMARK                            x       y       z     vdW  Elec       q    Type
REMARK                         _______ _______ _______ _____ _____    ______ ____
ROOT
ATOM      1  N   LIG    1      -28.534  91.554  34.217  0.00  0.00    -0.311 N 
ATOM      2  C   LIG    1      -27.387  91.373  34.930  0.00  0.00    +0.161 A 
ATOM      3  N   LIG    1      -27.181  90.559  35.968  0.00  0.00    -0.235 NA
ATOM      4  C   LIG    1      -25.913  90.657  36.459  0.00  0.00    +0.121 A 
ATOM      5  C   LIG    1      -24.896  91.491  35.972  0.00  0.00    +0.005 A 
ATOM      6  C   LIG    1      -25.184  92.292  34.858  0.00  0.00    +0.041 A 
ATOM      7  C   LIG    1      -26.470  92.242  34.326  0.00  0.00    +0.108 A 
ATOM      8  N   LIG    1      -27.041  92.914  33.283  0.00  0.00    -0.234 NA
ATOM      9  C   LIG    1      -28.290  92.482  33.242  0.00  0.00    +0.201 A 
ENDROOT
BRANCH   5  10
ATOM     10  C   LIG    1      -23.599  91.537  36.626  0.00  0.00    +0.021 A 
ATOM     11  C   LIG    1      -22.523  90.712  36.341  0.00  0.00    +0.117 A 
ATOM     12  N   LIG    1      -21.494  91.112  37.150  0.00  0.00    -0.268 N 
ATOM     13  N   LIG    1      -21.835  92.142  37.945  0.00  0.00    -0.179 NA
ATOM     14  C   LIG    1      -23.100  92.396  37.626  0.00  0.00    +0.143 A 
BRANCH  12  15
ATOM     15  C   LIG    1      -20.151  90.533  37.186  0.00  0.00    +0.110 C 
ATOM     16  C   LIG    1      -19.088  91.587  37.511  0.00  0.00    +0.042 C 
ATOM     17  C   LIG    1      -18.779  92.469  36.305  0.00  0.00    +0.083 C 
ATOM     18  N   LIG    1      -18.377  91.671  35.145  0.00  0.00    -0.316 NA
ATOM     19  H   LIG    1      -18.220  92.305  34.360  0.00  0.00    +0.122 HD
ATOM     20  C   LIG    1      -19.422  90.718  34.756  0.00  0.00    +0.083 C 
ATOM     21  C   LIG    1      -19.770  89.774  35.906  0.00  0.00    +0.042 C 
ENDBRANCH  12  15
ENDBRANCH   5  10
BRANCH   1  22
ATOM     22  C   LIG    1      -29.772  90.826  34.434  0.00  0.00    +0.160 C 
BRANCH  22  27
ATOM     23  C   LIG    1      -31.452  89.077  31.492  0.00  0.00    +0.162 A 
ATOM     24  C   LIG    1      -30.589  87.986  31.269  0.00  0.00    +0.162 A 
ATOM     25  C   LIG    1      -29.518  87.776  32.148  0.00  0.00    +0.050 A 
ATOM     26  C   LIG    1      -29.248  88.679  33.180  0.00  0.00    +0.009 A 
ATOM     27  C   LIG    1      -30.040  89.818  33.345  0.00  0.00    -0.024 A 
ATOM     28  C   LIG    1      -31.120  90.018  32.476  0.00  0.00    +0.054 A 
BRANCH  23  30
ATOM     29  C   LIG    1      -33.110  90.529  30.597  0.00  0.00    +0.277 C 
ATOM     30  O   LIG    1      -32.580  89.203  30.714  0.00  0.00    -0.491 OA
ENDBRANCH  23  30
BRANCH  24  31
ATOM     31  O   LIG    1      -30.832  87.149  30.200  0.00  0.00    -0.484 OA
BRANCH  31  32
ATOM     32  C   LIG    1      -31.254  85.815  30.552  0.00  0.00    +0.266 C 
BRANCH  32  33
ATOM     33  C   LIG    1      -32.584  85.430  29.943  0.00  0.00    +0.008 A 
ATOM     34  C   LIG    1      -33.157  86.154  28.907  0.00  0.00    +0.118 A 
ATOM     35  N   LIG    1      -34.386  85.905  28.386  0.00  0.00    -0.260 NA
ATOM     36  C   LIG    1      -35.085  84.871  28.904  0.00  0.00    +0.038 A 
ATOM     37  C   LIG    1      -36.512  84.711  28.469  0.00  0.00    +0.065 C 
ATOM     38  C   LIG    1      -34.549  84.013  29.856  0.00  0.00    +0.023 A 
ATOM     39  C   LIG    1      -33.299  84.312  30.398  0.00  0.00    +0.010 A 
ENDBRANCH  32  33
ENDBRANCH  31  32
ENDBRANCH  24  31
ENDBRANCH  22  27
ENDBRANCH   1  22
TORSDOF 8
ENDMDL
MODEL 5
REMARK VINA RESULT:      -6.4      6.908      8.530
REMARK  Name = pdb/CHEMBL3673463.pdb
REMARK                            x       y       z     vdW  Elec       q    Type
REMARK                         _______ _______ _______ _____ _____    ______ ____
ROOT
ATOM      1  N   LIG    1      -28.413  75.604  32.306  0.00  0.00    -0.311 N 
ATOM      2  C   LIG    1      -27.195  76.092  31.938  0.00  0.00    +0.161 A 
ATOM      3  N   LIG    1      -26.861  77.357  31.668  0.00  0.00    -0.235 NA
ATOM      4  C   LIG    1      -25.554  77.479  31.300  0.00  0.00    +0.121 A 
ATOM      5  C   LIG    1      -24.617  76.439  31.202  0.00  0.00    +0.005 A 
ATOM      6  C   LIG    1      -25.041  75.145  31.534  0.00  0.00    +0.041 A 
ATOM      7  C   LIG    1      -26.372  74.960  31.902  0.00  0.00    +0.108 A 
ATOM      8  N   LIG    1      -27.065  73.835  32.244  0.00  0.00    -0.234 NA
ATOM      9  C   LIG    1      -28.298  74.252  32.479  0.00  0.00    +0.201 A 
ENDROOT
BRANCH   5  10
ATOM     10  C   LIG    1      -23.264  76.702  30.744  0.00  0.00    +0.021 A 
ATOM     11  C   LIG    1      -22.280  77.353  31.470  0.00  0.00    +0.117 A 
ATOM     12  N   LIG    1      -21.153  77.355  30.692  0.00  0.00    -0.268 N 
ATOM     13  N   LIG    1      -21.344  76.750  29.507  0.00  0.00    -0.179 NA
ATOM     14  C   LIG    1      -22.614  76.357  29.542  0.00  0.00    +0.143 A 
BRANCH  12  15
ATOM     15  C   LIG    1      -19.856  77.925  31.057  0.00  0.00    +0.110 C 
ATOM     16  C   LIG    1      -18.705  76.962  30.744  0.00  0.00    +0.042 C 
ATOM     17  C   LIG    1      -18.611  75.841  31.774  0.00  0.00    +0.083 C 
ATOM     18  N   LIG    1      -18.485  76.370  33.134  0.00  0.00    -0.316 NA
ATOM     19  H   LIG    1      -18.464  75.582  33.783  0.00  0.00    +0.122 HD
ATOM     20  C   LIG    1      -19.626  77.220  33.491  0.00  0.00    +0.083 C 
ATOM     21  C   LIG    1      -19.774  78.390  32.519  0.00  0.00    +0.042 C 
ENDBRANCH  12  15
ENDBRANCH   5  10
BRANCH   1  22
ATOM     22  C   LIG    1      -29.599  76.411  32.531  0.00  0.00    +0.160 C 
BRANCH  22  27
ATOM     23  C   LIG    1      -33.034  75.479  31.163  0.00  0.00    +0.162 A 
ATOM     24  C   LIG    1      -32.814  75.518  29.771  0.00  0.00    +0.162 A 
ATOM     25  C   LIG    1      -31.518  75.753  29.294  0.00  0.00    +0.050 A 
ATOM     26  C   LIG    1      -30.469  76.033  30.174  0.00  0.00    +0.009 A 
ATOM     27  C   LIG    1      -30.700  76.095  31.551  0.00  0.00    -0.024 A 
ATOM     28  C   LIG    1      -31.993  75.844  32.027  0.00  0.00    +0.054 A 
BRANCH  23  30
ATOM     29  C   LIG    1      -34.505  75.339  33.027  0.00  0.00    +0.277 C 
ATOM     30  O   LIG    1      -34.275  75.113  31.630  0.00  0.00    -0.491 OA
ENDBRANCH  23  30
BRANCH  24  31
ATOM     31  O   LIG    1      -33.880  75.313  28.920  0.00  0.00    -0.484 OA
BRANCH  31  32
ATOM     32  C   LIG    1      -33.771  75.964  27.637  0.00  0.00    +0.266 C 
BRANCH  32  33
ATOM     33  C   LIG    1      -34.207  77.412  27.665  0.00  0.00    +0.008 A 
ATOM     34  C   LIG    1      -33.359  78.446  27.296  0.00  0.00    +0.118 A 
ATOM     35  N   LIG    1      -33.670  79.764  27.389  0.00  0.00    -0.260 NA
ATOM     36  C   LIG    1      -34.898  80.083  27.855  0.00  0.00    +0.038 A 
ATOM     37  C   LIG    1      -35.177  81.530  28.140  0.00  0.00    +0.065 C 
ATOM     38  C   LIG    1      -35.861  79.123  28.134  0.00  0.00    +0.023 A 
ATOM     39  C   LIG    1      -35.503  77.775  28.064  0.00  0.00    +0.010 A 
ENDBRANCH  32  33
ENDBRANCH  31  32
ENDBRANCH  24  31
ENDBRANCH  22  27
ENDBRANCH   1  22
TORSDOF 8
ENDMDL
MODEL 6
REMARK VINA RESULT:      -6.4      1.521      2.055
REMARK  Name = pdb/CHEMBL3673463.pdb
REMARK                            x       y       z     vdW  Elec       q    Type
REMARK                         _______ _______ _______ _____ _____    ______ ____
ROOT
ATOM      1  N   LIG    1      -24.747  82.560  37.841  0.00  0.00    -0.311 N 
ATOM      2  C   LIG    1      -24.454  81.620  36.898  0.00  0.00    +0.161 A 
ATOM      3  N   LIG    1      -25.280  80.741  36.326  0.00  0.00    -0.235 NA
ATOM      4  C   LIG    1      -24.637  79.926  35.442  0.00  0.00    +0.121 A 
ATOM      5  C   LIG    1      -23.271  79.961  35.121  0.00  0.00    +0.005 A 
ATOM      6  C   LIG    1      -22.479  80.936  35.742  0.00  0.00    +0.041 A 
ATOM      7  C   LIG    1      -23.083  81.786  36.667  0.00  0.00    +0.108 A 
ATOM      8  N   LIG    1      -22.572  82.792  37.435  0.00  0.00    -0.234 NA
ATOM      9  C   LIG    1      -23.598  83.240  38.138  0.00  0.00    +0.201 A 
ENDROOT
BRANCH   5  10
ATOM     10  C   LIG    1      -22.703  78.995  34.197  0.00  0.00    +0.021 A 
ATOM     11  C   LIG    1      -23.422  78.086  33.438  0.00  0.00    +0.117 A 
ATOM     12  N   LIG    1      -22.513  77.398  32.681  0.00  0.00    -0.268 N 
ATOM     13  N   LIG    1      -21.249  77.800  32.903  0.00  0.00    -0.179 NA
ATOM     14  C   LIG    1      -21.367  78.761  33.813  0.00  0.00    +0.143 A 
BRANCH  12  15
ATOM     15  C   LIG    1      -22.819  76.342  31.715  0.00  0.00    +0.110 C 
ATOM     16  C   LIG    1      -21.695  76.170  30.689  0.00  0.00    +0.042 C 
ATOM     17  C   LIG    1      -21.718  77.273  29.635  0.00  0.00    +0.083 C 
ATOM     18  N   LIG    1      -23.019  77.351  28.968  0.00  0.00    -0.316 NA
ATOM     19  H   LIG    1      -22.992  78.126  28.303  0.00  0.00    +0.122 HD
ATOM     20  C   LIG    1      -24.101  77.611  29.922  0.00  0.00    +0.083 C 
ATOM     21  C   LIG    1      -24.165  76.530  31.000  0.00  0.00    +0.042 C 
ENDBRANCH  12  15
ENDBRANCH   5  10
BRANCH   1  22
ATOM     22  C   LIG    1      -26.073  82.817  38.374  0.00  0.00    +0.160 C 
BRANCH  22  27
ATOM     23  C   LIG    1      -27.658  86.280  38.202  0.00  0.00    +0.162 A 
ATOM     24  C   LIG    1      -27.807  86.465  36.813  0.00  0.00    +0.162 A 
ATOM     25  C   LIG    1      -27.478  85.412  35.949  0.00  0.00    +0.050 A 
ATOM     26  C   LIG    1      -26.927  84.225  36.440  0.00  0.00    +0.009 A 
ATOM     27  C   LIG    1      -26.682  84.074  37.807  0.00  0.00    -0.024 A 
ATOM     28  C   LIG    1      -27.027  85.120  38.671  0.00  0.00    +0.054 A 
BRANCH  23  30
ATOM     29  C   LIG    1      -27.101  88.105  39.622  0.00  0.00    +0.277 C 
ATOM     30  O   LIG    1      -28.110  87.260  39.056  0.00  0.00    -0.491 OA
ENDBRANCH  23  30
BRANCH  24  31
ATOM     31  O   LIG    1      -28.284  87.672  36.347  0.00  0.00    -0.484 OA
BRANCH  31  32
ATOM     32  C   LIG    1      -29.675  87.670  35.962  0.00  0.00    +0.266 C 
BRANCH  32  33
ATOM     33  C   LIG    1      -29.879  87.701  34.464  0.00  0.00    +0.008 A 
ATOM     34  C   LIG    1      -31.098  87.390  33.879  0.00  0.00    +0.118 A 
ATOM     35  N   LIG    1      -31.310  87.314  32.540  0.00  0.00    -0.260 NA
ATOM     36  C   LIG    1      -30.263  87.579  31.728  0.00  0.00    +0.038 A 
ATOM     37  C   LIG    1      -30.437  87.311  30.262  0.00  0.00    +0.065 C 
ATOM     38  C   LIG    1      -29.037  88.017  32.212  0.00  0.00    +0.023 A 
ATOM     39  C   LIG    1      -28.836  88.052  33.593  0.00  0.00    +0.010 A 
ENDBRANCH  32  33
ENDBRANCH  31  32
ENDBRANCH  24  31
ENDBRANCH  22  27
ENDBRANCH   1  22
TORSDOF 8
ENDMDL
MODEL 7
REMARK VINA RESULT:      -6.4     16.386     19.619
REMARK  Name = pdb/CHEMBL3673463.pdb
REMARK                            x       y       z     vdW  Elec       q    Type
REMARK                         _______ _______ _______ _____ _____    ______ ____
ROOT
ATOM      1  N   LIG    1      -40.765  70.609  23.050  0.00  0.00    -0.311 N 
ATOM      2  C   LIG    1      -39.587  69.925  22.993  0.00  0.00    +0.161 A 
ATOM      3  N   LIG    1      -38.631  69.851  23.922  0.00  0.00    -0.235 NA
ATOM      4  C   LIG    1      -37.570  69.099  23.514  0.00  0.00    +0.121 A 
ATOM      5  C   LIG    1      -37.440  68.448  22.277  0.00  0.00    +0.005 A 
ATOM      6  C   LIG    1      -38.503  68.549  21.370  0.00  0.00    +0.041 A 
ATOM      7  C   LIG    1      -39.607  69.319  21.731  0.00  0.00    +0.108 A 
ATOM      8  N   LIG    1      -40.756  69.619  21.058  0.00  0.00    -0.234 NA
ATOM      9  C   LIG    1      -41.437  70.403  21.876  0.00  0.00    +0.201 A 
ENDROOT
BRANCH   5  10
ATOM     10  C   LIG    1      -36.227  67.719  21.948  0.00  0.00    +0.021 A 
ATOM     11  C   LIG    1      -35.990  67.042  20.763  0.00  0.00    +0.117 A 
ATOM     12  N   LIG    1      -34.722  66.533  20.847  0.00  0.00    -0.268 N 
ATOM     13  N   LIG    1      -34.122  66.834  22.011  0.00  0.00    -0.179 NA
ATOM     14  C   LIG    1      -35.028  67.549  22.671  0.00  0.00    +0.143 A 
BRANCH  12  15
ATOM     15  C   LIG    1      -34.037  65.752  19.816  0.00  0.00    +0.110 C 
ATOM     16  C   LIG    1      -32.522  65.979  19.846  0.00  0.00    +0.042 C 
ATOM     17  C   LIG    1      -32.138  67.318  19.222  0.00  0.00    +0.083 C 
ATOM     18  N   LIG    1      -32.652  67.440  17.856  0.00  0.00    -0.316 NA
ATOM     19  H   LIG    1      -32.400  68.364  17.502  0.00  0.00    +0.122 HD
ATOM     20  C   LIG    1      -34.113  67.322  17.815  0.00  0.00    +0.083 C 
ATOM     21  C   LIG    1      -34.580  65.989  18.399  0.00  0.00    +0.042 C 
ENDBRANCH  12  15
ENDBRANCH   5  10
BRANCH   1  22
ATOM     22  C   LIG    1      -41.232  71.365  24.198  0.00  0.00    +0.160 C 
BRANCH  22  27
ATOM     23  C   LIG    1      -41.123  75.121  23.547  0.00  0.00    +0.162 A 
ATOM     24  C   LIG    1      -39.896  75.484  24.137  0.00  0.00    +0.162 A 
ATOM     25  C   LIG    1      -39.068  74.479  24.656  0.00  0.00    +0.050 A 
ATOM     26  C   LIG    1      -39.482  73.145  24.673  0.00  0.00    +0.009 A 
ATOM     27  C   LIG    1      -40.741  72.791  24.181  0.00  0.00    -0.024 A 
ATOM     28  C   LIG    1      -41.560  73.793  23.648  0.00  0.00    +0.054 A 
BRANCH  23  30
ATOM     29  C   LIG    1      -43.229  75.736  22.629  0.00  0.00    +0.277 C 
ATOM     30  O   LIG    1      -41.870  76.088  22.916  0.00  0.00    -0.491 OA
ENDBRANCH  23  30
BRANCH  24  31
ATOM     31  O   LIG    1      -39.541  76.816  24.175  0.00  0.00    -0.484 OA
BRANCH  31  32
ATOM     32  C   LIG    1      -39.960  77.525  25.360  0.00  0.00    +0.266 C 
BRANCH  32  33
ATOM     33  C   LIG    1      -38.804  78.083  26.160  0.00  0.00    +0.008 A 
ATOM     34  C   LIG    1      -37.652  77.349  26.404  0.00  0.00    +0.118 A 
ATOM     35  N   LIG    1      -36.627  77.768  27.189  0.00  0.00    -0.260 NA
ATOM     36  C   LIG    1      -36.733  78.991  27.753  0.00  0.00    +0.038 A 
ATOM     37  C   LIG    1      -35.700  79.378  28.770  0.00  0.00    +0.065 C 
ATOM     38  C   LIG    1      -37.788  79.850  27.473  0.00  0.00    +0.023 A 
ATOM     39  C   LIG    1      -38.845  79.382  26.691  0.00  0.00    +0.010 A 
ENDBRANCH  32  33
ENDBRANCH  31  32
ENDBRANCH  24  31
ENDBRANCH  22  27
ENDBRANCH   1  22
TORSDOF 8
ENDMDL
MODEL 8
REMARK VINA RESULT:      -6.3      7.687     11.396
REMARK  Name = pdb/CHEMBL3673463.pdb
REMARK                            x       y       z     vdW  Elec       q    Type
REMARK                         _______ _______ _______ _____ _____    ______ ____
ROOT
ATOM      1  N   LIG    1      -32.531  87.395  31.181  0.00  0.00    -0.311 N 
ATOM      2  C   LIG    1      -31.590  87.531  32.158  0.00  0.00    +0.161 A 
ATOM      3  N   LIG    1      -31.749  87.412  33.478  0.00  0.00    -0.235 NA
ATOM      4  C   LIG    1      -30.593  87.644  34.162  0.00  0.00    +0.121 A 
ATOM      5  C   LIG    1      -29.348  87.969  33.602  0.00  0.00    +0.005 A 
ATOM      6  C   LIG    1      -29.258  88.042  32.206  0.00  0.00    +0.041 A 
ATOM      7  C   LIG    1      -30.414  87.829  31.459  0.00  0.00    +0.108 A 
ATOM      8  N   LIG    1      -30.637  87.862  30.112  0.00  0.00    -0.234 NA
ATOM      9  C   LIG    1      -31.925  87.600  29.972  0.00  0.00    +0.201 A 
ENDROOT
BRANCH   5  10
ATOM     10  C   LIG    1      -28.204  88.245  34.454  0.00  0.00    +0.021 A 
ATOM     11  C   LIG    1      -27.968  89.434  35.126  0.00  0.00    +0.117 A 
ATOM     12  N   LIG    1      -26.812  89.261  35.838  0.00  0.00    -0.268 N 
ATOM     13  N   LIG    1      -26.280  88.038  35.668  0.00  0.00    -0.179 NA
ATOM     14  C   LIG    1      -27.120  87.429  34.836  0.00  0.00    +0.143 A 
BRANCH  12  15
ATOM     15  C   LIG    1      -26.181  90.252  36.710  0.00  0.00    +0.110 C 
ATOM     16  C   LIG    1      -26.296  91.668  36.136  0.00  0.00    +0.042 C 
ATOM     17  C   LIG    1      -25.306  91.898  34.998  0.00  0.00    +0.083 C 
ATOM     18  N   LIG    1      -23.931  91.621  35.419  0.00  0.00    -0.316 NA
ATOM     19  H   LIG    1      -23.317  91.754  34.613  0.00  0.00    +0.122 HD
ATOM     20  C   LIG    1      -23.775  90.240  35.884  0.00  0.00    +0.083 C 
ATOM     21  C   LIG    1      -24.716  89.935  37.048  0.00  0.00    +0.042 C 
ENDBRANCH  12  15
ENDBRANCH   5  10
BRANCH   1  22
ATOM     22  C   LIG    1      -33.918  87.030  31.408  0.00  0.00    +0.160 C 
BRANCH  22  27
ATOM     23  C   LIG    1      -35.624  84.839  28.795  0.00  0.00    +0.162 A 
ATOM     24  C   LIG    1      -35.102  83.565  29.096  0.00  0.00    +0.162 A 
ATOM     25  C   LIG    1      -34.272  83.418  30.216  0.00  0.00    +0.050 A 
ATOM     26  C   LIG    1      -33.890  84.526  30.977  0.00  0.00    +0.009 A 
ATOM     27  C   LIG    1      -34.322  85.807  30.624  0.00  0.00    -0.024 A 
ATOM     28  C   LIG    1      -35.165  85.950  29.515  0.00  0.00    +0.054 A 
BRANCH  23  30
ATOM     29  C   LIG    1      -36.043  85.463  26.539  0.00  0.00    +0.277 C 
ATOM     30  O   LIG    1      -36.546  84.957  27.781  0.00  0.00    -0.491 OA
ENDBRANCH  23  30
BRANCH  24  31
ATOM     31  O   LIG    1      -35.434  82.498  28.288  0.00  0.00    -0.484 OA
BRANCH  31  32
ATOM     32  C   LIG    1      -35.889  81.321  28.987  0.00  0.00    +0.266 C 
BRANCH  32  33
ATOM     33  C   LIG    1      -35.288  80.040  28.451  0.00  0.00    +0.008 A 
ATOM     34  C   LIG    1      -36.074  78.987  28.005  0.00  0.00    +0.118 A 
ATOM     35  N   LIG    1      -35.589  77.785  27.601  0.00  0.00    -0.260 NA
ATOM     36  C   LIG    1      -34.248  77.617  27.618  0.00  0.00    +0.038 A 
ATOM     37  C   LIG    1      -33.719  76.237  27.357  0.00  0.00    +0.065 C 
ATOM     38  C   LIG    1      -33.372  78.649  27.930  0.00  0.00    +0.023 A 
ATOM     39  C   LIG    1      -33.898  79.862  28.376  0.00  0.00    +0.010 A 
ENDBRANCH  32  33
ENDBRANCH  31  32
ENDBRANCH  24  31
ENDBRANCH  22  27
ENDBRANCH   1  22
TORSDOF 8
ENDMDL
MODEL 9
REMARK VINA RESULT:      -6.3     17.377     22.423
REMARK  Name = pdb/CHEMBL3673463.pdb
REMARK                            x       y       z     vdW  Elec       q    Type
REMARK                         _______ _______ _______ _____ _____    ______ ____
ROOT
ATOM      1  N   LIG    1      -36.721  67.935  23.529  0.00  0.00    -0.311 N 
ATOM      2  C   LIG    1      -37.615  68.963  23.577  0.00  0.00    +0.161 A 
ATOM      3  N   LIG    1      -38.801  69.052  22.970  0.00  0.00    -0.235 NA
ATOM      4  C   LIG    1      -39.420  70.242  23.215  0.00  0.00    +0.121 A 
ATOM      5  C   LIG    1      -38.925  71.287  24.008  0.00  0.00    +0.005 A 
ATOM      6  C   LIG    1      -37.686  71.101  24.637  0.00  0.00    +0.041 A 
ATOM      7  C   LIG    1      -37.003  69.909  24.407  0.00  0.00    +0.108 A 
ATOM      8  N   LIG    1      -35.791  69.464  24.850  0.00  0.00    -0.234 NA
ATOM      9  C   LIG    1      -35.643  68.271  24.301  0.00  0.00    +0.201 A 
ENDROOT
BRANCH   5  10
ATOM     10  C   LIG    1      -39.666  72.529  24.143  0.00  0.00    +0.021 A 
ATOM     11  C   LIG    1      -39.262  73.634  24.876  0.00  0.00    +0.117 A 
ATOM     12  N   LIG    1      -40.224  74.593  24.706  0.00  0.00    -0.268 N 
ATOM     13  N   LIG    1      -41.228  74.181  23.912  0.00  0.00    -0.179 NA
ATOM     14  C   LIG    1      -40.889  72.940  23.574  0.00  0.00    +0.143 A 
BRANCH  12  15
ATOM     15  C   LIG    1      -40.214  75.936  25.286  0.00  0.00    +0.110 C 
ATOM     16  C   LIG    1      -41.002  76.931  24.428  0.00  0.00    +0.042 C 
ATOM     17  C   LIG    1      -40.217  77.354  23.190  0.00  0.00    +0.083 C 
ATOM     18  N   LIG    1      -38.907  77.905  23.547  0.00  0.00    -0.316 NA
ATOM     19  H   LIG    1      -38.412  78.136  22.685  0.00  0.00    +0.122 HD
ATOM     20  C   LIG    1      -38.097  76.934  24.289  0.00  0.00    +0.083 C 
ATOM     21  C   LIG    1      -38.804  76.478  25.564  0.00  0.00    +0.042 C 
ENDBRANCH  12  15
ENDBRANCH   5  10
BRANCH   1  22
ATOM     22  C   LIG    1      -36.930  66.683  22.824  0.00  0.00    +0.160 C 
BRANCH  22  27
ATOM     23  C   LIG    1      -35.282  66.882  19.392  0.00  0.00    +0.162 A 
ATOM     24  C   LIG    1      -34.090  66.158  19.598  0.00  0.00    +0.162 A 
ATOM     25  C   LIG    1      -33.883  65.528  20.832  0.00  0.00    +0.050 A 
ATOM     26  C   LIG    1      -34.796  65.679  21.879  0.00  0.00    +0.009 A 
ATOM     27  C   LIG    1      -35.930  66.478  21.714  0.00  0.00    -0.024 A 
ATOM     28  C   LIG    1      -36.144  67.095  20.476  0.00  0.00    +0.054 A 
BRANCH  23  30
ATOM     29  C   LIG    1      -36.497  66.644  17.361  0.00  0.00    +0.277 C 
ATOM     30  O   LIG    1      -35.547  67.384  18.139  0.00  0.00    -0.491 OA
ENDBRANCH  23  30
BRANCH  24  31
ATOM     31  O   LIG    1      -33.169  66.083  18.574  0.00  0.00    -0.484 OA
BRANCH  31  32
ATOM     32  C   LIG    1      -31.922  65.444  18.922  0.00  0.00    +0.266 C 
BRANCH  32  33
ATOM     33  C   LIG    1      -30.744  66.392  18.915  0.00  0.00    +0.008 A 
ATOM     34  C   LIG    1      -29.508  66.038  19.435  0.00  0.00    +0.118 A 
ATOM     35  N   LIG    1      -28.447  66.879  19.535  0.00  0.00    -0.260 NA
ATOM     36  C   LIG    1      -28.607  68.141  19.078  0.00  0.00    +0.038 A 
ATOM     37  C   LIG    1      -27.510  69.125  19.359  0.00  0.00    +0.065 C 
ATOM     38  C   LIG    1      -29.763  68.556  18.429  0.00  0.00    +0.023 A 
ATOM     39  C   LIG    1      -30.850  67.682  18.372  0.00  0.00    +0.010 A 
ENDBRANCH  32  33
ENDBRANCH  31  32
ENDBRANCH  24  31
ENDBRANCH  22  27
ENDBRANCH   1  22
TORSDOF 8
ENDMDL
