MODEL 1
REMARK VINA RESULT:      -6.4      0.000      0.000
REMARK  Name = pdb/CHEMBL3916880.pdb
REMARK                            x       y       z     vdW  Elec       q    Type
REMARK                         _______ _______ _______ _____ _____    ______ ____
ROOT
ATOM      1  C   LIG    1      -18.777  85.963  13.271  0.00  0.00    +0.100 A 
ATOM      2  C   LIG    1      -18.933  84.621  13.563  0.00  0.00    +0.170 A 
ATOM      3  N   LIG    1      -19.943  83.946  14.216  0.00  0.00    -0.212 NA
ATOM      4  C   LIG    1      -19.851  82.637  14.321  0.00  0.00    +0.126 A 
ATOM      5  C   LIG    1      -18.655  81.887  13.769  0.00  0.00    +0.063 A 
ATOM      6  C   LIG    1      -17.694  82.599  13.161  0.00  0.00    +0.118 A 
ATOM      7  N   LIG    1      -17.816  83.971  13.045  0.00  0.00    -0.221 N 
ATOM      8  N   LIG    1      -16.955  84.835  12.457  0.00  0.00    -0.173 NA
ATOM      9  C   LIG    1      -17.543  86.028  12.595  0.00  0.00    +0.150 A 
ENDROOT
BRANCH   4  10
ATOM     10  N   LIG    1      -20.869  81.928  14.957  0.00  0.00    -0.308 N 
ATOM     11  C   LIG    1      -22.171  82.525  15.313  0.00  0.00    +0.108 C 
ATOM     12  C   LIG    1      -22.474  81.919  16.694  0.00  0.00    +0.029 C 
ATOM     13  C   LIG    1      -21.869  80.532  16.611  0.00  0.00    +0.021 C 
ATOM     14  C   LIG    1      -20.587  80.772  15.823  0.00  0.00    +0.107 C 
BRANCH  11  15
ATOM     15  C   LIG    1      -23.263  82.232  14.297  0.00  0.00    +0.011 A 
ATOM     16  C   LIG    1      -23.404  83.087  13.191  0.00  0.00    +0.129 A 
ATOM     17  F   LIG    1      -22.562  84.119  13.038  0.00  0.00    -0.205 F 
ATOM     18  C   LIG    1      -24.405  82.908  12.239  0.00  0.00    +0.041 A 
ATOM     19  C   LIG    1      -25.290  81.842  12.367  0.00  0.00    +0.041 A 
ATOM     20  C   LIG    1      -25.146  80.965  13.436  0.00  0.00    +0.124 A 
ATOM     21  F   LIG    1      -25.994  79.936  13.557  0.00  0.00    -0.205 F 
ATOM     22  C   LIG    1      -24.144  81.143  14.391  0.00  0.00    +0.046 A 
ENDBRANCH  11  15
ENDBRANCH   4  10
BRANCH   1  24
ATOM     23  N   LIG    1      -20.397  87.608  12.714  0.00  0.00    -0.247 NA
ATOM     24  C   LIG    1      -19.702  87.023  13.614  0.00  0.00    +0.221 C 
BRANCH  23  29
ATOM     25  C   LIG    1      -24.709  88.752  11.002  0.00  0.00    +0.041 C 
ATOM     26  C   LIG    1      -23.398  87.966  11.108  0.00  0.00    +0.063 C 
ATOM     27  C   LIG    1      -23.289  87.259  12.475  0.00  0.00    +0.036 C 
ATOM     28  C   LIG    1      -22.642  88.101  13.574  0.00  0.00    +0.029 C 
ATOM     29  C   LIG    1      -21.305  88.699  13.122  0.00  0.00    +0.109 C 
ATOM     30  C   LIG    1      -21.611  89.633  11.946  0.00  0.00    +0.029 C 
ATOM     31  C   LIG    1      -22.197  88.871  10.758  0.00  0.00    +0.036 C 
BRANCH  26  32
ATOM     32  O   LIG    1      -23.480  86.946  10.100  0.00  0.00    -0.389 OA
ATOM     33  H   LIG    1      -23.093  87.319   9.288  0.00  0.00    +0.210 HD
ENDBRANCH  26  32
ENDBRANCH  23  29
BRANCH  24  34
ATOM     34  O   LIG    1      -19.759  87.341  14.931  0.00  0.00    -0.492 OA
ATOM     35  H   LIG    1      -18.875  87.273  15.336  0.00  0.00    +0.294 HD
ENDBRANCH  24  34
ENDBRANCH   1  24
TORSDOF 6
ENDMDL
MODEL 2
REMARK VINA RESULT:      -6.3     18.449     22.018
REMARK  Name = pdb/CHEMBL3916880.pdb
REMARK                            x       y       z     vdW  Elec       q    Type
REMARK                         _______ _______ _______ _____ _____    ______ ____
ROOT
ATOM      1  C   LIG    1      -23.303  77.146  30.427  0.00  0.00    +0.100 A 
ATOM      2  C   LIG    1      -22.193  77.386  31.216  0.00  0.00    +0.170 A 
ATOM      3  N   LIG    1      -22.084  77.788  32.530  0.00  0.00    -0.212 NA
ATOM      4  C   LIG    1      -20.880  77.901  33.049  0.00  0.00    +0.126 A 
ATOM      5  C   LIG    1      -19.640  77.629  32.222  0.00  0.00    +0.063 A 
ATOM      6  C   LIG    1      -19.807  77.259  30.944  0.00  0.00    +0.118 A 
ATOM      7  N   LIG    1      -21.079  77.129  30.421  0.00  0.00    -0.221 N 
ATOM      8  N   LIG    1      -21.428  76.757  29.166  0.00  0.00    -0.173 NA
ATOM      9  C   LIG    1      -22.765  76.767  29.181  0.00  0.00    +0.150 A 
ENDROOT
BRANCH   4  10
ATOM     10  N   LIG    1      -20.743  78.285  34.383  0.00  0.00    -0.308 N 
ATOM     11  C   LIG    1      -20.577  79.690  34.808  0.00  0.00    +0.108 C 
ATOM     12  C   LIG    1      -19.540  79.598  35.939  0.00  0.00    +0.029 C 
ATOM     13  C   LIG    1      -19.845  78.264  36.591  0.00  0.00    +0.021 C 
ATOM     14  C   LIG    1      -20.186  77.379  35.399  0.00  0.00    +0.107 C 
BRANCH  11  15
ATOM     15  C   LIG    1      -21.876  80.336  35.260  0.00  0.00    +0.011 A 
ATOM     16  C   LIG    1      -21.847  81.662  35.723  0.00  0.00    +0.129 A 
ATOM     17  F   LIG    1      -20.689  82.337  35.729  0.00  0.00    -0.205 F 
ATOM     18  C   LIG    1      -22.989  82.309  36.190  0.00  0.00    +0.041 A 
ATOM     19  C   LIG    1      -24.206  81.636  36.190  0.00  0.00    +0.041 A 
ATOM     20  C   LIG    1      -24.263  80.335  35.704  0.00  0.00    +0.124 A 
ATOM     21  F   LIG    1      -25.435  79.688  35.699  0.00  0.00    -0.205 F 
ATOM     22  C   LIG    1      -23.120  79.685  35.236  0.00  0.00    +0.046 A 
ENDBRANCH  11  15
ENDBRANCH   4  10
BRANCH   1  24
ATOM     23  N   LIG    1      -25.166  76.557  31.777  0.00  0.00    -0.247 NA
ATOM     24  C   LIG    1      -24.686  77.279  30.837  0.00  0.00    +0.221 C 
BRANCH  23  29
ATOM     25  C   LIG    1      -27.654  74.500  35.301  0.00  0.00    +0.041 C 
ATOM     26  C   LIG    1      -26.430  74.800  34.428  0.00  0.00    +0.063 C 
ATOM     27  C   LIG    1      -26.007  76.278  34.563  0.00  0.00    +0.036 C 
ATOM     28  C   LIG    1      -26.693  77.225  33.579  0.00  0.00    +0.029 C 
ATOM     29  C   LIG    1      -26.590  76.721  32.135  0.00  0.00    +0.109 C 
ATOM     30  C   LIG    1      -27.331  75.381  32.078  0.00  0.00    +0.029 C 
ATOM     31  C   LIG    1      -26.676  74.333  32.978  0.00  0.00    +0.036 C 
BRANCH  26  32
ATOM     32  O   LIG    1      -25.368  73.997  34.968  0.00  0.00    -0.389 OA
ATOM     33  H   LIG    1      -24.996  73.486  34.227  0.00  0.00    +0.210 HD
ENDBRANCH  26  32
ENDBRANCH  23  29
BRANCH  24  34
ATOM     34  O   LIG    1      -25.409  78.200  30.154  0.00  0.00    -0.492 OA
ATOM     35  H   LIG    1      -25.926  78.752  30.770  0.00  0.00    +0.294 HD
ENDBRANCH  24  34
ENDBRANCH   1  24
TORSDOF 6
ENDMDL
MODEL 3
REMARK VINA RESULT:      -6.3     18.968     22.282
REMARK  Name = pdb/CHEMBL3916880.pdb
REMARK                            x       y       z     vdW  Elec       q    Type
REMARK                         _______ _______ _______ _____ _____    ______ ____
ROOT
ATOM      1  C   LIG    1      -25.965  79.386  36.263  0.00  0.00    +0.100 A 
ATOM      2  C   LIG    1      -24.702  79.758  35.842  0.00  0.00    +0.170 A 
ATOM      3  N   LIG    1      -23.727  79.056  35.165  0.00  0.00    -0.212 NA
ATOM      4  C   LIG    1      -22.612  79.682  34.852  0.00  0.00    +0.126 A 
ATOM      5  C   LIG    1      -22.385  81.127  35.249  0.00  0.00    +0.063 A 
ATOM      6  C   LIG    1      -23.361  81.753  35.923  0.00  0.00    +0.118 A 
ATOM      7  N   LIG    1      -24.532  81.085  36.228  0.00  0.00    -0.221 N 
ATOM      8  N   LIG    1      -25.614  81.564  36.885  0.00  0.00    -0.173 NA
ATOM      9  C   LIG    1      -26.471  80.537  36.898  0.00  0.00    +0.150 A 
ENDROOT
BRANCH   4  10
ATOM     10  N   LIG    1      -21.619  79.001  34.148  0.00  0.00    -0.308 N 
ATOM     11  C   LIG    1      -21.763  77.604  33.692  0.00  0.00    +0.108 C 
ATOM     12  C   LIG    1      -20.370  77.004  33.942  0.00  0.00    +0.029 C 
ATOM     13  C   LIG    1      -19.433  78.168  33.690  0.00  0.00    +0.021 C 
ATOM     14  C   LIG    1      -20.196  79.347  34.284  0.00  0.00    +0.107 C 
BRANCH  11  15
ATOM     15  C   LIG    1      -22.194  77.490  32.239  0.00  0.00    +0.011 A 
ATOM     16  C   LIG    1      -23.555  77.638  31.923  0.00  0.00    +0.129 A 
ATOM     17  F   LIG    1      -24.437  77.905  32.897  0.00  0.00    -0.205 F 
ATOM     18  C   LIG    1      -24.032  77.508  30.621  0.00  0.00    +0.041 A 
ATOM     19  C   LIG    1      -23.140  77.238  29.588  0.00  0.00    +0.041 A 
ATOM     20  C   LIG    1      -21.785  77.121  29.875  0.00  0.00    +0.124 A 
ATOM     21  F   LIG    1      -20.925  76.866  28.880  0.00  0.00    -0.205 F 
ATOM     22  C   LIG    1      -21.305  77.251  31.178  0.00  0.00    +0.046 A 
ENDBRANCH  11  15
ENDBRANCH   4  10
BRANCH   1  24
ATOM     23  N   LIG    1      -27.061  77.746  34.941  0.00  0.00    -0.247 NA
ATOM     24  C   LIG    1      -26.578  78.087  36.074  0.00  0.00    +0.221 C 
BRANCH  23  29
ATOM     25  C   LIG    1      -29.630  75.949  31.334  0.00  0.00    +0.041 C 
ATOM     26  C   LIG    1      -28.813  76.997  32.097  0.00  0.00    +0.063 C 
ATOM     27  C   LIG    1      -27.361  76.518  32.304  0.00  0.00    +0.036 C 
ATOM     28  C   LIG    1      -27.137  75.705  33.578  0.00  0.00    +0.029 C 
ATOM     29  C   LIG    1      -27.696  76.418  34.816  0.00  0.00    +0.109 C 
ATOM     30  C   LIG    1      -29.209  76.545  34.610  0.00  0.00    +0.029 C 
ATOM     31  C   LIG    1      -29.543  77.409  33.394  0.00  0.00    +0.036 C 
BRANCH  26  32
ATOM     32  O   LIG    1      -28.770  78.148  31.240  0.00  0.00    -0.389 OA
ATOM     33  H   LIG    1      -27.840  78.438  31.203  0.00  0.00    +0.210 HD
ENDBRANCH  26  32
ENDBRANCH  23  29
BRANCH  24  34
ATOM     34  O   LIG    1      -26.604  77.292  37.171  0.00  0.00    -0.492 OA
ATOM     35  H   LIG    1      -25.848  76.676  37.163  0.00  0.00    +0.294 HD
ENDBRANCH  24  34
ENDBRANCH   1  24
TORSDOF 6
ENDMDL
MODEL 4
REMARK VINA RESULT:      -6.3     18.734     22.320
REMARK  Name = pdb/CHEMBL3916880.pdb
REMARK                            x       y       z     vdW  Elec       q    Type
REMARK                         _______ _______ _______ _____ _____    ______ ____
ROOT
ATOM      1  C   LIG    1      -22.923  76.796  30.427  0.00  0.00    +0.100 A 
ATOM      2  C   LIG    1      -22.017  77.411  31.271  0.00  0.00    +0.170 A 
ATOM      3  N   LIG    1      -22.194  78.057  32.476  0.00  0.00    -0.212 NA
ATOM      4  C   LIG    1      -21.131  78.523  33.096  0.00  0.00    +0.126 A 
ATOM      5  C   LIG    1      -19.747  78.384  32.493  0.00  0.00    +0.063 A 
ATOM      6  C   LIG    1      -19.638  77.763  31.309  0.00  0.00    +0.118 A 
ATOM      7  N   LIG    1      -20.764  77.265  30.681  0.00  0.00    -0.221 N 
ATOM      8  N   LIG    1      -20.834  76.606  29.501  0.00  0.00    -0.173 NA
ATOM      9  C   LIG    1      -22.134  76.326  29.358  0.00  0.00    +0.150 A 
ENDROOT
BRANCH   4  10
ATOM     10  N   LIG    1      -21.280  79.161  34.326  0.00  0.00    -0.308 N 
ATOM     11  C   LIG    1      -22.565  79.709  34.804  0.00  0.00    +0.108 C 
ATOM     12  C   LIG    1      -22.159  81.028  35.482  0.00  0.00    +0.029 C 
ATOM     13  C   LIG    1      -20.793  80.721  36.063  0.00  0.00    +0.021 C 
ATOM     14  C   LIG    1      -20.159  79.850  34.986  0.00  0.00    +0.107 C 
BRANCH  11  15
ATOM     15  C   LIG    1      -23.303  78.773  35.746  0.00  0.00    +0.011 A 
ATOM     16  C   LIG    1      -24.599  79.116  36.164  0.00  0.00    +0.129 A 
ATOM     17  F   LIG    1      -25.170  80.239  35.704  0.00  0.00    -0.205 F 
ATOM     18  C   LIG    1      -25.323  78.329  37.057  0.00  0.00    +0.041 A 
ATOM     19  C   LIG    1      -24.760  77.155  37.547  0.00  0.00    +0.041 A 
ATOM     20  C   LIG    1      -23.492  76.780  37.120  0.00  0.00    +0.124 A 
ATOM     21  F   LIG    1      -22.951  75.648  37.588  0.00  0.00    -0.205 F 
ATOM     22  C   LIG    1      -22.765  77.567  36.226  0.00  0.00    +0.046 A 
ENDBRANCH  11  15
ENDBRANCH   4  10
BRANCH   1  24
ATOM     23  N   LIG    1      -24.828  75.999  31.598  0.00  0.00    -0.247 NA
ATOM     24  C   LIG    1      -24.352  76.695  30.637  0.00  0.00    +0.221 C 
BRANCH  23  29
ATOM     25  C   LIG    1      -27.401  74.298  35.248  0.00  0.00    +0.041 C 
ATOM     26  C   LIG    1      -26.135  74.659  34.463  0.00  0.00    +0.063 C 
ATOM     27  C   LIG    1      -26.033  76.184  34.255  0.00  0.00    +0.036 C 
ATOM     28  C   LIG    1      -26.722  76.699  32.993  0.00  0.00    +0.029 C 
ATOM     29  C   LIG    1      -26.295  75.914  31.748  0.00  0.00    +0.109 C 
ATOM     30  C   LIG    1      -26.746  74.465  31.960  0.00  0.00    +0.029 C 
ATOM     31  C   LIG    1      -26.052  73.828  33.165  0.00  0.00    +0.036 C 
BRANCH  26  32
ATOM     32  O   LIG    1      -25.039  74.263  35.302  0.00  0.00    -0.389 OA
ATOM     33  H   LIG    1      -24.225  74.590  34.877  0.00  0.00    +0.210 HD
ENDBRANCH  26  32
ENDBRANCH  23  29
BRANCH  24  34
ATOM     34  O   LIG    1      -25.119  77.373  29.749  0.00  0.00    -0.492 OA
ATOM     35  H   LIG    1      -24.572  77.990  29.229  0.00  0.00    +0.294 HD
ENDBRANCH  24  34
ENDBRANCH   1  24
TORSDOF 6
ENDMDL
MODEL 5
REMARK VINA RESULT:      -6.3     19.318     21.709
REMARK  Name = pdb/CHEMBL3916880.pdb
REMARK                            x       y       z     vdW  Elec       q    Type
REMARK                         _______ _______ _______ _____ _____    ______ ____
ROOT
ATOM      1  C   LIG    1      -39.352  82.257  24.497  0.00  0.00    +0.100 A 
ATOM      2  C   LIG    1      -38.247  82.692  25.206  0.00  0.00    +0.170 A 
ATOM      3  N   LIG    1      -37.663  82.213  26.359  0.00  0.00    -0.212 NA
ATOM      4  C   LIG    1      -36.574  82.807  26.800  0.00  0.00    +0.126 A 
ATOM      5  C   LIG    1      -35.990  84.007  26.081  0.00  0.00    +0.063 A 
ATOM      6  C   LIG    1      -36.612  84.440  24.975  0.00  0.00    +0.118 A 
ATOM      7  N   LIG    1      -37.744  83.793  24.518  0.00  0.00    -0.221 N 
ATOM      8  N   LIG    1      -38.484  84.086  23.422  0.00  0.00    -0.173 NA
ATOM      9  C   LIG    1      -39.445  83.156  23.417  0.00  0.00    +0.150 A 
ENDROOT
BRANCH   4  10
ATOM     10  N   LIG    1      -35.951  82.330  27.951  0.00  0.00    -0.308 N 
ATOM     11  C   LIG    1      -36.267  81.022  28.560  0.00  0.00    +0.108 C 
ATOM     12  C   LIG    1      -36.238  81.316  30.069  0.00  0.00    +0.029 C 
ATOM     13  C   LIG    1      -35.164  82.377  30.202  0.00  0.00    +0.021 C 
ATOM     14  C   LIG    1      -35.387  83.237  28.963  0.00  0.00    +0.107 C 
BRANCH  11  15
ATOM     15  C   LIG    1      -35.293  79.925  28.161  0.00  0.00    +0.011 A 
ATOM     16  C   LIG    1      -35.691  78.585  28.297  0.00  0.00    +0.129 A 
ATOM     17  F   LIG    1      -36.923  78.300  28.744  0.00  0.00    -0.205 F 
ATOM     18  C   LIG    1      -34.841  77.524  27.991  0.00  0.00    +0.041 A 
ATOM     19  C   LIG    1      -33.560  77.788  27.519  0.00  0.00    +0.041 A 
ATOM     20  C   LIG    1      -33.158  79.107  27.345  0.00  0.00    +0.124 A 
ATOM     21  F   LIG    1      -31.926  79.362  26.887  0.00  0.00    -0.205 F 
ATOM     22  C   LIG    1      -34.007  80.171  27.652  0.00  0.00    +0.046 A 
ENDBRANCH  11  15
ENDBRANCH   4  10
BRANCH   1  24
ATOM     23  N   LIG    1      -39.768  79.930  24.722  0.00  0.00    -0.247 NA
ATOM     24  C   LIG    1      -40.194  81.129  24.839  0.00  0.00    +0.221 C 
BRANCH  23  29
ATOM     25  C   LIG    1      -38.903  75.231  24.848  0.00  0.00    +0.041 C 
ATOM     26  C   LIG    1      -38.592  76.717  24.633  0.00  0.00    +0.063 C 
ATOM     27  C   LIG    1      -38.709  77.500  25.957  0.00  0.00    +0.036 C 
ATOM     28  C   LIG    1      -40.107  78.040  26.252  0.00  0.00    +0.029 C 
ATOM     29  C   LIG    1      -40.681  78.820  25.063  0.00  0.00    +0.109 C 
ATOM     30  C   LIG    1      -40.805  77.829  23.901  0.00  0.00    +0.029 C 
ATOM     31  C   LIG    1      -39.443  77.283  23.476  0.00  0.00    +0.036 C 
BRANCH  26  32
ATOM     32  O   LIG    1      -37.216  76.764  24.223  0.00  0.00    -0.389 OA
ATOM     33  H   LIG    1      -37.154  77.437  23.521  0.00  0.00    +0.210 HD
ENDBRANCH  26  32
ENDBRANCH  23  29
BRANCH  24  34
ATOM     34  O   LIG    1      -41.439  81.444  25.271  0.00  0.00    -0.492 OA
ATOM     35  H   LIG    1      -41.809  82.175  24.741  0.00  0.00    +0.294 HD
ENDBRANCH  24  34
ENDBRANCH   1  24
TORSDOF 6
ENDMDL
MODEL 6
REMARK VINA RESULT:      -6.1      2.318      3.365
REMARK  Name = pdb/CHEMBL3916880.pdb
REMARK                            x       y       z     vdW  Elec       q    Type
REMARK                         _______ _______ _______ _____ _____    ______ ____
ROOT
ATOM      1  C   LIG    1      -18.742  82.812  13.644  0.00  0.00    +0.100 A 
ATOM      2  C   LIG    1      -19.248  81.646  14.185  0.00  0.00    +0.170 A 
ATOM      3  N   LIG    1      -20.524  81.122  14.182  0.00  0.00    -0.212 NA
ATOM      4  C   LIG    1      -20.719  79.951  14.749  0.00  0.00    +0.126 A 
ATOM      5  C   LIG    1      -19.582  79.205  15.419  0.00  0.00    +0.063 A 
ATOM      6  C   LIG    1      -18.367  79.772  15.408  0.00  0.00    +0.118 A 
ATOM      7  N   LIG    1      -18.178  80.994  14.792  0.00  0.00    -0.221 N 
ATOM      8  N   LIG    1      -17.027  81.698  14.677  0.00  0.00    -0.173 NA
ATOM      9  C   LIG    1      -17.375  82.787  13.984  0.00  0.00    +0.150 A 
ENDROOT
BRANCH   4  10
ATOM     10  N   LIG    1      -21.995  79.389  14.741  0.00  0.00    -0.308 N 
ATOM     11  C   LIG    1      -23.218  80.153  15.055  0.00  0.00    +0.108 C 
ATOM     12  C   LIG    1      -24.054  79.162  15.882  0.00  0.00    +0.029 C 
ATOM     13  C   LIG    1      -23.704  77.816  15.278  0.00  0.00    +0.021 C 
ATOM     14  C   LIG    1      -22.215  77.955  14.989  0.00  0.00    +0.107 C 
BRANCH  11  15
ATOM     15  C   LIG    1      -23.952  80.644  13.818  0.00  0.00    +0.011 A 
ATOM     16  C   LIG    1      -24.111  82.027  13.630  0.00  0.00    +0.129 A 
ATOM     17  F   LIG    1      -23.591  82.882  14.521  0.00  0.00    -0.205 F 
ATOM     18  C   LIG    1      -24.806  82.552  12.542  0.00  0.00    +0.041 A 
ATOM     19  C   LIG    1      -25.351  81.690  11.597  0.00  0.00    +0.041 A 
ATOM     20  C   LIG    1      -25.177  80.319  11.747  0.00  0.00    +0.124 A 
ATOM     21  F   LIG    1      -25.698  79.489  10.835  0.00  0.00    -0.205 F 
ATOM     22  C   LIG    1      -24.482  79.791  12.836  0.00  0.00    +0.046 A 
ENDBRANCH  11  15
ENDBRANCH   4  10
BRANCH   1  24
ATOM     23  N   LIG    1      -20.111  84.749  13.519  0.00  0.00    -0.247 NA
ATOM     24  C   LIG    1      -19.495  83.808  12.910  0.00  0.00    +0.221 C 
BRANCH  23  29
ATOM     25  C   LIG    1      -22.503  88.628  14.956  0.00  0.00    +0.041 C 
ATOM     26  C   LIG    1      -21.648  87.365  15.102  0.00  0.00    +0.063 C 
ATOM     27  C   LIG    1      -20.290  87.534  14.389  0.00  0.00    +0.036 C 
ATOM     28  C   LIG    1      -20.292  87.122  12.918  0.00  0.00    +0.029 C 
ATOM     29  C   LIG    1      -20.883  85.721  12.718  0.00  0.00    +0.109 C 
ATOM     30  C   LIG    1      -22.342  85.784  13.181  0.00  0.00    +0.029 C 
ATOM     31  C   LIG    1      -22.449  86.119  14.669  0.00  0.00    +0.036 C 
BRANCH  26  32
ATOM     32  O   LIG    1      -21.383  87.243  16.509  0.00  0.00    -0.389 OA
ATOM     33  H   LIG    1      -21.013  88.095  16.802  0.00  0.00    +0.210 HD
ENDBRANCH  26  32
ENDBRANCH  23  29
BRANCH  24  34
ATOM     34  O   LIG    1      -19.501  83.657  11.563  0.00  0.00    -0.492 OA
ATOM     35  H   LIG    1      -20.295  83.167  11.279  0.00  0.00    +0.294 HD
ENDBRANCH  24  34
ENDBRANCH   1  24
TORSDOF 6
ENDMDL
MODEL 7
REMARK VINA RESULT:      -6.0     18.821     21.882
REMARK  Name = pdb/CHEMBL3916880.pdb
REMARK                            x       y       z     vdW  Elec       q    Type
REMARK                         _______ _______ _______ _____ _____    ______ ____
ROOT
ATOM      1  C   LIG    1      -24.111  77.693  32.559  0.00  0.00    +0.100 A 
ATOM      2  C   LIG    1      -23.045  77.334  31.757  0.00  0.00    +0.170 A 
ATOM      3  N   LIG    1      -21.735  77.038  32.067  0.00  0.00    -0.212 NA
ATOM      4  C   LIG    1      -20.928  76.680  31.091  0.00  0.00    +0.126 A 
ATOM      5  C   LIG    1      -21.410  76.624  29.655  0.00  0.00    +0.063 A 
ATOM      6  C   LIG    1      -22.690  76.940  29.411  0.00  0.00    +0.118 A 
ATOM      7  N   LIG    1      -23.527  77.297  30.451  0.00  0.00    -0.221 N 
ATOM      8  N   LIG    1      -24.837  77.632  30.386  0.00  0.00    -0.173 NA
ATOM      9  C   LIG    1      -25.180  77.866  31.657  0.00  0.00    +0.150 A 
ENDROOT
BRANCH   4  10
ATOM     10  N   LIG    1      -19.604  76.355  31.381  0.00  0.00    -0.308 N 
ATOM     11  C   LIG    1      -18.553  77.366  31.615  0.00  0.00    +0.108 C 
ATOM     12  C   LIG    1      -17.324  76.773  30.907  0.00  0.00    +0.029 C 
ATOM     13  C   LIG    1      -17.495  75.278  31.097  0.00  0.00    +0.021 C 
ATOM     14  C   LIG    1      -18.999  75.090  30.935  0.00  0.00    +0.107 C 
BRANCH  11  15
ATOM     15  C   LIG    1      -18.302  77.639  33.088  0.00  0.00    +0.011 A 
ATOM     16  C   LIG    1      -17.451  78.698  33.446  0.00  0.00    +0.129 A 
ATOM     17  F   LIG    1      -16.905  79.462  32.488  0.00  0.00    -0.205 F 
ATOM     18  C   LIG    1      -17.141  78.985  34.773  0.00  0.00    +0.041 A 
ATOM     19  C   LIG    1      -17.698  78.215  35.788  0.00  0.00    +0.041 A 
ATOM     20  C   LIG    1      -18.569  77.183  35.458  0.00  0.00    +0.124 A 
ATOM     21  F   LIG    1      -19.109  76.443  36.435  0.00  0.00    -0.205 F 
ATOM     22  C   LIG    1      -18.880  76.893  34.129  0.00  0.00    +0.046 A 
ENDBRANCH  11  15
ENDBRANCH   4  10
BRANCH   1  24
ATOM     23  N   LIG    1      -23.518  78.868  34.536  0.00  0.00    -0.247 NA
ATOM     24  C   LIG    1      -24.079  77.853  33.999  0.00  0.00    +0.221 C 
BRANCH  23  29
ATOM     25  C   LIG    1      -21.233  82.002  37.328  0.00  0.00    +0.041 C 
ATOM     26  C   LIG    1      -21.674  81.342  36.017  0.00  0.00    +0.063 C 
ATOM     27  C   LIG    1      -23.199  81.475  35.820  0.00  0.00    +0.036 C 
ATOM     28  C   LIG    1      -24.018  80.341  36.434  0.00  0.00    +0.029 C 
ATOM     29  C   LIG    1      -23.495  78.964  36.010  0.00  0.00    +0.109 C 
ATOM     30  C   LIG    1      -22.066  78.845  36.549  0.00  0.00    +0.029 C 
ATOM     31  C   LIG    1      -21.141  79.896  35.936  0.00  0.00    +0.036 C 
BRANCH  26  32
ATOM     32  O   LIG    1      -21.037  82.098  34.974  0.00  0.00    -0.389 OA
ATOM     33  H   LIG    1      -20.415  82.710  35.409  0.00  0.00    +0.210 HD
ENDBRANCH  26  32
ENDBRANCH  23  29
BRANCH  24  34
ATOM     34  O   LIG    1      -24.669  76.859  34.707  0.00  0.00    -0.492 OA
ATOM     35  H   LIG    1      -25.068  76.203  34.105  0.00  0.00    +0.294 HD
ENDBRANCH  24  34
ENDBRANCH   1  24
TORSDOF 6
ENDMDL
MODEL 8
REMARK VINA RESULT:      -6.0     22.607     25.261
REMARK  Name = pdb/CHEMBL3916880.pdb
REMARK                            x       y       z     vdW  Elec       q    Type
REMARK                         _______ _______ _______ _____ _____    ______ ____
ROOT
ATOM      1  C   LIG    1      -43.613  72.163  20.653  0.00  0.00    +0.100 A 
ATOM      2  C   LIG    1      -42.622  71.954  21.595  0.00  0.00    +0.170 A 
ATOM      3  N   LIG    1      -42.233  72.704  22.684  0.00  0.00    -0.212 NA
ATOM      4  C   LIG    1      -41.268  72.239  23.449  0.00  0.00    +0.126 A 
ATOM      5  C   LIG    1      -40.575  70.929  23.129  0.00  0.00    +0.063 A 
ATOM      6  C   LIG    1      -40.983  70.252  22.045  0.00  0.00    +0.118 A 
ATOM      7  N   LIG    1      -42.010  70.748  21.264  0.00  0.00    -0.221 N 
ATOM      8  N   LIG    1      -42.550  70.194  20.153  0.00  0.00    -0.173 NA
ATOM      9  C   LIG    1      -43.514  71.049  19.795  0.00  0.00    +0.150 A 
ENDROOT
BRANCH   4  10
ATOM     10  N   LIG    1      -40.870  72.967  24.569  0.00  0.00    -0.308 N 
ATOM     11  C   LIG    1      -39.568  73.656  24.667  0.00  0.00    +0.108 C 
ATOM     12  C   LIG    1      -39.141  73.402  26.123  0.00  0.00    +0.029 C 
ATOM     13  C   LIG    1      -40.454  73.388  26.879  0.00  0.00    +0.021 C 
ATOM     14  C   LIG    1      -41.389  72.669  25.914  0.00  0.00    +0.107 C 
BRANCH  11  15
ATOM     15  C   LIG    1      -39.646  75.136  24.333  0.00  0.00    +0.011 A 
ATOM     16  C   LIG    1      -38.488  75.921  24.458  0.00  0.00    +0.129 A 
ATOM     17  F   LIG    1      -37.337  75.348  24.838  0.00  0.00    -0.205 F 
ATOM     18  C   LIG    1      -38.490  77.291  24.208  0.00  0.00    +0.041 A 
ATOM     19  C   LIG    1      -39.668  77.912  23.805  0.00  0.00    +0.041 A 
ATOM     20  C   LIG    1      -40.817  77.148  23.643  0.00  0.00    +0.124 A 
ATOM     21  F   LIG    1      -41.950  77.744  23.251  0.00  0.00    -0.205 F 
ATOM     22  C   LIG    1      -40.818  75.775  23.893  0.00  0.00    +0.046 A 
ENDBRANCH  11  15
ENDBRANCH   4  10
BRANCH   1  24
ATOM     23  N   LIG    1      -44.662  73.971  19.527  0.00  0.00    -0.247 NA
ATOM     24  C   LIG    1      -44.515  73.295  20.602  0.00  0.00    +0.221 C 
BRANCH  23  29
ATOM     25  C   LIG    1      -45.997  76.817  15.928  0.00  0.00    +0.041 C 
ATOM     26  C   LIG    1      -45.250  75.668  16.613  0.00  0.00    +0.063 C 
ATOM     27  C   LIG    1      -46.238  74.611  17.149  0.00  0.00    +0.036 C 
ATOM     28  C   LIG    1      -46.735  74.871  18.570  0.00  0.00    +0.029 C 
ATOM     29  C   LIG    1      -45.577  75.129  19.542  0.00  0.00    +0.109 C 
ATOM     30  C   LIG    1      -44.869  76.400  19.061  0.00  0.00    +0.029 C 
ATOM     31  C   LIG    1      -44.266  76.219  17.668  0.00  0.00    +0.036 C 
BRANCH  26  32
ATOM     32  O   LIG    1      -44.472  75.045  15.579  0.00  0.00    -0.389 OA
ATOM     33  H   LIG    1      -45.090  74.807  14.865  0.00  0.00    +0.210 HD
ENDBRANCH  26  32
ENDBRANCH  23  29
BRANCH  24  34
ATOM     34  O   LIG    1      -45.163  73.574  21.759  0.00  0.00    -0.492 OA
ATOM     35  H   LIG    1      -45.686  72.804  22.050  0.00  0.00    +0.294 HD
ENDBRANCH  24  34
ENDBRANCH   1  24
TORSDOF 6
ENDMDL
MODEL 9
REMARK VINA RESULT:      -6.0     23.294     24.868
REMARK  Name = pdb/CHEMBL3916880.pdb
REMARK                            x       y       z     vdW  Elec       q    Type
REMARK                         _______ _______ _______ _____ _____    ______ ____
ROOT
ATOM      1  C   LIG    1      -35.874  68.337  24.912  0.00  0.00    +0.100 A 
ATOM      2  C   LIG    1      -36.744  68.624  23.877  0.00  0.00    +0.170 A 
ATOM      3  N   LIG    1      -37.988  69.218  23.876  0.00  0.00    -0.212 NA
ATOM      4  C   LIG    1      -38.588  69.408  22.719  0.00  0.00    +0.126 A 
ATOM      5  C   LIG    1      -37.947  68.960  21.421  0.00  0.00    +0.063 A 
ATOM      6  C   LIG    1      -36.744  68.372  21.485  0.00  0.00    +0.118 A 
ATOM      7  N   LIG    1      -36.123  68.196  22.707  0.00  0.00    -0.221 N 
ATOM      8  N   LIG    1      -34.914  67.637  22.952  0.00  0.00    -0.173 NA
ATOM      9  C   LIG    1      -34.772  67.729  24.278  0.00  0.00    +0.150 A 
ENDROOT
BRANCH   4  10
ATOM     10  N   LIG    1      -39.837  70.026  22.689  0.00  0.00    -0.308 N 
ATOM     11  C   LIG    1      -40.473  70.627  23.878  0.00  0.00    +0.108 C 
ATOM     12  C   LIG    1      -41.954  70.241  23.722  0.00  0.00    +0.029 C 
ATOM     13  C   LIG    1      -42.164  70.249  22.221  0.00  0.00    +0.021 C 
ATOM     14  C   LIG    1      -40.860  69.662  21.696  0.00  0.00    +0.107 C 
BRANCH  11  15
ATOM     15  C   LIG    1      -40.270  72.129  23.973  0.00  0.00    +0.011 A 
ATOM     16  C   LIG    1      -39.116  72.618  24.607  0.00  0.00    +0.129 A 
ATOM     17  F   LIG    1      -38.208  71.756  25.088  0.00  0.00    -0.205 F 
ATOM     18  C   LIG    1      -38.878  73.981  24.768  0.00  0.00    +0.041 A 
ATOM     19  C   LIG    1      -39.799  74.899  24.274  0.00  0.00    +0.041 A 
ATOM     20  C   LIG    1      -40.931  74.437  23.613  0.00  0.00    +0.124 A 
ATOM     21  F   LIG    1      -41.815  75.321  23.133  0.00  0.00    -0.205 F 
ATOM     22  C   LIG    1      -41.171  73.073  23.451  0.00  0.00    +0.046 A 
ENDBRANCH  11  15
ENDBRANCH   4  10
BRANCH   1  24
ATOM     23  N   LIG    1      -35.953  69.791  26.788  0.00  0.00    -0.247 NA
ATOM     24  C   LIG    1      -36.099  68.612  26.316  0.00  0.00    +0.221 C 
BRANCH  23  29
ATOM     25  C   LIG    1      -34.565  73.435  29.550  0.00  0.00    +0.041 C 
ATOM     26  C   LIG    1      -34.706  72.617  28.262  0.00  0.00    +0.063 C 
ATOM     27  C   LIG    1      -36.185  72.510  27.837  0.00  0.00    +0.036 C 
ATOM     28  C   LIG    1      -36.933  71.321  28.438  0.00  0.00    +0.029 C 
ATOM     29  C   LIG    1      -36.173  70.005  28.233  0.00  0.00    +0.109 C 
ATOM     30  C   LIG    1      -34.842  70.139  28.980  0.00  0.00    +0.029 C 
ATOM     31  C   LIG    1      -33.980  71.262  28.403  0.00  0.00    +0.036 C 
BRANCH  26  32
ATOM     32  O   LIG    1      -34.020  73.373  27.251  0.00  0.00    -0.389 OA
ATOM     33  H   LIG    1      -34.669  73.559  26.549  0.00  0.00    +0.210 HD
ENDBRANCH  26  32
ENDBRANCH  23  29
BRANCH  24  34
ATOM     34  O   LIG    1      -36.458  67.542  27.067  0.00  0.00    -0.492 OA
ATOM     35  H   LIG    1      -36.197  66.713  26.625  0.00  0.00    +0.294 HD
ENDBRANCH  24  34
ENDBRANCH   1  24
TORSDOF 6
ENDMDL
