MODEL 1
REMARK VINA RESULT:      -6.2      0.000      0.000
REMARK  Name = pdb/CHEMBL3968770.pdb
REMARK                            x       y       z     vdW  Elec       q    Type
REMARK                         _______ _______ _______ _____ _____    ______ ____
ROOT
ATOM      1  C   LIG    1      -26.345  83.158  36.993  0.00  0.00    +0.323 A 
ATOM      2  N   LIG    1      -27.508  82.531  37.232  0.00  0.00    -0.201 NA
ATOM      3  C   LIG    1      -28.624  83.126  36.721  0.00  0.00    +0.145 A 
ATOM      4  C   LIG    1      -28.657  84.305  35.986  0.00  0.00    +0.105 A 
ATOM      5  C   LIG    1      -27.392  84.841  35.817  0.00  0.00    +0.145 A 
ATOM      6  N   LIG    1      -26.237  84.309  36.303  0.00  0.00    -0.201 NA
ENDROOT
BRANCH   4   7
ATOM      7  N   LIG    1      -29.815  84.999  35.524  0.00  0.00    -0.196 NA
ATOM      8  C   LIG    1      -30.375  84.717  34.392  0.00  0.00    +0.285 C 
BRANCH   8   9
ATOM      9  N   LIG    1      -31.517  85.281  33.861  0.00  0.00    -0.268 N 
ATOM     10  H   LIG    1      -32.277  85.421  34.528  0.00  0.00    +0.157 HD
BRANCH   9  11
ATOM     11  C   LIG    1      -31.652  85.964  32.618  0.00  0.00    +0.060 A 
ATOM     12  C   LIG    1      -31.163  87.269  32.387  0.00  0.00    +0.109 A 
ATOM     13  C   LIG    1      -31.450  87.948  31.185  0.00  0.00    +0.029 A 
ATOM     14  C   LIG    1      -32.252  87.375  30.207  0.00  0.00    +0.014 A 
ATOM     15  C   LIG    1      -32.758  86.091  30.390  0.00  0.00    +0.057 A 
ATOM     16  C   LIG    1      -32.448  85.403  31.581  0.00  0.00    +0.037 A 
BRANCH  12  17
ATOM     17  S   LIG    1      -30.092  88.135  33.524  0.00  0.00    -0.004 S 
ATOM     18  C   LIG    1      -29.989  89.796  32.937  0.00  0.00    +0.200 C 
ATOM     19  O   LIG    1      -28.743  87.563  33.381  0.00  0.00    -0.170 OA
ATOM     20  O   LIG    1      -30.755  88.146  34.793  0.00  0.00    -0.170 OA
ENDBRANCH  12  17
BRANCH  15  21
ATOM     21  C   LIG    1      -33.630  85.477  29.316  0.00  0.00    +0.417 C 
ATOM     22  F   LIG    1      -33.234  85.829  28.062  0.00  0.00    -0.166 F 
ATOM     23  F   LIG    1      -34.929  85.871  29.425  0.00  0.00    -0.166 F 
ATOM     24  F   LIG    1      -33.648  84.118  29.341  0.00  0.00    -0.166 F 
ENDBRANCH  15  21
ENDBRANCH   9  11
ENDBRANCH   8   9
BRANCH   8  25
ATOM     25  O   LIG    1      -29.907  83.706  33.637  0.00  0.00    -0.481 OA
ATOM     26  H   LIG    1      -29.197  84.029  33.064  0.00  0.00    +0.295 HD
ENDBRANCH   8  25
ENDBRANCH   4   7
BRANCH   1  27
ATOM     27  O   LIG    1      -25.204  82.585  37.568  0.00  0.00    -0.424 OA
BRANCH  27  31
ATOM     28  C   LIG    1      -22.674  80.254  35.129  0.00  0.00    -0.010 A 
ATOM     29  C   LIG    1      -23.926  79.783  35.568  0.00  0.00    +0.012 A 
ATOM     30  C   LIG    1      -24.772  80.568  36.365  0.00  0.00    +0.047 A 
ATOM     31  C   LIG    1      -24.368  81.845  36.755  0.00  0.00    +0.132 A 
ATOM     32  C   LIG    1      -23.167  82.350  36.254  0.00  0.00    +0.047 A 
ATOM     33  C   LIG    1      -22.320  81.564  35.467  0.00  0.00    +0.012 A 
BRANCH  28  36
ATOM     34  C   LIG    1      -20.848  77.832  32.569  0.00  0.00    +0.156 A 
ATOM     35  S   LIG    1      -22.442  78.146  33.310  0.00  0.00    -0.053 S 
ATOM     36  C   LIG    1      -21.775  79.395  34.347  0.00  0.00    +0.038 A 
ATOM     37  C   LIG    1      -20.435  79.420  34.236  0.00  0.00    +0.100 A 
ATOM     38  N   LIG    1      -19.917  78.530  33.317  0.00  0.00    -0.342 N 
ATOM     39  H   LIG    1      -18.948  78.618  33.032  0.00  0.00    +0.167 HD
BRANCH  34  40
ATOM     40  N   LIG    1      -20.648  77.124  31.515  0.00  0.00    -0.228 NA
BRANCH  40  41
ATOM     41  C   LIG    1      -21.036  77.652  30.208  0.00  0.00    +0.130 C 
BRANCH  41  43
ATOM     42  C   LIG    1      -23.497  77.308  29.710  0.00  0.00    +0.005 C 
ATOM     43  C   LIG    1      -22.090  76.735  29.592  0.00  0.00    +0.017 C 
ENDBRANCH  41  43
ENDBRANCH  40  41
ENDBRANCH  34  40
ENDBRANCH  28  36
ENDBRANCH  27  31
ENDBRANCH   1  27
TORSDOF 12
ENDMDL
MODEL 2
REMARK VINA RESULT:      -6.2      2.781      3.470
REMARK  Name = pdb/CHEMBL3968770.pdb
REMARK                            x       y       z     vdW  Elec       q    Type
REMARK                         _______ _______ _______ _____ _____    ______ ____
ROOT
ATOM      1  C   LIG    1      -25.978  82.688  37.326  0.00  0.00    +0.323 A 
ATOM      2  N   LIG    1      -27.215  82.239  37.594  0.00  0.00    -0.201 NA
ATOM      3  C   LIG    1      -28.244  82.995  37.112  0.00  0.00    +0.145 A 
ATOM      4  C   LIG    1      -28.120  84.169  36.379  0.00  0.00    +0.105 A 
ATOM      5  C   LIG    1      -26.794  84.513  36.179  0.00  0.00    +0.145 A 
ATOM      6  N   LIG    1      -25.719  83.814  36.635  0.00  0.00    -0.201 NA
ENDROOT
BRANCH   4   7
ATOM      7  N   LIG    1      -29.174  85.029  35.948  0.00  0.00    -0.196 NA
ATOM      8  C   LIG    1      -29.693  84.935  34.766  0.00  0.00    +0.285 C 
BRANCH   8   9
ATOM      9  N   LIG    1      -30.739  85.672  34.251  0.00  0.00    -0.268 N 
ATOM     10  H   LIG    1      -31.646  85.492  34.686  0.00  0.00    +0.157 HD
BRANCH   9  11
ATOM     11  C   LIG    1      -30.664  86.842  33.442  0.00  0.00    +0.060 A 
ATOM     12  C   LIG    1      -30.957  86.855  32.060  0.00  0.00    +0.109 A 
ATOM     13  C   LIG    1      -30.730  88.009  31.283  0.00  0.00    +0.029 A 
ATOM     14  C   LIG    1      -30.178  89.156  31.839  0.00  0.00    +0.014 A 
ATOM     15  C   LIG    1      -29.873  89.191  33.197  0.00  0.00    +0.057 A 
ATOM     16  C   LIG    1      -30.126  88.044  33.978  0.00  0.00    +0.037 A 
BRANCH  12  17
ATOM     17  S   LIG    1      -31.700  85.480  31.196  0.00  0.00    -0.004 S 
ATOM     18  C   LIG    1      -33.444  85.642  31.417  0.00  0.00    +0.200 C 
ATOM     19  O   LIG    1      -31.307  84.250  31.905  0.00  0.00    -0.170 OA
ATOM     20  O   LIG    1      -31.404  85.654  29.806  0.00  0.00    -0.170 OA
ENDBRANCH  12  17
BRANCH  15  21
ATOM     21  C   LIG    1      -29.273  90.446  33.790  0.00  0.00    +0.417 C 
ATOM     22  F   LIG    1      -30.138  91.095  34.616  0.00  0.00    -0.166 F 
ATOM     23  F   LIG    1      -28.920  91.347  32.831  0.00  0.00    -0.166 F 
ATOM     24  F   LIG    1      -28.149  90.219  34.521  0.00  0.00    -0.166 F 
ENDBRANCH  15  21
ENDBRANCH   9  11
ENDBRANCH   8   9
BRANCH   8  25
ATOM     25  O   LIG    1      -29.285  83.970  33.921  0.00  0.00    -0.481 OA
ATOM     26  H   LIG    1      -28.626  83.412  34.358  0.00  0.00    +0.295 HD
ENDBRANCH   8  25
ENDBRANCH   4   7
BRANCH   1  27
ATOM     27  O   LIG    1      -24.921  81.950  37.872  0.00  0.00    -0.424 OA
BRANCH  27  31
ATOM     28  C   LIG    1      -22.259  80.021  35.231  0.00  0.00    -0.010 A 
ATOM     29  C   LIG    1      -23.626  79.690  35.283  0.00  0.00    +0.012 A 
ATOM     30  C   LIG    1      -24.511  80.346  36.151  0.00  0.00    +0.047 A 
ATOM     31  C   LIG    1      -24.036  81.344  37.003  0.00  0.00    +0.132 A 
ATOM     32  C   LIG    1      -22.700  81.735  36.896  0.00  0.00    +0.047 A 
ATOM     33  C   LIG    1      -21.816  81.075  36.037  0.00  0.00    +0.012 A 
BRANCH  28  36
ATOM     34  C   LIG    1      -20.376  77.899  32.456  0.00  0.00    +0.156 A 
ATOM     35  S   LIG    1      -21.952  78.042  33.283  0.00  0.00    -0.053 S 
ATOM     36  C   LIG    1      -21.335  79.282  34.362  0.00  0.00    +0.038 A 
ATOM     37  C   LIG    1      -20.008  79.420  34.194  0.00  0.00    +0.100 A 
ATOM     38  N   LIG    1      -19.467  78.627  33.202  0.00  0.00    -0.342 N 
ATOM     39  H   LIG    1      -18.523  78.808  32.881  0.00  0.00    +0.167 HD
BRANCH  34  40
ATOM     40  N   LIG    1      -20.172  77.268  31.355  0.00  0.00    -0.228 NA
BRANCH  40  41
ATOM     41  C   LIG    1      -20.769  77.768  30.117  0.00  0.00    +0.130 C 
BRANCH  41  43
ATOM     42  C   LIG    1      -23.204  77.239  29.659  0.00  0.00    +0.005 C 
ATOM     43  C   LIG    1      -21.767  76.739  29.591  0.00  0.00    +0.017 C 
ENDBRANCH  41  43
ENDBRANCH  40  41
ENDBRANCH  34  40
ENDBRANCH  28  36
ENDBRANCH  27  31
ENDBRANCH   1  27
TORSDOF 12
ENDMDL
MODEL 3
REMARK VINA RESULT:      -6.0      2.128      2.918
REMARK  Name = pdb/CHEMBL3968770.pdb
REMARK                            x       y       z     vdW  Elec       q    Type
REMARK                         _______ _______ _______ _____ _____    ______ ____
ROOT
ATOM      1  C   LIG    1      -26.274  83.381  36.896  0.00  0.00    +0.323 A 
ATOM      2  N   LIG    1      -27.306  82.614  37.282  0.00  0.00    -0.201 NA
ATOM      3  C   LIG    1      -28.539  83.010  36.852  0.00  0.00    +0.145 A 
ATOM      4  C   LIG    1      -28.810  84.120  36.061  0.00  0.00    +0.105 A 
ATOM      5  C   LIG    1      -27.657  84.816  35.739  0.00  0.00    +0.145 A 
ATOM      6  N   LIG    1      -26.398  84.485  36.137  0.00  0.00    -0.201 NA
ENDROOT
BRANCH   4   7
ATOM      7  N   LIG    1      -30.094  84.610  35.679  0.00  0.00    -0.196 NA
ATOM      8  C   LIG    1      -30.633  84.304  34.543  0.00  0.00    +0.285 C 
BRANCH   8   9
ATOM      9  N   LIG    1      -31.879  84.676  34.081  0.00  0.00    -0.268 N 
ATOM     10  H   LIG    1      -32.611  84.698  34.793  0.00  0.00    +0.157 HD
BRANCH   9  11
ATOM     11  C   LIG    1      -32.195  85.320  32.851  0.00  0.00    +0.060 A 
ATOM     12  C   LIG    1      -33.264  84.927  32.015  0.00  0.00    +0.109 A 
ATOM     13  C   LIG    1      -33.441  85.510  30.744  0.00  0.00    +0.029 A 
ATOM     14  C   LIG    1      -32.553  86.460  30.255  0.00  0.00    +0.014 A 
ATOM     15  C   LIG    1      -31.483  86.878  31.042  0.00  0.00    +0.057 A 
ATOM     16  C   LIG    1      -31.323  86.314  32.324  0.00  0.00    +0.037 A 
BRANCH  12  17
ATOM     17  S   LIG    1      -34.513  83.747  32.502  0.00  0.00    -0.004 S 
ATOM     18  C   LIG    1      -35.719  84.653  33.417  0.00  0.00    +0.200 C 
ATOM     19  O   LIG    1      -33.889  82.813  33.454  0.00  0.00    -0.170 OA
ATOM     20  O   LIG    1      -35.125  83.270  31.299  0.00  0.00    -0.170 OA
ENDBRANCH  12  17
BRANCH  15  21
ATOM     21  C   LIG    1      -30.524  87.914  30.499  0.00  0.00    +0.417 C 
ATOM     22  F   LIG    1      -31.139  88.817  29.688  0.00  0.00    -0.166 F 
ATOM     23  F   LIG    1      -29.533  87.351  29.753  0.00  0.00    -0.166 F 
ATOM     24  F   LIG    1      -29.899  88.637  31.466  0.00  0.00    -0.166 F 
ENDBRANCH  15  21
ENDBRANCH   9  11
ENDBRANCH   8   9
BRANCH   8  25
ATOM     25  O   LIG    1      -30.012  83.453  33.705  0.00  0.00    -0.481 OA
ATOM     26  H   LIG    1      -29.442  83.949  33.101  0.00  0.00    +0.295 HD
ENDBRANCH   8  25
ENDBRANCH   4   7
BRANCH   1  27
ATOM     27  O   LIG    1      -25.014  83.014  37.386  0.00  0.00    -0.424 OA
BRANCH  27  31
ATOM     28  C   LIG    1      -22.689  80.345  35.094  0.00  0.00    -0.010 A 
ATOM     29  C   LIG    1      -24.005  80.037  35.488  0.00  0.00    +0.012 A 
ATOM     30  C   LIG    1      -24.781  80.934  36.236  0.00  0.00    +0.047 A 
ATOM     31  C   LIG    1      -24.242  82.163  36.621  0.00  0.00    +0.132 A 
ATOM     32  C   LIG    1      -22.970  82.509  36.162  0.00  0.00    +0.047 A 
ATOM     33  C   LIG    1      -22.194  81.611  35.424  0.00  0.00    +0.012 A 
BRANCH  28  36
ATOM     34  C   LIG    1      -21.123  77.538  32.767  0.00  0.00    +0.156 A 
ATOM     35  S   LIG    1      -22.631  77.973  33.618  0.00  0.00    -0.053 S 
ATOM     36  C   LIG    1      -21.870  79.369  34.364  0.00  0.00    +0.038 A 
ATOM     37  C   LIG    1      -20.551  79.369  34.104  0.00  0.00    +0.100 A 
ATOM     38  N   LIG    1      -20.125  78.342  33.286  0.00  0.00    -0.342 N 
ATOM     39  H   LIG    1      -19.194  78.379  32.886  0.00  0.00    +0.167 HD
BRANCH  34  40
ATOM     40  N   LIG    1      -21.030  76.670  31.823  0.00  0.00    -0.228 NA
BRANCH  40  41
ATOM     41  C   LIG    1      -20.239  76.981  30.633  0.00  0.00    +0.130 C 
BRANCH  41  43
ATOM     42  C   LIG    1      -22.538  76.909  29.571  0.00  0.00    +0.005 C 
ATOM     43  C   LIG    1      -21.051  76.636  29.387  0.00  0.00    +0.017 C 
ENDBRANCH  41  43
ENDBRANCH  40  41
ENDBRANCH  34  40
ENDBRANCH  28  36
ENDBRANCH  27  31
ENDBRANCH   1  27
TORSDOF 12
ENDMDL
MODEL 4
REMARK VINA RESULT:      -5.9     18.949     21.340
REMARK  Name = pdb/CHEMBL3968770.pdb
REMARK                            x       y       z     vdW  Elec       q    Type
REMARK                         _______ _______ _______ _____ _____    ______ ____
ROOT
ATOM      1  C   LIG    1      -36.730  66.918  19.809  0.00  0.00    +0.323 A 
ATOM      2  N   LIG    1      -36.796  68.244  19.605  0.00  0.00    -0.201 NA
ATOM      3  C   LIG    1      -37.571  68.946  20.481  0.00  0.00    +0.145 A 
ATOM      4  C   LIG    1      -38.284  68.414  21.548  0.00  0.00    +0.105 A 
ATOM      5  C   LIG    1      -38.126  67.041  21.638  0.00  0.00    +0.145 A 
ATOM      6  N   LIG    1      -37.377  66.276  20.799  0.00  0.00    -0.201 NA
ENDROOT
BRANCH   4   7
ATOM      7  N   LIG    1      -39.176  69.108  22.418  0.00  0.00    -0.196 NA
ATOM      8  C   LIG    1      -40.323  69.549  22.013  0.00  0.00    +0.285 C 
BRANCH   8   9
ATOM      9  N   LIG    1      -41.285  70.191  22.763  0.00  0.00    -0.268 N 
ATOM     10  H   LIG    1      -41.874  69.573  23.326  0.00  0.00    +0.157 HD
BRANCH   9  11
ATOM     11  C   LIG    1      -41.353  71.575  23.093  0.00  0.00    +0.060 A 
ATOM     12  C   LIG    1      -42.368  72.440  22.627  0.00  0.00    +0.109 A 
ATOM     13  C   LIG    1      -42.305  73.827  22.869  0.00  0.00    +0.029 A 
ATOM     14  C   LIG    1      -41.229  74.395  23.540  0.00  0.00    +0.014 A 
ATOM     15  C   LIG    1      -40.204  73.582  24.018  0.00  0.00    +0.057 A 
ATOM     16  C   LIG    1      -40.282  72.192  23.798  0.00  0.00    +0.037 A 
BRANCH  12  17
ATOM     17  S   LIG    1      -43.834  71.873  21.779  0.00  0.00    -0.004 S 
ATOM     18  C   LIG    1      -44.333  73.192  20.719  0.00  0.00    +0.200 C 
ATOM     19  O   LIG    1      -44.897  71.728  22.787  0.00  0.00    -0.170 OA
ATOM     20  O   LIG    1      -43.439  70.764  20.963  0.00  0.00    -0.170 OA
ENDBRANCH  12  17
BRANCH  15  21
ATOM     21  C   LIG    1      -39.038  74.212  24.748  0.00  0.00    +0.417 C 
ATOM     22  F   LIG    1      -39.263  74.328  26.084  0.00  0.00    -0.166 F 
ATOM     23  F   LIG    1      -38.774  75.471  24.299  0.00  0.00    -0.166 F 
ATOM     24  F   LIG    1      -37.876  73.518  24.617  0.00  0.00    -0.166 F 
ENDBRANCH  15  21
ENDBRANCH   9  11
ENDBRANCH   8   9
BRANCH   8  25
ATOM     25  O   LIG    1      -40.735  69.308  20.754  0.00  0.00    -0.481 OA
ATOM     26  H   LIG    1      -40.307  68.508  20.419  0.00  0.00    +0.295 HD
ENDBRANCH   8  25
ENDBRANCH   4   7
BRANCH   1  27
ATOM     27  O   LIG    1      -35.987  66.186  18.875  0.00  0.00    -0.424 OA
BRANCH  27  31
ATOM     28  C   LIG    1      -31.784  66.538  18.858  0.00  0.00    -0.010 A 
ATOM     29  C   LIG    1      -32.556  66.775  17.704  0.00  0.00    +0.012 A 
ATOM     30  C   LIG    1      -33.955  66.673  17.719  0.00  0.00    +0.047 A 
ATOM     31  C   LIG    1      -34.612  66.313  18.896  0.00  0.00    +0.132 A 
ATOM     32  C   LIG    1      -33.860  66.160  20.063  0.00  0.00    +0.047 A 
ATOM     33  C   LIG    1      -32.465  66.253  20.046  0.00  0.00    +0.012 A 
BRANCH  28  36
ATOM     34  C   LIG    1      -27.928  67.299  18.311  0.00  0.00    +0.156 A 
ATOM     35  S   LIG    1      -29.515  67.451  17.507  0.00  0.00    -0.053 S 
ATOM     36  C   LIG    1      -30.318  66.588  18.809  0.00  0.00    +0.038 A 
ATOM     37  C   LIG    1      -29.407  66.097  19.667  0.00  0.00    +0.100 A 
ATOM     38  N   LIG    1      -28.099  66.426  19.370  0.00  0.00    -0.342 N 
ATOM     39  H   LIG    1      -27.377  66.264  20.062  0.00  0.00    +0.167 HD
BRANCH  34  40
ATOM     40  N   LIG    1      -26.862  67.931  17.971  0.00  0.00    -0.228 NA
BRANCH  40  41
ATOM     41  C   LIG    1      -26.871  69.393  17.936  0.00  0.00    +0.130 C 
BRANCH  41  43
ATOM     42  C   LIG    1      -28.448  70.666  19.455  0.00  0.00    +0.005 C 
ATOM     43  C   LIG    1      -27.122  69.926  19.344  0.00  0.00    +0.017 C 
ENDBRANCH  41  43
ENDBRANCH  40  41
ENDBRANCH  34  40
ENDBRANCH  28  36
ENDBRANCH  27  31
ENDBRANCH   1  27
TORSDOF 12
ENDMDL
MODEL 5
REMARK VINA RESULT:      -5.9     17.678     20.634
REMARK  Name = pdb/CHEMBL3968770.pdb
REMARK                            x       y       z     vdW  Elec       q    Type
REMARK                         _______ _______ _______ _____ _____    ______ ____
ROOT
ATOM      1  C   LIG    1      -36.452  67.037  20.058  0.00  0.00    +0.323 A 
ATOM      2  N   LIG    1      -37.017  68.175  19.624  0.00  0.00    -0.201 NA
ATOM      3  C   LIG    1      -37.780  68.849  20.533  0.00  0.00    +0.145 A 
ATOM      4  C   LIG    1      -38.016  68.462  21.847  0.00  0.00    +0.105 A 
ATOM      5  C   LIG    1      -37.376  67.275  22.156  0.00  0.00    +0.145 A 
ATOM      6  N   LIG    1      -36.607  66.546  21.302  0.00  0.00    -0.201 NA
ENDROOT
BRANCH   4   7
ATOM      7  N   LIG    1      -38.885  69.094  22.786  0.00  0.00    -0.196 NA
ATOM      8  C   LIG    1      -38.469  70.020  23.587  0.00  0.00    +0.285 C 
BRANCH   8   9
ATOM      9  N   LIG    1      -39.217  70.734  24.501  0.00  0.00    -0.268 N 
ATOM     10  H   LIG    1      -39.167  70.386  25.461  0.00  0.00    +0.157 HD
BRANCH   9  11
ATOM     11  C   LIG    1      -39.773  72.036  24.344  0.00  0.00    +0.060 A 
ATOM     12  C   LIG    1      -41.009  72.286  23.709  0.00  0.00    +0.109 A 
ATOM     13  C   LIG    1      -41.440  73.605  23.458  0.00  0.00    +0.029 A 
ATOM     14  C   LIG    1      -40.651  74.698  23.791  0.00  0.00    +0.014 A 
ATOM     15  C   LIG    1      -39.423  74.501  24.419  0.00  0.00    +0.057 A 
ATOM     16  C   LIG    1      -39.006  73.183  24.693  0.00  0.00    +0.037 A 
BRANCH  12  17
ATOM     17  S   LIG    1      -42.158  71.000  23.247  0.00  0.00    -0.004 S 
ATOM     18  C   LIG    1      -41.719  70.510  21.609  0.00  0.00    +0.200 C 
ATOM     19  O   LIG    1      -43.492  71.615  23.149  0.00  0.00    -0.170 OA
ATOM     20  O   LIG    1      -41.920  69.895  24.127  0.00  0.00    -0.170 OA
ENDBRANCH  12  17
BRANCH  15  21
ATOM     21  C   LIG    1      -38.573  75.700  24.777  0.00  0.00    +0.417 C 
ATOM     22  F   LIG    1      -38.955  76.825  24.113  0.00  0.00    -0.166 F 
ATOM     23  F   LIG    1      -37.261  75.507  24.469  0.00  0.00    -0.166 F 
ATOM     24  F   LIG    1      -38.604  76.012  26.100  0.00  0.00    -0.166 F 
ENDBRANCH  15  21
ENDBRANCH   9  11
ENDBRANCH   8   9
BRANCH   8  25
ATOM     25  O   LIG    1      -37.199  70.461  23.513  0.00  0.00    -0.481 OA
ATOM     26  H   LIG    1      -36.641  69.779  23.115  0.00  0.00    +0.295 HD
ENDBRANCH   8  25
ENDBRANCH   4   7
BRANCH   1  27
ATOM     27  O   LIG    1      -35.720  66.311  19.112  0.00  0.00    -0.424 OA
BRANCH  27  31
ATOM     28  C   LIG    1      -31.731  67.502  18.437  0.00  0.00    -0.010 A 
ATOM     29  C   LIG    1      -32.097  66.723  19.551  0.00  0.00    +0.012 A 
ATOM     30  C   LIG    1      -33.422  66.315  19.763  0.00  0.00    +0.047 A 
ATOM     31  C   LIG    1      -34.417  66.697  18.862  0.00  0.00    +0.132 A 
ATOM     32  C   LIG    1      -34.048  67.395  17.712  0.00  0.00    +0.047 A 
ATOM     33  C   LIG    1      -32.728  67.810  17.506  0.00  0.00    +0.012 A 
BRANCH  28  36
ATOM     34  C   LIG    1      -28.319  69.458  17.906  0.00  0.00    +0.156 A 
ATOM     35  S   LIG    1      -30.042  69.489  17.436  0.00  0.00    -0.053 S 
ATOM     36  C   LIG    1      -30.351  67.972  18.264  0.00  0.00    +0.038 A 
ATOM     37  C   LIG    1      -29.195  67.438  18.695  0.00  0.00    +0.100 A 
ATOM     38  N   LIG    1      -28.077  68.210  18.450  0.00  0.00    -0.342 N 
ATOM     39  H   LIG    1      -27.203  67.978  18.908  0.00  0.00    +0.167 HD
BRANCH  34  40
ATOM     40  N   LIG    1      -27.501  70.443  17.788  0.00  0.00    -0.228 NA
BRANCH  40  41
ATOM     41  C   LIG    1      -26.254  70.439  18.551  0.00  0.00    +0.130 C 
BRANCH  41  43
ATOM     42  C   LIG    1      -25.370  70.480  16.177  0.00  0.00    +0.005 C 
ATOM     43  C   LIG    1      -25.104  70.843  17.632  0.00  0.00    +0.017 C 
ENDBRANCH  41  43
ENDBRANCH  40  41
ENDBRANCH  34  40
ENDBRANCH  28  36
ENDBRANCH  27  31
ENDBRANCH   1  27
TORSDOF 12
ENDMDL
MODEL 6
REMARK VINA RESULT:      -5.9      7.235     13.521
REMARK  Name = pdb/CHEMBL3968770.pdb
REMARK                            x       y       z     vdW  Elec       q    Type
REMARK                         _______ _______ _______ _____ _____    ______ ____
ROOT
ATOM      1  C   LIG    1      -33.052  76.589  30.016  0.00  0.00    +0.323 A 
ATOM      2  N   LIG    1      -32.060  76.401  29.130  0.00  0.00    -0.201 NA
ATOM      3  C   LIG    1      -30.855  76.029  29.651  0.00  0.00    +0.145 A 
ATOM      4  C   LIG    1      -30.575  75.831  30.998  0.00  0.00    +0.105 A 
ATOM      5  C   LIG    1      -31.684  76.061  31.793  0.00  0.00    +0.145 A 
ATOM      6  N   LIG    1      -32.912  76.440  31.346  0.00  0.00    -0.201 NA
ENDROOT
BRANCH   4   7
ATOM      7  N   LIG    1      -29.304  75.538  31.577  0.00  0.00    -0.196 NA
ATOM      8  C   LIG    1      -28.386  76.441  31.706  0.00  0.00    +0.285 C 
BRANCH   8   9
ATOM      9  N   LIG    1      -27.144  76.293  32.287  0.00  0.00    -0.268 N 
ATOM     10  H   LIG    1      -27.078  76.624  33.251  0.00  0.00    +0.157 HD
BRANCH   9  11
ATOM     11  C   LIG    1      -26.066  75.474  31.841  0.00  0.00    +0.060 A 
ATOM     12  C   LIG    1      -24.946  75.971  31.138  0.00  0.00    +0.109 A 
ATOM     13  C   LIG    1      -23.982  75.094  30.600  0.00  0.00    +0.029 A 
ATOM     14  C   LIG    1      -24.118  73.716  30.710  0.00  0.00    +0.014 A 
ATOM     15  C   LIG    1      -25.206  73.179  31.393  0.00  0.00    +0.057 A 
ATOM     16  C   LIG    1      -26.156  74.059  31.954  0.00  0.00    +0.037 A 
BRANCH  12  17
ATOM     17  S   LIG    1      -24.602  77.712  30.936  0.00  0.00    -0.004 S 
ATOM     18  C   LIG    1      -24.143  78.313  32.530  0.00  0.00    +0.200 C 
ATOM     19  O   LIG    1      -25.872  78.375  30.596  0.00  0.00    -0.170 OA
ATOM     20  O   LIG    1      -23.465  77.813  30.071  0.00  0.00    -0.170 OA
ENDBRANCH  12  17
BRANCH  15  21
ATOM     21  C   LIG    1      -25.343  71.677  31.506  0.00  0.00    +0.417 C 
ATOM     22  F   LIG    1      -24.152  71.035  31.361  0.00  0.00    -0.166 F 
ATOM     23  F   LIG    1      -26.166  71.165  30.549  0.00  0.00    -0.166 F 
ATOM     24  F   LIG    1      -25.853  71.266  32.697  0.00  0.00    -0.166 F 
ENDBRANCH  15  21
ENDBRANCH   9  11
ENDBRANCH   8   9
BRANCH   8  25
ATOM     25  O   LIG    1      -28.632  77.714  31.346  0.00  0.00    -0.481 OA
ATOM     26  H   LIG    1      -27.858  78.081  30.896  0.00  0.00    +0.295 HD
ENDBRANCH   8  25
ENDBRANCH   4   7
BRANCH   1  27
ATOM     27  O   LIG    1      -34.273  77.031  29.491  0.00  0.00    -0.424 OA
BRANCH  27  31
ATOM     28  C   LIG    1      -34.856  81.194  29.151  0.00  0.00    -0.010 A 
ATOM     29  C   LIG    1      -34.530  80.394  28.039  0.00  0.00    +0.012 A 
ATOM     30  C   LIG    1      -34.353  79.008  28.154  0.00  0.00    +0.047 A 
ATOM     31  C   LIG    1      -34.485  78.392  29.399  0.00  0.00    +0.132 A 
ATOM     32  C   LIG    1      -34.892  79.165  30.488  0.00  0.00    +0.047 A 
ATOM     33  C   LIG    1      -35.059  80.549  30.375  0.00  0.00    +0.012 A 
BRANCH  28  36
ATOM     34  C   LIG    1      -34.487  85.145  29.113  0.00  0.00    +0.156 A 
ATOM     35  S   LIG    1      -34.010  83.700  30.048  0.00  0.00    -0.053 S 
ATOM     36  C   LIG    1      -34.977  82.652  29.025  0.00  0.00    +0.038 A 
ATOM     37  C   LIG    1      -35.714  83.388  28.175  0.00  0.00    +0.100 A 
ATOM     38  N   LIG    1      -35.500  84.750  28.258  0.00  0.00    -0.342 N 
ATOM     39  H   LIG    1      -35.863  85.355  27.531  0.00  0.00    +0.167 HD
BRANCH  34  40
ATOM     40  N   LIG    1      -33.940  86.304  29.210  0.00  0.00    -0.228 NA
BRANCH  40  41
ATOM     41  C   LIG    1      -34.217  87.136  30.381  0.00  0.00    +0.130 C 
BRANCH  41  43
ATOM     42  C   LIG    1      -31.688  87.181  30.225  0.00  0.00    +0.005 C 
ATOM     43  C   LIG    1      -32.906  87.432  31.105  0.00  0.00    +0.017 C 
ENDBRANCH  41  43
ENDBRANCH  40  41
ENDBRANCH  34  40
ENDBRANCH  28  36
ENDBRANCH  27  31
ENDBRANCH   1  27
TORSDOF 12
ENDMDL
MODEL 7
REMARK VINA RESULT:      -5.9      7.629     14.023
REMARK  Name = pdb/CHEMBL3968770.pdb
REMARK                            x       y       z     vdW  Elec       q    Type
REMARK                         _______ _______ _______ _____ _____    ______ ____
ROOT
ATOM      1  C   LIG    1      -33.123  76.468  29.927  0.00  0.00    +0.323 A 
ATOM      2  N   LIG    1      -32.139  76.219  29.047  0.00  0.00    -0.201 NA
ATOM      3  C   LIG    1      -30.928  75.890  29.581  0.00  0.00    +0.145 A 
ATOM      4  C   LIG    1      -30.632  75.792  30.935  0.00  0.00    +0.105 A 
ATOM      5  C   LIG    1      -31.734  76.075  31.723  0.00  0.00    +0.145 A 
ATOM      6  N   LIG    1      -32.968  76.416  31.263  0.00  0.00    -0.201 NA
ENDROOT
BRANCH   4   7
ATOM      7  N   LIG    1      -29.354  75.546  31.520  0.00  0.00    -0.196 NA
ATOM      8  C   LIG    1      -28.468  76.480  31.646  0.00  0.00    +0.285 C 
BRANCH   8   9
ATOM      9  N   LIG    1      -27.223  76.379  32.231  0.00  0.00    -0.268 N 
ATOM     10  H   LIG    1      -27.155  76.782  33.168  0.00  0.00    +0.157 HD
BRANCH   9  11
ATOM     11  C   LIG    1      -26.146  75.531  31.845  0.00  0.00    +0.060 A 
ATOM     12  C   LIG    1      -24.986  75.993  31.184  0.00  0.00    +0.109 A 
ATOM     13  C   LIG    1      -24.019  75.088  30.702  0.00  0.00    +0.029 A 
ATOM     14  C   LIG    1      -24.189  73.715  30.826  0.00  0.00    +0.014 A 
ATOM     15  C   LIG    1      -25.317  73.212  31.469  0.00  0.00    +0.057 A 
ATOM     16  C   LIG    1      -26.270  74.120  31.975  0.00  0.00    +0.037 A 
BRANCH  12  17
ATOM     17  S   LIG    1      -24.596  77.722  30.971  0.00  0.00    -0.004 S 
ATOM     18  C   LIG    1      -24.205  78.342  32.577  0.00  0.00    +0.200 C 
ATOM     19  O   LIG    1      -25.833  78.405  30.555  0.00  0.00    -0.170 OA
ATOM     20  O   LIG    1      -23.415  77.785  30.164  0.00  0.00    -0.170 OA
ENDBRANCH  12  17
BRANCH  15  21
ATOM     21  C   LIG    1      -25.491  71.715  31.599  0.00  0.00    +0.417 C 
ATOM     22  F   LIG    1      -24.800  71.028  30.649  0.00  0.00    -0.166 F 
ATOM     23  F   LIG    1      -26.793  71.338  31.464  0.00  0.00    -0.166 F 
ATOM     24  F   LIG    1      -25.081  71.222  32.797  0.00  0.00    -0.166 F 
ENDBRANCH  15  21
ENDBRANCH   9  11
ENDBRANCH   8   9
BRANCH   8  25
ATOM     25  O   LIG    1      -28.756  77.742  31.275  0.00  0.00    -0.481 OA
ATOM     26  H   LIG    1      -27.993  78.131  30.825  0.00  0.00    +0.295 HD
ENDBRANCH   8  25
ENDBRANCH   4   7
BRANCH   1  27
ATOM     27  O   LIG    1      -34.351  76.866  29.385  0.00  0.00    -0.424 OA
BRANCH  27  31
ATOM     28  C   LIG    1      -35.021  80.963  28.646  0.00  0.00    -0.010 A 
ATOM     29  C   LIG    1      -35.474  80.335  29.822  0.00  0.00    +0.012 A 
ATOM     30  C   LIG    1      -35.235  78.975  30.071  0.00  0.00    +0.047 A 
ATOM     31  C   LIG    1      -34.544  78.209  29.131  0.00  0.00    +0.132 A 
ATOM     32  C   LIG    1      -34.018  78.845  28.005  0.00  0.00    +0.047 A 
ATOM     33  C   LIG    1      -34.265  80.198  27.753  0.00  0.00    +0.012 A 
BRANCH  28  36
ATOM     34  C   LIG    1      -36.381  84.487  27.427  0.00  0.00    +0.156 A 
ATOM     35  S   LIG    1      -36.094  82.819  26.855  0.00  0.00    -0.053 S 
ATOM     36  C   LIG    1      -35.334  82.372  28.373  0.00  0.00    +0.038 A 
ATOM     37  C   LIG    1      -35.176  83.459  29.148  0.00  0.00    +0.100 A 
ATOM     38  N   LIG    1      -35.687  84.625  28.615  0.00  0.00    -0.342 N 
ATOM     39  H   LIG    1      -35.784  85.442  29.208  0.00  0.00    +0.167 HD
BRANCH  34  40
ATOM     40  N   LIG    1      -37.132  85.351  26.843  0.00  0.00    -0.228 NA
BRANCH  40  41
ATOM     41  C   LIG    1      -36.530  86.538  26.238  0.00  0.00    +0.130 C 
BRANCH  41  43
ATOM     42  C   LIG    1      -37.841  85.543  24.311  0.00  0.00    +0.005 C 
ATOM     43  C   LIG    1      -36.705  86.471  24.722  0.00  0.00    +0.017 C 
ENDBRANCH  41  43
ENDBRANCH  40  41
ENDBRANCH  34  40
ENDBRANCH  28  36
ENDBRANCH  27  31
ENDBRANCH   1  27
TORSDOF 12
ENDMDL
MODEL 8
REMARK VINA RESULT:      -5.7     10.452     12.249
REMARK  Name = pdb/CHEMBL3968770.pdb
REMARK                            x       y       z     vdW  Elec       q    Type
REMARK                         _______ _______ _______ _____ _____    ______ ____
ROOT
ATOM      1  C   LIG    1      -33.417  76.071  30.630  0.00  0.00    +0.323 A 
ATOM      2  N   LIG    1      -33.560  74.956  29.895  0.00  0.00    -0.201 NA
ATOM      3  C   LIG    1      -34.099  75.123  28.653  0.00  0.00    +0.145 A 
ATOM      4  C   LIG    1      -34.504  76.330  28.095  0.00  0.00    +0.105 A 
ATOM      5  C   LIG    1      -34.301  77.391  28.961  0.00  0.00    +0.145 A 
ATOM      6  N   LIG    1      -33.777  77.299  30.213  0.00  0.00    -0.201 NA
ENDROOT
BRANCH   4   7
ATOM      7  N   LIG    1      -35.159  76.521  26.841  0.00  0.00    -0.196 NA
ATOM      8  C   LIG    1      -36.430  76.329  26.697  0.00  0.00    +0.285 C 
BRANCH   8   9
ATOM      9  N   LIG    1      -37.180  76.522  25.555  0.00  0.00    -0.268 N 
ATOM     10  H   LIG    1      -36.850  77.273  24.946  0.00  0.00    +0.157 HD
BRANCH   9  11
ATOM     11  C   LIG    1      -38.131  75.632  24.978  0.00  0.00    +0.060 A 
ATOM     12  C   LIG    1      -39.420  76.030  24.559  0.00  0.00    +0.109 A 
ATOM     13  C   LIG    1      -40.366  75.080  24.126  0.00  0.00    +0.029 A 
ATOM     14  C   LIG    1      -40.079  73.721  24.131  0.00  0.00    +0.014 A 
ATOM     15  C   LIG    1      -38.822  73.280  24.536  0.00  0.00    +0.057 A 
ATOM     16  C   LIG    1      -37.867  74.234  24.943  0.00  0.00    +0.037 A 
BRANCH  12  17
ATOM     17  S   LIG    1      -39.940  77.736  24.459  0.00  0.00    -0.004 S 
ATOM     18  C   LIG    1      -40.187  78.275  26.121  0.00  0.00    +0.200 C 
ATOM     19  O   LIG    1      -41.266  77.755  23.818  0.00  0.00    -0.170 OA
ATOM     20  O   LIG    1      -38.844  78.472  23.903  0.00  0.00    -0.170 OA
ENDBRANCH  12  17
BRANCH  15  21
ATOM     21  C   LIG    1      -38.521  71.797  24.536  0.00  0.00    +0.417 C 
ATOM     22  F   LIG    1      -38.768  71.217  25.742  0.00  0.00    -0.166 F 
ATOM     23  F   LIG    1      -37.213  71.541  24.256  0.00  0.00    -0.166 F 
ATOM     24  F   LIG    1      -39.243  71.096  23.623  0.00  0.00    -0.166 F 
ENDBRANCH  15  21
ENDBRANCH   9  11
ENDBRANCH   8   9
BRANCH   8  25
ATOM     25  O   LIG    1      -37.190  75.996  27.756  0.00  0.00    -0.481 OA
ATOM     26  H   LIG    1      -36.791  75.248  28.222  0.00  0.00    +0.295 HD
ENDBRANCH   8  25
ENDBRANCH   4   7
BRANCH   1  27
ATOM     27  O   LIG    1      -32.922  75.895  31.928  0.00  0.00    -0.424 OA
BRANCH  27  31
ATOM     28  C   LIG    1      -28.809  76.540  32.596  0.00  0.00    -0.010 A 
ATOM     29  C   LIG    1      -29.794  77.078  33.445  0.00  0.00    +0.012 A 
ATOM     30  C   LIG    1      -31.161  76.848  33.229  0.00  0.00    +0.047 A 
ATOM     31  C   LIG    1      -31.570  76.079  32.138  0.00  0.00    +0.132 A 
ATOM     32  C   LIG    1      -30.596  75.473  31.343  0.00  0.00    +0.047 A 
ATOM     33  C   LIG    1      -29.234  75.711  31.553  0.00  0.00    +0.012 A 
BRANCH  28  36
ATOM     34  C   LIG    1      -24.946  77.430  32.396  0.00  0.00    +0.156 A 
ATOM     35  S   LIG    1      -26.244  76.602  31.491  0.00  0.00    -0.053 S 
ATOM     36  C   LIG    1      -27.387  76.843  32.801  0.00  0.00    +0.038 A 
ATOM     37  C   LIG    1      -26.757  77.352  33.874  0.00  0.00    +0.100 A 
ATOM     38  N   LIG    1      -25.416  77.617  33.683  0.00  0.00    -0.342 N 
ATOM     39  H   LIG    1      -24.917  78.176  34.367  0.00  0.00    +0.167 HD
BRANCH  34  40
ATOM     40  N   LIG    1      -23.821  77.806  31.901  0.00  0.00    -0.228 NA
BRANCH  40  41
ATOM     41  C   LIG    1      -23.657  77.867  30.449  0.00  0.00    +0.130 C 
BRANCH  41  43
ATOM     42  C   LIG    1      -22.225  75.779  30.340  0.00  0.00    +0.005 C 
ATOM     43  C   LIG    1      -22.300  77.277  30.073  0.00  0.00    +0.017 C 
ENDBRANCH  41  43
ENDBRANCH  40  41
ENDBRANCH  34  40
ENDBRANCH  28  36
ENDBRANCH  27  31
ENDBRANCH   1  27
TORSDOF 12
ENDMDL
MODEL 9
REMARK VINA RESULT:      -5.7     20.456     23.740
REMARK  Name = pdb/CHEMBL3968770.pdb
REMARK                            x       y       z     vdW  Elec       q    Type
REMARK                         _______ _______ _______ _____ _____    ______ ____
ROOT
ATOM      1  C   LIG    1      -32.256  76.093   9.050  0.00  0.00    +0.323 A 
ATOM      2  N   LIG    1      -33.341  76.471   9.746  0.00  0.00    -0.201 NA
ATOM      3  C   LIG    1      -33.477  77.811   9.961  0.00  0.00    +0.145 A 
ATOM      4  C   LIG    1      -32.602  78.800   9.527  0.00  0.00    +0.105 A 
ATOM      5  C   LIG    1      -31.532  78.269   8.827  0.00  0.00    +0.145 A 
ATOM      6  N   LIG    1      -31.328  76.947   8.580  0.00  0.00    -0.201 NA
ENDROOT
BRANCH   4   7
ATOM      7  N   LIG    1      -32.668  80.195   9.820  0.00  0.00    -0.196 NA
ATOM      8  C   LIG    1      -32.334  80.668  10.977  0.00  0.00    +0.285 C 
BRANCH   8   9
ATOM      9  N   LIG    1      -32.312  81.991  11.365  0.00  0.00    -0.268 N 
ATOM     10  H   LIG    1      -31.465  82.279  11.860  0.00  0.00    +0.157 HD
BRANCH   9  11
ATOM     11  C   LIG    1      -33.144  83.049  10.899  0.00  0.00    +0.060 A 
ATOM     12  C   LIG    1      -32.704  84.056  10.011  0.00  0.00    +0.109 A 
ATOM     13  C   LIG    1      -33.529  85.154   9.696  0.00  0.00    +0.029 A 
ATOM     14  C   LIG    1      -34.783  85.305  10.275  0.00  0.00    +0.014 A 
ATOM     15  C   LIG    1      -35.259  84.339  11.157  0.00  0.00    +0.057 A 
ATOM     16  C   LIG    1      -34.444  83.227  11.450  0.00  0.00    +0.037 A 
BRANCH  12  17
ATOM     17  S   LIG    1      -31.138  83.999   9.156  0.00  0.00    -0.004 S 
ATOM     18  C   LIG    1      -31.320  82.805   7.869  0.00  0.00    +0.200 C 
ATOM     19  O   LIG    1      -30.144  83.448  10.092  0.00  0.00    -0.170 OA
ATOM     20  O   LIG    1      -30.947  85.284   8.553  0.00  0.00    -0.170 OA
ENDBRANCH  12  17
BRANCH  15  21
ATOM     21  C   LIG    1      -36.627  84.514  11.780  0.00  0.00    +0.417 C 
ATOM     22  F   LIG    1      -37.516  83.577  11.354  0.00  0.00    -0.166 F 
ATOM     23  F   LIG    1      -37.177  85.722  11.475  0.00  0.00    -0.166 F 
ATOM     24  F   LIG    1      -36.619  84.440  13.138  0.00  0.00    -0.166 F 
ENDBRANCH  15  21
ENDBRANCH   9  11
ENDBRANCH   8   9
BRANCH   8  25
ATOM     25  O   LIG    1      -31.852  79.849  11.931  0.00  0.00    -0.481 OA
ATOM     26  H   LIG    1      -32.383  79.041  11.965  0.00  0.00    +0.295 HD
ENDBRANCH   8  25
ENDBRANCH   4   7
BRANCH   1  27
ATOM     27  O   LIG    1      -32.080  74.714   8.881  0.00  0.00    -0.424 OA
BRANCH  27  31
ATOM     28  C   LIG    1      -31.436  72.348  12.311  0.00  0.00    -0.010 A 
ATOM     29  C   LIG    1      -32.314  71.949  11.286  0.00  0.00    +0.012 A 
ATOM     30  C   LIG    1      -32.513  72.731  10.139  0.00  0.00    +0.047 A 
ATOM     31  C   LIG    1      -31.841  73.947  10.004  0.00  0.00    +0.132 A 
ATOM     32  C   LIG    1      -30.906  74.307  10.975  0.00  0.00    +0.047 A 
ATOM     33  C   LIG    1      -30.715  73.531  12.123  0.00  0.00    +0.012 A 
BRANCH  28  36
ATOM     34  C   LIG    1      -30.362  70.530  15.672  0.00  0.00    +0.156 A 
ATOM     35  S   LIG    1      -29.685  71.202  14.162  0.00  0.00    -0.053 S 
ATOM     36  C   LIG    1      -31.287  71.547  13.533  0.00  0.00    +0.038 A 
ATOM     37  C   LIG    1      -32.224  71.028  14.346  0.00  0.00    +0.100 A 
ATOM     38  N   LIG    1      -31.727  70.418  15.481  0.00  0.00    -0.342 N 
ATOM     39  H   LIG    1      -32.363  70.177  16.233  0.00  0.00    +0.167 HD
BRANCH  34  40
ATOM     40  N   LIG    1      -29.686  70.258  16.730  0.00  0.00    -0.228 NA
BRANCH  40  41
ATOM     41  C   LIG    1      -28.913  71.313  17.383  0.00  0.00    +0.130 C 
BRANCH  41  43
ATOM     42  C   LIG    1      -28.237  70.394  19.645  0.00  0.00    +0.005 C 
ATOM     43  C   LIG    1      -27.800  70.679  18.214  0.00  0.00    +0.017 C 
ENDBRANCH  41  43
ENDBRANCH  40  41
ENDBRANCH  34  40
ENDBRANCH  28  36
ENDBRANCH  27  31
ENDBRANCH   1  27
TORSDOF 12
ENDMDL
