MODEL 1
REMARK VINA RESULT:      -5.8      0.000      0.000
REMARK  Name = pdb/CHEMBL3671156.pdb
REMARK                            x       y       z     vdW  Elec       q    Type
REMARK                         _______ _______ _______ _____ _____    ______ ____
ROOT
ATOM      1  C   LIG    1      -22.885  78.218  35.015  0.00  0.00    +0.126 A 
ATOM      2  N   LIG    1      -23.157  77.884  33.769  0.00  0.00    -0.212 NA
ATOM      3  C   LIG    1      -24.470  77.662  33.426  0.00  0.00    +0.170 A 
ATOM      4  C   LIG    1      -25.061  77.236  32.249  0.00  0.00    +0.100 A 
ATOM      5  C   LIG    1      -26.443  77.221  32.536  0.00  0.00    +0.150 A 
ATOM      6  N   LIG    1      -26.723  77.573  33.792  0.00  0.00    -0.173 NA
ATOM      7  N   LIG    1      -25.511  77.813  34.344  0.00  0.00    -0.221 N 
ATOM      8  C   LIG    1      -25.244  78.161  35.654  0.00  0.00    +0.118 A 
ATOM      9  C   LIG    1      -23.984  78.378  36.046  0.00  0.00    +0.063 A 
ENDROOT
BRANCH   1  11
ATOM     10  C   LIG    1      -20.767  79.598  34.958  0.00  0.00    +0.108 C 
ATOM     11  N   LIG    1      -21.564  78.432  35.383  0.00  0.00    -0.308 N 
ATOM     12  C   LIG    1      -20.703  77.458  36.035  0.00  0.00    +0.107 C 
ATOM     13  C   LIG    1      -19.389  77.591  35.295  0.00  0.00    +0.021 C 
ATOM     14  C   LIG    1      -19.321  79.052  34.879  0.00  0.00    +0.029 C 
BRANCH  10  18
ATOM     15  F   LIG    1      -19.214  82.333  38.756  0.00  0.00    -0.205 F 
ATOM     16  C   LIG    1      -20.124  82.117  37.796  0.00  0.00    +0.124 A 
ATOM     17  C   LIG    1      -19.957  81.037  36.931  0.00  0.00    +0.046 A 
ATOM     18  C   LIG    1      -20.891  80.779  35.914  0.00  0.00    +0.011 A 
ATOM     19  C   LIG    1      -21.993  81.645  35.822  0.00  0.00    +0.129 A 
ATOM     20  F   LIG    1      -22.926  81.437  34.882  0.00  0.00    -0.205 F 
ATOM     21  C   LIG    1      -22.158  82.731  36.689  0.00  0.00    +0.041 A 
ATOM     22  C   LIG    1      -21.215  82.968  37.685  0.00  0.00    +0.041 A 
ENDBRANCH  10  18
ENDBRANCH   1  11
BRANCH   4  23
ATOM     23  C   LIG    1      -24.433  76.851  30.999  0.00  0.00    +0.249 C 
ATOM     24  N   LIG    1      -23.156  76.344  31.119  0.00  0.00    -0.310 N 
ATOM     25  H   LIG    1      -22.753  76.323  32.055  0.00  0.00    +0.149 HD
ATOM     26  O   LIG    1      -25.008  76.947  29.925  0.00  0.00    -0.270 OA
BRANCH  24  27
ATOM     27  C   LIG    1      -22.439  75.774  29.994  0.00  0.00    +0.126 C 
BRANCH  27  28
ATOM     28  C   LIG    1      -21.481  76.769  29.342  0.00  0.00    +0.141 C 
BRANCH  28  29
ATOM     29  N   LIG    1      -20.312  77.025  30.161  0.00  0.00    -0.335 N 
ATOM     30  C   LIG    1      -20.168  78.043  31.060  0.00  0.00    +0.199 A 
ATOM     31  N   LIG    1      -18.999  77.994  31.656  0.00  0.00    -0.244 NA
ATOM     32  C   LIG    1      -18.353  76.920  31.100  0.00  0.00    +0.130 A 
ATOM     33  C   LIG    1      -19.146  76.313  30.153  0.00  0.00    +0.107 A 
ENDBRANCH  28  29
ENDBRANCH  27  28
ENDBRANCH  24  27
ENDBRANCH   4  23
TORSDOF 6
ENDMDL
MODEL 2
REMARK VINA RESULT:      -5.7     13.271     17.912
REMARK  Name = pdb/CHEMBL3671156.pdb
REMARK                            x       y       z     vdW  Elec       q    Type
REMARK                         _______ _______ _______ _____ _____    ______ ____
ROOT
ATOM      1  C   LIG    1      -39.130  78.838  27.051  0.00  0.00    +0.126 A 
ATOM      2  N   LIG    1      -37.843  79.119  27.076  0.00  0.00    -0.212 NA
ATOM      3  C   LIG    1      -37.253  79.363  28.293  0.00  0.00    +0.170 A 
ATOM      4  C   LIG    1      -35.969  79.750  28.641  0.00  0.00    +0.100 A 
ATOM      5  C   LIG    1      -35.993  79.819  30.050  0.00  0.00    +0.150 A 
ATOM      6  N   LIG    1      -37.189  79.538  30.570  0.00  0.00    -0.173 NA
ATOM      7  N   LIG    1      -37.966  79.288  29.491  0.00  0.00    -0.221 N 
ATOM      8  C   LIG    1      -39.317  78.996  29.483  0.00  0.00    +0.118 A 
ATOM      9  C   LIG    1      -39.945  78.761  28.327  0.00  0.00    +0.063 A 
ENDROOT
BRANCH   1  11
ATOM     10  C   LIG    1      -39.052  78.060  24.646  0.00  0.00    +0.108 C 
ATOM     11  N   LIG    1      -39.746  78.602  25.830  0.00  0.00    -0.308 N 
ATOM     12  C   LIG    1      -41.077  79.055  25.457  0.00  0.00    +0.107 C 
ATOM     13  C   LIG    1      -40.897  79.570  24.045  0.00  0.00    +0.021 C 
ATOM     14  C   LIG    1      -39.794  78.706  23.451  0.00  0.00    +0.029 C 
BRANCH  10  18
ATOM     15  F   LIG    1      -41.197  73.759  23.545  0.00  0.00    -0.205 F 
ATOM     16  C   LIG    1      -40.149  74.418  24.055  0.00  0.00    +0.124 A 
ATOM     17  C   LIG    1      -40.160  75.812  24.063  0.00  0.00    +0.046 A 
ATOM     18  C   LIG    1      -39.079  76.537  24.592  0.00  0.00    +0.011 A 
ATOM     19  C   LIG    1      -38.006  75.796  25.116  0.00  0.00    +0.129 A 
ATOM     20  F   LIG    1      -36.955  76.434  25.649  0.00  0.00    -0.205 F 
ATOM     21  C   LIG    1      -37.994  74.398  25.104  0.00  0.00    +0.041 A 
ATOM     22  C   LIG    1      -39.076  73.703  24.569  0.00  0.00    +0.041 A 
ENDBRANCH  10  18
ENDBRANCH   1  11
BRANCH   4  23
ATOM     23  C   LIG    1      -34.843  80.055  27.779  0.00  0.00    +0.249 C 
ATOM     24  N   LIG    1      -33.794  79.163  27.851  0.00  0.00    -0.310 N 
ATOM     25  H   LIG    1      -33.878  78.402  28.524  0.00  0.00    +0.149 HD
ATOM     26  O   LIG    1      -34.841  81.018  27.027  0.00  0.00    -0.270 OA
BRANCH  24  27
ATOM     27  C   LIG    1      -32.655  79.230  26.954  0.00  0.00    +0.126 C 
BRANCH  27  28
ATOM     28  C   LIG    1      -32.150  77.850  26.541  0.00  0.00    +0.141 C 
BRANCH  28  29
ATOM     29  N   LIG    1      -32.515  76.821  27.494  0.00  0.00    -0.335 N 
ATOM     30  C   LIG    1      -33.584  75.977  27.394  0.00  0.00    +0.199 A 
ATOM     31  N   LIG    1      -33.635  75.145  28.410  0.00  0.00    -0.244 NA
ATOM     32  C   LIG    1      -32.574  75.485  29.210  0.00  0.00    +0.130 A 
ATOM     33  C   LIG    1      -31.874  76.539  28.668  0.00  0.00    +0.107 A 
ENDBRANCH  28  29
ENDBRANCH  27  28
ENDBRANCH  24  27
ENDBRANCH   4  23
TORSDOF 6
ENDMDL
MODEL 3
REMARK VINA RESULT:      -5.7      3.152      7.095
REMARK  Name = pdb/CHEMBL3671156.pdb
REMARK                            x       y       z     vdW  Elec       q    Type
REMARK                         _______ _______ _______ _____ _____    ______ ____
ROOT
ATOM      1  C   LIG    1      -21.131  78.089  32.608  0.00  0.00    +0.126 A 
ATOM      2  N   LIG    1      -22.194  78.519  33.257  0.00  0.00    -0.212 NA
ATOM      3  C   LIG    1      -22.007  79.357  34.331  0.00  0.00    +0.170 A 
ATOM      4  C   LIG    1      -22.893  79.908  35.242  0.00  0.00    +0.100 A 
ATOM      5  C   LIG    1      -22.080  80.688  36.093  0.00  0.00    +0.150 A 
ATOM      6  N   LIG    1      -20.784  80.623  35.786  0.00  0.00    -0.173 NA
ATOM      7  N   LIG    1      -20.738  79.784  34.725  0.00  0.00    -0.221 N 
ATOM      8  C   LIG    1      -19.613  79.342  34.057  0.00  0.00    +0.118 A 
ATOM      9  C   LIG    1      -19.734  78.516  33.013  0.00  0.00    +0.063 A 
ENDROOT
BRANCH   1  11
ATOM     10  C   LIG    1      -20.255  76.954  30.525  0.00  0.00    +0.108 C 
ATOM     11  N   LIG    1      -21.299  77.231  31.530  0.00  0.00    -0.308 N 
ATOM     12  C   LIG    1      -22.565  76.663  31.095  0.00  0.00    +0.107 C 
ATOM     13  C   LIG    1      -22.524  76.808  29.589  0.00  0.00    +0.021 C 
ATOM     14  C   LIG    1      -21.052  76.687  29.225  0.00  0.00    +0.029 C 
BRANCH  10  18
ATOM     15  F   LIG    1      -19.514  72.429  32.336  0.00  0.00    -0.205 F 
ATOM     16  C   LIG    1      -19.002  73.551  31.815  0.00  0.00    +0.124 A 
ATOM     17  C   LIG    1      -19.861  74.589  31.458  0.00  0.00    +0.046 A 
ATOM     18  C   LIG    1      -19.361  75.782  30.910  0.00  0.00    +0.011 A 
ATOM     19  C   LIG    1      -17.968  75.879  30.753  0.00  0.00    +0.129 A 
ATOM     20  F   LIG    1      -17.432  77.001  30.252  0.00  0.00    -0.205 F 
ATOM     21  C   LIG    1      -17.107  74.836  31.109  0.00  0.00    +0.041 A 
ATOM     22  C   LIG    1      -17.629  73.662  31.645  0.00  0.00    +0.041 A 
ENDBRANCH  10  18
ENDBRANCH   1  11
BRANCH   4  23
ATOM     23  C   LIG    1      -24.328  79.722  35.348  0.00  0.00    +0.249 C 
ATOM     24  N   LIG    1      -24.806  78.552  34.797  0.00  0.00    -0.310 N 
ATOM     25  H   LIG    1      -24.130  77.947  34.333  0.00  0.00    +0.149 HD
ATOM     26  O   LIG    1      -25.049  80.533  35.908  0.00  0.00    -0.270 OA
BRANCH  24  27
ATOM     27  C   LIG    1      -26.188  78.134  34.944  0.00  0.00    +0.126 C 
BRANCH  27  28
ATOM     28  C   LIG    1      -26.364  76.624  34.803  0.00  0.00    +0.141 C 
BRANCH  28  29
ATOM     29  N   LIG    1      -26.249  76.182  33.427  0.00  0.00    -0.335 N 
ATOM     30  C   LIG    1      -26.688  76.860  32.326  0.00  0.00    +0.199 A 
ATOM     31  N   LIG    1      -26.420  76.204  31.220  0.00  0.00    -0.244 NA
ATOM     32  C   LIG    1      -25.808  75.046  31.625  0.00  0.00    +0.130 A 
ATOM     33  C   LIG    1      -25.708  75.003  32.997  0.00  0.00    +0.107 A 
ENDBRANCH  28  29
ENDBRANCH  27  28
ENDBRANCH  24  27
ENDBRANCH   4  23
TORSDOF 6
ENDMDL
MODEL 4
REMARK VINA RESULT:      -5.6      2.062      5.155
REMARK  Name = pdb/CHEMBL3671156.pdb
REMARK                            x       y       z     vdW  Elec       q    Type
REMARK                         _______ _______ _______ _____ _____    ______ ____
ROOT
ATOM      1  C   LIG    1      -21.058  78.137  33.111  0.00  0.00    +0.126 A 
ATOM      2  N   LIG    1      -22.288  77.754  32.834  0.00  0.00    -0.212 NA
ATOM      3  C   LIG    1      -22.598  77.449  31.530  0.00  0.00    +0.170 A 
ATOM      4  C   LIG    1      -23.790  77.098  30.917  0.00  0.00    +0.100 A 
ATOM      5  C   LIG    1      -23.443  76.902  29.563  0.00  0.00    +0.150 A 
ATOM      6  N   LIG    1      -22.155  77.138  29.311  0.00  0.00    -0.173 NA
ATOM      7  N   LIG    1      -21.645  77.501  30.511  0.00  0.00    -0.221 N 
ATOM      8  C   LIG    1      -20.351  77.902  30.783  0.00  0.00    +0.118 A 
ATOM      9  C   LIG    1      -19.997  78.221  32.031  0.00  0.00    +0.063 A 
ENDROOT
BRANCH   1  11
ATOM     10  C   LIG    1      -20.528  79.843  34.901  0.00  0.00    +0.108 C 
ATOM     11  N   LIG    1      -20.730  78.462  34.420  0.00  0.00    -0.308 N 
ATOM     12  C   LIG    1      -20.316  77.517  35.444  0.00  0.00    +0.107 C 
ATOM     13  C   LIG    1      -19.152  78.210  36.120  0.00  0.00    +0.021 C 
ATOM     14  C   LIG    1      -19.470  79.695  36.021  0.00  0.00    +0.029 C 
BRANCH  10  18
ATOM     15  F   LIG    1      -25.387  79.832  35.740  0.00  0.00    -0.205 F 
ATOM     16  C   LIG    1      -24.216  80.480  35.800  0.00  0.00    +0.124 A 
ATOM     17  C   LIG    1      -23.061  79.840  35.353  0.00  0.00    +0.046 A 
ATOM     18  C   LIG    1      -21.815  80.489  35.399  0.00  0.00    +0.011 A 
ATOM     19  C   LIG    1      -21.795  81.801  35.900  0.00  0.00    +0.129 A 
ATOM     20  F   LIG    1      -20.638  82.475  35.952  0.00  0.00    -0.205 F 
ATOM     21  C   LIG    1      -22.954  82.440  36.352  0.00  0.00    +0.041 A 
ATOM     22  C   LIG    1      -24.175  81.774  36.301  0.00  0.00    +0.041 A 
ENDBRANCH  10  18
ENDBRANCH   1  11
BRANCH   4  23
ATOM     23  C   LIG    1      -25.114  76.981  31.497  0.00  0.00    +0.249 C 
ATOM     24  N   LIG    1      -25.169  77.143  32.865  0.00  0.00    -0.310 N 
ATOM     25  H   LIG    1      -24.284  77.287  33.351  0.00  0.00    +0.149 HD
ATOM     26  O   LIG    1      -26.107  76.779  30.815  0.00  0.00    -0.270 OA
BRANCH  24  27
ATOM     27  C   LIG    1      -26.425  77.206  33.589  0.00  0.00    +0.126 C 
BRANCH  27  28
ATOM     28  C   LIG    1      -26.787  75.881  34.255  0.00  0.00    +0.141 C 
BRANCH  28  29
ATOM     29  N   LIG    1      -27.492  74.988  33.356  0.00  0.00    -0.335 N 
ATOM     30  C   LIG    1      -28.681  75.247  32.736  0.00  0.00    +0.199 A 
ATOM     31  N   LIG    1      -29.051  74.245  31.971  0.00  0.00    -0.244 NA
ATOM     32  C   LIG    1      -28.077  73.292  32.126  0.00  0.00    +0.130 A 
ATOM     33  C   LIG    1      -27.106  73.727  32.999  0.00  0.00    +0.107 A 
ENDBRANCH  28  29
ENDBRANCH  27  28
ENDBRANCH  24  27
ENDBRANCH   4  23
TORSDOF 6
ENDMDL
MODEL 5
REMARK VINA RESULT:      -5.6      1.750      4.860
REMARK  Name = pdb/CHEMBL3671156.pdb
REMARK                            x       y       z     vdW  Elec       q    Type
REMARK                         _______ _______ _______ _____ _____    ______ ____
ROOT
ATOM      1  C   LIG    1      -21.017  79.001  34.006  0.00  0.00    +0.126 A 
ATOM      2  N   LIG    1      -21.429  78.370  32.924  0.00  0.00    -0.212 NA
ATOM      3  C   LIG    1      -20.483  77.853  32.072  0.00  0.00    +0.170 A 
ATOM      4  C   LIG    1      -20.588  77.217  30.845  0.00  0.00    +0.100 A 
ATOM      5  C   LIG    1      -19.256  76.920  30.490  0.00  0.00    +0.150 A 
ATOM      6  N   LIG    1      -18.364  77.350  31.384  0.00  0.00    -0.173 NA
ATOM      7  N   LIG    1      -19.116  77.948  32.337  0.00  0.00    -0.221 N 
ATOM      8  C   LIG    1      -18.666  78.607  33.465  0.00  0.00    +0.118 A 
ATOM      9  C   LIG    1      -19.541  79.140  34.323  0.00  0.00    +0.063 A 
ENDROOT
BRANCH   1  11
ATOM     10  C   LIG    1      -21.937  79.354  36.335  0.00  0.00    +0.108 C 
ATOM     11  N   LIG    1      -21.957  79.542  34.872  0.00  0.00    -0.308 N 
ATOM     12  C   LIG    1      -23.208  80.168  34.472  0.00  0.00    +0.107 C 
ATOM     13  C   LIG    1      -24.217  79.606  35.451  0.00  0.00    +0.021 C 
ATOM     14  C   LIG    1      -23.433  79.378  36.734  0.00  0.00    +0.029 C 
BRANCH  10  18
ATOM     15  F   LIG    1      -20.512  84.018  37.058  0.00  0.00    -0.205 F 
ATOM     16  C   LIG    1      -20.419  82.727  37.400  0.00  0.00    +0.124 A 
ATOM     17  C   LIG    1      -21.197  81.787  36.726  0.00  0.00    +0.046 A 
ATOM     18  C   LIG    1      -21.126  80.423  37.057  0.00  0.00    +0.011 A 
ATOM     19  C   LIG    1      -20.233  80.058  38.079  0.00  0.00    +0.129 A 
ATOM     20  F   LIG    1      -20.110  78.769  38.425  0.00  0.00    -0.205 F 
ATOM     21  C   LIG    1      -19.455  81.002  38.757  0.00  0.00    +0.041 A 
ATOM     22  C   LIG    1      -19.549  82.349  38.413  0.00  0.00    +0.041 A 
ENDBRANCH  10  18
ENDBRANCH   1  11
BRANCH   4  23
ATOM     23  C   LIG    1      -21.777  76.937  30.062  0.00  0.00    +0.249 C 
ATOM     24  N   LIG    1      -22.970  77.250  30.678  0.00  0.00    -0.310 N 
ATOM     25  H   LIG    1      -22.919  77.606  31.632  0.00  0.00    +0.149 HD
ATOM     26  O   LIG    1      -21.717  76.480  28.930  0.00  0.00    -0.270 OA
BRANCH  24  27
ATOM     27  C   LIG    1      -24.243  77.174  29.987  0.00  0.00    +0.126 C 
BRANCH  27  28
ATOM     28  C   LIG    1      -25.363  77.893  30.736  0.00  0.00    +0.141 C 
BRANCH  28  29
ATOM     29  N   LIG    1      -25.888  77.102  31.832  0.00  0.00    -0.335 N 
ATOM     30  C   LIG    1      -26.715  76.021  31.718  0.00  0.00    +0.199 A 
ATOM     31  N   LIG    1      -27.001  75.510  32.894  0.00  0.00    -0.244 NA
ATOM     32  C   LIG    1      -26.355  76.309  33.803  0.00  0.00    +0.130 A 
ATOM     33  C   LIG    1      -25.672  77.318  33.164  0.00  0.00    +0.107 A 
ENDBRANCH  28  29
ENDBRANCH  27  28
ENDBRANCH  24  27
ENDBRANCH   4  23
TORSDOF 6
ENDMDL
MODEL 6
REMARK VINA RESULT:      -5.5      6.094     10.244
REMARK  Name = pdb/CHEMBL3671156.pdb
REMARK                            x       y       z     vdW  Elec       q    Type
REMARK                         _______ _______ _______ _____ _____    ______ ____
ROOT
ATOM      1  C   LIG    1      -31.170  75.896  31.326  0.00  0.00    +0.126 A 
ATOM      2  N   LIG    1      -29.852  75.880  31.289  0.00  0.00    -0.212 NA
ATOM      3  C   LIG    1      -29.164  76.380  32.368  0.00  0.00    +0.170 A 
ATOM      4  C   LIG    1      -27.811  76.569  32.599  0.00  0.00    +0.100 A 
ATOM      5  C   LIG    1      -27.750  77.109  33.901  0.00  0.00    +0.150 A 
ATOM      6  N   LIG    1      -28.951  77.287  34.454  0.00  0.00    -0.173 NA
ATOM      7  N   LIG    1      -29.816  76.868  33.502  0.00  0.00    -0.221 N 
ATOM      8  C   LIG    1      -31.196  76.894  33.557  0.00  0.00    +0.118 A 
ATOM      9  C   LIG    1      -31.917  76.431  32.532  0.00  0.00    +0.063 A 
ENDROOT
BRANCH   1  11
ATOM     10  C   LIG    1      -33.250  75.835  29.891  0.00  0.00    +0.108 C 
ATOM     11  N   LIG    1      -31.882  75.407  30.240  0.00  0.00    -0.308 N 
ATOM     12  C   LIG    1      -31.502  74.261  29.430  0.00  0.00    +0.107 C 
ATOM     13  C   LIG    1      -32.801  73.505  29.248  0.00  0.00    +0.021 C 
ATOM     14  C   LIG    1      -33.880  74.577  29.245  0.00  0.00    +0.029 C 
BRANCH  10  18
ATOM     15  F   LIG    1      -31.875  78.230  25.806  0.00  0.00    -0.205 F 
ATOM     16  C   LIG    1      -32.580  78.220  26.945  0.00  0.00    +0.124 A 
ATOM     17  C   LIG    1      -32.547  77.087  27.756  0.00  0.00    +0.046 A 
ATOM     18  C   LIG    1      -33.272  77.040  28.958  0.00  0.00    +0.011 A 
ATOM     19  C   LIG    1      -34.013  78.183  29.303  0.00  0.00    +0.129 A 
ATOM     20  F   LIG    1      -34.711  78.203  30.447  0.00  0.00    -0.205 F 
ATOM     21  C   LIG    1      -34.049  79.318  28.487  0.00  0.00    +0.041 A 
ATOM     22  C   LIG    1      -33.325  79.337  27.297  0.00  0.00    +0.041 A 
ENDBRANCH  10  18
ENDBRANCH   1  11
BRANCH   4  23
ATOM     23  C   LIG    1      -26.690  76.313  31.715  0.00  0.00    +0.249 C 
ATOM     24  N   LIG    1      -25.970  77.430  31.347  0.00  0.00    -0.310 N 
ATOM     25  H   LIG    1      -26.305  78.330  31.687  0.00  0.00    +0.149 HD
ATOM     26  O   LIG    1      -26.396  75.185  31.347  0.00  0.00    -0.270 OA
BRANCH  24  27
ATOM     27  C   LIG    1      -24.735  77.342  30.591  0.00  0.00    +0.126 C 
BRANCH  27  28
ATOM     28  C   LIG    1      -23.568  76.825  31.429  0.00  0.00    +0.141 C 
BRANCH  28  29
ATOM     29  N   LIG    1      -22.296  76.956  30.745  0.00  0.00    -0.335 N 
ATOM     30  C   LIG    1      -21.202  77.632  31.205  0.00  0.00    +0.199 A 
ATOM     31  N   LIG    1      -20.199  77.552  30.360  0.00  0.00    -0.244 NA
ATOM     32  C   LIG    1      -20.674  76.820  29.302  0.00  0.00    +0.130 A 
ATOM     33  C   LIG    1      -21.984  76.455  29.512  0.00  0.00    +0.107 A 
ENDBRANCH  28  29
ENDBRANCH  27  28
ENDBRANCH  24  27
ENDBRANCH   4  23
TORSDOF 6
ENDMDL
MODEL 7
REMARK VINA RESULT:      -5.5      2.353      5.708
REMARK  Name = pdb/CHEMBL3671156.pdb
REMARK                            x       y       z     vdW  Elec       q    Type
REMARK                         _______ _______ _______ _____ _____    ______ ____
ROOT
ATOM      1  C   LIG    1      -20.669  77.210  31.199  0.00  0.00    +0.126 A 
ATOM      2  N   LIG    1      -21.649  77.525  32.022  0.00  0.00    -0.212 NA
ATOM      3  C   LIG    1      -22.935  77.518  31.538  0.00  0.00    +0.170 A 
ATOM      4  C   LIG    1      -24.146  77.865  32.115  0.00  0.00    +0.100 A 
ATOM      5  C   LIG    1      -25.098  77.623  31.102  0.00  0.00    +0.150 A 
ATOM      6  N   LIG    1      -24.556  77.191  29.963  0.00  0.00    -0.173 NA
ATOM      7  N   LIG    1      -23.229  77.156  30.222  0.00  0.00    -0.221 N 
ATOM      8  C   LIG    1      -22.214  76.824  29.345  0.00  0.00    +0.118 A 
ATOM      9  C   LIG    1      -20.944  76.826  29.758  0.00  0.00    +0.063 A 
ENDROOT
BRANCH   1  11
ATOM     10  C   LIG    1      -18.773  78.343  32.429  0.00  0.00    +0.108 C 
ATOM     11  N   LIG    1      -19.362  77.226  31.666  0.00  0.00    -0.308 N 
ATOM     12  C   LIG    1      -18.323  76.280  31.293  0.00  0.00    +0.107 C 
ATOM     13  C   LIG    1      -17.109  77.156  31.062  0.00  0.00    +0.021 C 
ATOM     14  C   LIG    1      -17.278  78.320  32.027  0.00  0.00    +0.029 C 
BRANCH  10  18
ATOM     15  F   LIG    1      -18.186  75.974  36.714  0.00  0.00    -0.205 F 
ATOM     16  C   LIG    1      -18.687  77.019  36.043  0.00  0.00    +0.124 A 
ATOM     17  C   LIG    1      -18.460  77.119  34.671  0.00  0.00    +0.046 A 
ATOM     18  C   LIG    1      -18.972  78.200  33.934  0.00  0.00    +0.011 A 
ATOM     19  C   LIG    1      -19.723  79.156  34.638  0.00  0.00    +0.129 A 
ATOM     20  F   LIG    1      -20.250  80.201  33.983  0.00  0.00    -0.205 F 
ATOM     21  C   LIG    1      -19.946  79.058  36.015  0.00  0.00    +0.041 A 
ATOM     22  C   LIG    1      -19.424  77.979  36.723  0.00  0.00    +0.041 A 
ENDBRANCH  10  18
ENDBRANCH   1  11
BRANCH   4  23
ATOM     23  C   LIG    1      -24.407  78.392  33.441  0.00  0.00    +0.249 C 
ATOM     24  N   LIG    1      -23.330  79.002  34.049  0.00  0.00    -0.310 N 
ATOM     25  H   LIG    1      -22.446  78.995  33.542  0.00  0.00    +0.149 HD
ATOM     26  O   LIG    1      -25.508  78.320  33.964  0.00  0.00    -0.270 OA
BRANCH  24  27
ATOM     27  C   LIG    1      -23.451  79.713  35.308  0.00  0.00    +0.126 C 
BRANCH  27  28
ATOM     28  C   LIG    1      -23.143  81.203  35.174  0.00  0.00    +0.141 C 
BRANCH  28  29
ATOM     29  N   LIG    1      -23.205  81.894  36.447  0.00  0.00    -0.335 N 
ATOM     30  C   LIG    1      -24.141  82.819  36.814  0.00  0.00    +0.199 A 
ATOM     31  N   LIG    1      -23.935  83.250  38.038  0.00  0.00    -0.244 NA
ATOM     32  C   LIG    1      -22.806  82.598  38.466  0.00  0.00    +0.130 A 
ATOM     33  C   LIG    1      -22.325  81.764  37.484  0.00  0.00    +0.107 A 
ENDBRANCH  28  29
ENDBRANCH  27  28
ENDBRANCH  24  27
ENDBRANCH   4  23
TORSDOF 6
ENDMDL
MODEL 8
REMARK VINA RESULT:      -5.5      3.028      6.080
REMARK  Name = pdb/CHEMBL3671156.pdb
REMARK                            x       y       z     vdW  Elec       q    Type
REMARK                         _______ _______ _______ _____ _____    ______ ____
ROOT
ATOM      1  C   LIG    1      -24.104  78.563  34.701  0.00  0.00    +0.126 A 
ATOM      2  N   LIG    1      -22.789  78.575  34.613  0.00  0.00    -0.212 NA
ATOM      3  C   LIG    1      -22.104  79.597  35.227  0.00  0.00    +0.170 A 
ATOM      4  C   LIG    1      -20.759  79.926  35.256  0.00  0.00    +0.100 A 
ATOM      5  C   LIG    1      -20.698  81.077  36.069  0.00  0.00    +0.150 A 
ATOM      6  N   LIG    1      -21.893  81.480  36.502  0.00  0.00    -0.173 NA
ATOM      7  N   LIG    1      -22.756  80.589  35.961  0.00  0.00    -0.221 N 
ATOM      8  C   LIG    1      -24.134  80.593  36.062  0.00  0.00    +0.118 A 
ATOM      9  C   LIG    1      -24.852  79.631  35.475  0.00  0.00    +0.063 A 
ENDROOT
BRANCH   1  11
ATOM     10  C   LIG    1      -25.278  77.607  32.676  0.00  0.00    +0.108 C 
ATOM     11  N   LIG    1      -24.814  77.548  34.075  0.00  0.00    -0.308 N 
ATOM     12  C   LIG    1      -25.401  76.396  34.741  0.00  0.00    +0.107 C 
ATOM     13  C   LIG    1      -26.770  76.275  34.106  0.00  0.00    +0.021 C 
ATOM     14  C   LIG    1      -26.586  76.779  32.682  0.00  0.00    +0.029 C 
BRANCH  10  18
ATOM     15  F   LIG    1      -21.827  74.365  31.297  0.00  0.00    -0.205 F 
ATOM     16  C   LIG    1      -22.541  75.464  31.022  0.00  0.00    +0.124 A 
ATOM     17  C   LIG    1      -23.485  75.912  31.944  0.00  0.00    +0.046 A 
ATOM     18  C   LIG    1      -24.251  77.062  31.690  0.00  0.00    +0.011 A 
ATOM     19  C   LIG    1      -24.011  77.736  30.480  0.00  0.00    +0.129 A 
ATOM     20  F   LIG    1      -24.700  78.849  30.191  0.00  0.00    -0.205 F 
ATOM     21  C   LIG    1      -23.067  77.284  29.553  0.00  0.00    +0.041 A 
ATOM     22  C   LIG    1      -22.324  76.138  29.827  0.00  0.00    +0.041 A 
ENDBRANCH  10  18
ENDBRANCH   1  11
BRANCH   4  23
ATOM     23  C   LIG    1      -19.647  79.278  34.587  0.00  0.00    +0.249 C 
ATOM     24  N   LIG    1      -19.852  78.995  33.253  0.00  0.00    -0.310 N 
ATOM     25  H   LIG    1      -20.767  79.223  32.867  0.00  0.00    +0.149 HD
ATOM     26  O   LIG    1      -18.599  79.027  35.163  0.00  0.00    -0.270 OA
BRANCH  24  27
ATOM     27  C   LIG    1      -18.796  78.487  32.397  0.00  0.00    +0.126 C 
BRANCH  27  28
ATOM     28  C   LIG    1      -19.330  77.632  31.250  0.00  0.00    +0.141 C 
BRANCH  28  29
ATOM     29  N   LIG    1      -18.470  76.503  30.957  0.00  0.00    -0.335 N 
ATOM     30  C   LIG    1      -18.645  75.223  31.400  0.00  0.00    +0.199 A 
ATOM     31  N   LIG    1      -17.704  74.425  30.948  0.00  0.00    -0.244 NA
ATOM     32  C   LIG    1      -16.875  75.228  30.207  0.00  0.00    +0.130 A 
ATOM     33  C   LIG    1      -17.323  76.529  30.215  0.00  0.00    +0.107 A 
ENDBRANCH  28  29
ENDBRANCH  27  28
ENDBRANCH  24  27
ENDBRANCH   4  23
TORSDOF 6
ENDMDL
MODEL 9
REMARK VINA RESULT:      -5.5      2.072      5.628
REMARK  Name = pdb/CHEMBL3671156.pdb
REMARK                            x       y       z     vdW  Elec       q    Type
REMARK                         _______ _______ _______ _____ _____    ______ ____
ROOT
ATOM      1  C   LIG    1      -20.348  78.883  33.715  0.00  0.00    +0.126 A 
ATOM      2  N   LIG    1      -21.174  78.360  32.831  0.00  0.00    -0.212 NA
ATOM      3  C   LIG    1      -20.639  77.735  31.730  0.00  0.00    +0.170 A 
ATOM      4  C   LIG    1      -21.225  77.165  30.611  0.00  0.00    +0.100 A 
ATOM      5  C   LIG    1      -20.136  76.682  29.854  0.00  0.00    +0.150 A 
ATOM      6  N   LIG    1      -18.952  76.942  30.410  0.00  0.00    -0.173 NA
ATOM      7  N   LIG    1      -19.261  77.613  31.543  0.00  0.00    -0.221 N 
ATOM      8  C   LIG    1      -18.381  78.157  32.459  0.00  0.00    +0.118 A 
ATOM      9  C   LIG    1      -18.845  78.786  33.543  0.00  0.00    +0.063 A 
ENDROOT
BRANCH   1  11
ATOM     10  C   LIG    1      -22.168  80.230  34.840  0.00  0.00    +0.108 C 
ATOM     11  N   LIG    1      -20.870  79.530  34.827  0.00  0.00    -0.308 N 
ATOM     12  C   LIG    1      -20.142  79.817  36.053  0.00  0.00    +0.107 C 
ATOM     13  C   LIG    1      -20.539  81.240  36.380  0.00  0.00    +0.021 C 
ATOM     14  C   LIG    1      -21.961  81.380  35.856  0.00  0.00    +0.029 C 
BRANCH  10  18
ATOM     15  F   LIG    1      -24.690  77.485  38.067  0.00  0.00    -0.205 F 
ATOM     16  C   LIG    1      -24.560  77.956  36.820  0.00  0.00    +0.124 A 
ATOM     17  C   LIG    1      -23.497  78.806  36.521  0.00  0.00    +0.046 A 
ATOM     18  C   LIG    1      -23.327  79.318  35.224  0.00  0.00    +0.011 A 
ATOM     19  C   LIG    1      -24.265  78.926  34.254  0.00  0.00    +0.129 A 
ATOM     20  F   LIG    1      -24.144  79.370  32.994  0.00  0.00    -0.205 F 
ATOM     21  C   LIG    1      -25.334  78.077  34.555  0.00  0.00    +0.041 A 
ATOM     22  C   LIG    1      -25.483  77.587  35.850  0.00  0.00    +0.041 A 
ENDBRANCH  10  18
ENDBRANCH   1  11
BRANCH   4  23
ATOM     23  C   LIG    1      -22.628  77.094  30.252  0.00  0.00    +0.249 C 
ATOM     24  N   LIG    1      -23.473  76.711  31.272  0.00  0.00    -0.310 N 
ATOM     25  H   LIG    1      -23.043  76.472  32.165  0.00  0.00    +0.149 HD
ATOM     26  O   LIG    1      -23.028  77.380  29.134  0.00  0.00    -0.270 OA
BRANCH  24  27
ATOM     27  C   LIG    1      -24.917  76.730  31.131  0.00  0.00    +0.126 C 
BRANCH  27  28
ATOM     28  C   LIG    1      -25.576  75.455  31.651  0.00  0.00    +0.141 C 
BRANCH  28  29
ATOM     29  N   LIG    1      -26.838  75.718  32.316  0.00  0.00    -0.335 N 
ATOM     30  C   LIG    1      -27.712  76.722  32.011  0.00  0.00    +0.199 A 
ATOM     31  N   LIG    1      -28.774  76.685  32.784  0.00  0.00    -0.244 NA
ATOM     32  C   LIG    1      -28.561  75.634  33.640  0.00  0.00    +0.130 A 
ATOM     33  C   LIG    1      -27.353  75.030  33.378  0.00  0.00    +0.107 A 
ENDBRANCH  28  29
ENDBRANCH  27  28
ENDBRANCH  24  27
ENDBRANCH   4  23
TORSDOF 6
ENDMDL
