MODEL 1
REMARK VINA RESULT:      -6.0      0.000      0.000
REMARK  Name = pdb/CHEMBL3970342.pdb
REMARK                            x       y       z     vdW  Elec       q    Type
REMARK                         _______ _______ _______ _____ _____    ______ ____
ROOT
ATOM      1  C   LIG    1      -26.388  83.249  36.902  0.00  0.00    +0.323 A 
ATOM      2  N   LIG    1      -26.376  84.341  36.112  0.00  0.00    -0.201 NA
ATOM      3  C   LIG    1      -27.578  84.802  35.705  0.00  0.00    +0.145 A 
ATOM      4  C   LIG    1      -28.780  84.178  35.975  0.00  0.00    +0.105 A 
ATOM      5  C   LIG    1      -28.648  83.026  36.729  0.00  0.00    +0.145 A 
ATOM      6  N   LIG    1      -27.481  82.533  37.203  0.00  0.00    -0.201 NA
ENDROOT
BRANCH   4   7
ATOM      7  N   LIG    1      -30.014  84.759  35.615  0.00  0.00    -0.196 NA
ATOM      8  C   LIG    1      -30.590  84.425  34.510  0.00  0.00    +0.285 C 
BRANCH   8   9
ATOM      9  N   LIG    1      -31.792  84.857  34.032  0.00  0.00    -0.268 N 
ATOM     10  H   LIG    1      -32.604  84.417  34.453  0.00  0.00    +0.157 HD
BRANCH   9  11
ATOM     11  C   LIG    1      -32.064  85.356  32.735  0.00  0.00    +0.054 A 
ATOM     12  C   LIG    1      -33.194  84.904  32.029  0.00  0.00    +0.062 A 
ATOM     13 CL   LIG    1      -34.204  83.663  32.692  0.00  0.00    -0.082 Cl
ATOM     14  C   LIG    1      -33.538  85.444  30.786  0.00  0.00    +0.022 A 
ATOM     15  C   LIG    1      -32.783  86.489  30.250  0.00  0.00    +0.014 A 
ATOM     16  C   LIG    1      -31.670  86.985  30.945  0.00  0.00    +0.057 A 
ATOM     17  C   LIG    1      -31.304  86.388  32.166  0.00  0.00    +0.037 A 
BRANCH  16  18
ATOM     18  C   LIG    1      -30.906  88.179  30.420  0.00  0.00    +0.417 C 
ATOM     19  F   LIG    1      -29.737  87.813  29.821  0.00  0.00    -0.166 F 
ATOM     20  F   LIG    1      -30.566  89.059  31.399  0.00  0.00    -0.166 F 
ATOM     21  F   LIG    1      -31.589  88.897  29.486  0.00  0.00    -0.166 F 
ENDBRANCH  16  18
ENDBRANCH   9  11
ENDBRANCH   8   9
BRANCH   8  22
ATOM     22  O   LIG    1      -30.022  83.556  33.655  0.00  0.00    -0.481 OA
ATOM     23  H   LIG    1      -29.327  83.980  33.131  0.00  0.00    +0.295 HD
ENDBRANCH   8  22
ENDBRANCH   4   7
BRANCH   1  24
ATOM     24  O   LIG    1      -25.216  82.831  37.519  0.00  0.00    -0.424 OA
BRANCH  24  28
ATOM     25  C   LIG    1      -22.574  80.462  35.281  0.00  0.00    -0.010 A 
ATOM     26  C   LIG    1      -23.867  80.028  35.598  0.00  0.00    +0.012 A 
ATOM     27  C   LIG    1      -24.728  80.845  36.346  0.00  0.00    +0.047 A 
ATOM     28  C   LIG    1      -24.304  82.101  36.788  0.00  0.00    +0.132 A 
ATOM     29  C   LIG    1      -22.992  82.505  36.520  0.00  0.00    +0.047 A 
ATOM     30  C   LIG    1      -22.149  81.712  35.742  0.00  0.00    +0.012 A 
BRANCH  25  33
ATOM     31  C   LIG    1      -20.607  77.780  33.160  0.00  0.00    +0.156 A 
ATOM     32  S   LIG    1      -22.272  78.359  33.483  0.00  0.00    -0.053 S 
ATOM     33  C   LIG    1      -21.654  79.645  34.500  0.00  0.00    +0.038 A 
ATOM     34  C   LIG    1      -20.310  79.641  34.536  0.00  0.00    +0.100 A 
ATOM     35  N   LIG    1      -19.744  78.659  33.765  0.00  0.00    -0.342 N 
ATOM     36  H   LIG    1      -18.756  78.441  33.811  0.00  0.00    +0.167 HD
BRANCH  31  37
ATOM     37  N   LIG    1      -20.257  76.729  32.517  0.00  0.00    -0.228 NA
BRANCH  37  38
ATOM     38  C   LIG    1      -19.622  76.879  31.206  0.00  0.00    +0.130 C 
BRANCH  38  40
ATOM     39  C   LIG    1      -21.340  76.603  29.380  0.00  0.00    +0.005 C 
ATOM     40  C   LIG    1      -20.606  77.588  30.276  0.00  0.00    +0.017 C 
ENDBRANCH  38  40
ENDBRANCH  37  38
ENDBRANCH  31  37
ENDBRANCH  25  33
ENDBRANCH  24  28
ENDBRANCH   1  24
TORSDOF 11
ENDMDL
MODEL 2
REMARK VINA RESULT:      -6.0      9.190     13.501
REMARK  Name = pdb/CHEMBL3970342.pdb
REMARK                            x       y       z     vdW  Elec       q    Type
REMARK                         _______ _______ _______ _____ _____    ______ ____
ROOT
ATOM      1  C   LIG    1      -28.074  74.557  32.164  0.00  0.00    +0.323 A 
ATOM      2  N   LIG    1      -26.984  74.482  31.375  0.00  0.00    -0.201 NA
ATOM      3  C   LIG    1      -25.851  75.031  31.863  0.00  0.00    +0.145 A 
ATOM      4  C   LIG    1      -25.775  75.724  33.054  0.00  0.00    +0.105 A 
ATOM      5  C   LIG    1      -26.980  75.795  33.731  0.00  0.00    +0.145 A 
ATOM      6  N   LIG    1      -28.139  75.232  33.320  0.00  0.00    -0.201 NA
ENDROOT
BRANCH   4   7
ATOM      7  N   LIG    1      -24.545  76.186  33.567  0.00  0.00    -0.196 NA
ATOM      8  C   LIG    1      -24.199  77.418  33.409  0.00  0.00    +0.285 C 
BRANCH   8   9
ATOM      9  N   LIG    1      -23.073  78.035  33.870  0.00  0.00    -0.268 N 
ATOM     10  H   LIG    1      -23.235  78.785  34.534  0.00  0.00    +0.157 HD
BRANCH   9  11
ATOM     11  C   LIG    1      -21.841  78.180  33.187  0.00  0.00    +0.054 A 
ATOM     12  C   LIG    1      -20.810  78.953  33.751  0.00  0.00    +0.062 A 
ATOM     13 CL   LIG    1      -21.068  79.814  35.231  0.00  0.00    -0.082 Cl
ATOM     14  C   LIG    1      -19.553  79.042  33.144  0.00  0.00    +0.022 A 
ATOM     15  C   LIG    1      -19.289  78.311  31.984  0.00  0.00    +0.014 A 
ATOM     16  C   LIG    1      -20.285  77.505  31.415  0.00  0.00    +0.057 A 
ATOM     17  C   LIG    1      -21.563  77.475  32.007  0.00  0.00    +0.037 A 
BRANCH  16  18
ATOM     18  C   LIG    1      -19.980  76.636  30.217  0.00  0.00    +0.417 C 
ATOM     19  F   LIG    1      -20.176  75.313  30.482  0.00  0.00    -0.166 F 
ATOM     20  F   LIG    1      -18.690  76.746  29.800  0.00  0.00    -0.166 F 
ATOM     21  F   LIG    1      -20.752  76.912  29.131  0.00  0.00    -0.166 F 
ENDBRANCH  16  18
ENDBRANCH   9  11
ENDBRANCH   8   9
BRANCH   8  22
ATOM     22  O   LIG    1      -24.968  78.283  32.724  0.00  0.00    -0.481 OA
ATOM     23  H   LIG    1      -24.454  79.042  32.412  0.00  0.00    +0.295 HD
ENDBRANCH   8  22
ENDBRANCH   4   7
BRANCH   1  24
ATOM     24  O   LIG    1      -29.221  73.850  31.824  0.00  0.00    -0.424 OA
BRANCH  24  28
ATOM     25  C   LIG    1      -32.161  75.520  29.339  0.00  0.00    -0.010 A 
ATOM     26  C   LIG    1      -32.057  74.137  29.535  0.00  0.00    +0.012 A 
ATOM     27  C   LIG    1      -31.065  73.610  30.374  0.00  0.00    +0.047 A 
ATOM     28  C   LIG    1      -30.164  74.458  31.022  0.00  0.00    +0.132 A 
ATOM     29  C   LIG    1      -30.232  75.833  30.778  0.00  0.00    +0.047 A 
ATOM     30  C   LIG    1      -31.244  76.362  29.976  0.00  0.00    +0.012 A 
BRANCH  25  33
ATOM     31  C   LIG    1      -35.243  76.478  27.070  0.00  0.00    +0.156 A 
ATOM     32  S   LIG    1      -34.795  75.421  28.447  0.00  0.00    -0.053 S 
ATOM     33  C   LIG    1      -33.183  76.105  28.480  0.00  0.00    +0.038 A 
ATOM     34  C   LIG    1      -33.039  77.072  27.557  0.00  0.00    +0.100 A 
ATOM     35  N   LIG    1      -34.176  77.307  26.828  0.00  0.00    -0.342 N 
ATOM     36  H   LIG    1      -34.175  77.896  26.005  0.00  0.00    +0.167 HD
BRANCH  31  37
ATOM     37  N   LIG    1      -36.332  76.463  26.397  0.00  0.00    -0.228 NA
BRANCH  37  38
ATOM     38  C   LIG    1      -37.238  75.323  26.541  0.00  0.00    +0.130 C 
BRANCH  38  40
ATOM     39  C   LIG    1      -38.178  73.664  24.890  0.00  0.00    +0.005 C 
ATOM     40  C   LIG    1      -37.985  75.135  25.220  0.00  0.00    +0.017 C 
ENDBRANCH  38  40
ENDBRANCH  37  38
ENDBRANCH  31  37
ENDBRANCH  25  33
ENDBRANCH  24  28
ENDBRANCH   1  24
TORSDOF 11
ENDMDL
MODEL 3
REMARK VINA RESULT:      -5.9      1.731      2.115
REMARK  Name = pdb/CHEMBL3970342.pdb
REMARK                            x       y       z     vdW  Elec       q    Type
REMARK                         _______ _______ _______ _____ _____    ______ ____
ROOT
ATOM      1  C   LIG    1      -26.486  83.198  36.927  0.00  0.00    +0.323 A 
ATOM      2  N   LIG    1      -26.260  84.318  36.212  0.00  0.00    -0.201 NA
ATOM      3  C   LIG    1      -27.352  85.002  35.807  0.00  0.00    +0.145 A 
ATOM      4  C   LIG    1      -28.651  84.578  36.005  0.00  0.00    +0.105 A 
ATOM      5  C   LIG    1      -28.743  83.376  36.684  0.00  0.00    +0.145 A 
ATOM      6  N   LIG    1      -27.694  82.663  37.152  0.00  0.00    -0.201 NA
ENDROOT
BRANCH   4   7
ATOM      7  N   LIG    1      -29.755  85.382  35.654  0.00  0.00    -0.196 NA
ATOM      8  C   LIG    1      -30.367  85.191  34.535  0.00  0.00    +0.285 C 
BRANCH   8   9
ATOM      9  N   LIG    1      -31.465  85.846  34.061  0.00  0.00    -0.268 N 
ATOM     10  H   LIG    1      -32.345  85.571  34.486  0.00  0.00    +0.157 HD
BRANCH   9  11
ATOM     11  C   LIG    1      -31.642  86.388  32.765  0.00  0.00    +0.054 A 
ATOM     12  C   LIG    1      -30.826  87.446  32.326  0.00  0.00    +0.062 A 
ATOM     13 CL   LIG    1      -29.669  88.162  33.397  0.00  0.00    -0.082 Cl
ATOM     14  C   LIG    1      -30.916  87.940  31.022  0.00  0.00    +0.022 A 
ATOM     15  C   LIG    1      -31.792  87.346  30.112  0.00  0.00    +0.014 A 
ATOM     16  C   LIG    1      -32.596  86.267  30.509  0.00  0.00    +0.057 A 
ATOM     17  C   LIG    1      -32.535  85.822  31.843  0.00  0.00    +0.037 A 
BRANCH  16  18
ATOM     18  C   LIG    1      -33.476  85.555  29.507  0.00  0.00    +0.417 C 
ATOM     19  F   LIG    1      -33.367  84.199  29.604  0.00  0.00    -0.166 F 
ATOM     20  F   LIG    1      -33.166  85.864  28.219  0.00  0.00    -0.166 F 
ATOM     21  F   LIG    1      -34.802  85.829  29.653  0.00  0.00    -0.166 F 
ENDBRANCH  16  18
ENDBRANCH   9  11
ENDBRANCH   8   9
BRANCH   8  22
ATOM     22  O   LIG    1      -29.953  84.260  33.657  0.00  0.00    -0.481 OA
ATOM     23  H   LIG    1      -30.576  83.519  33.607  0.00  0.00    +0.295 HD
ENDBRANCH   8  22
ENDBRANCH   4   7
BRANCH   1  24
ATOM     24  O   LIG    1      -25.424  82.548  37.544  0.00  0.00    -0.424 OA
BRANCH  24  28
ATOM     25  C   LIG    1      -22.811  80.280  35.170  0.00  0.00    -0.010 A 
ATOM     26  C   LIG    1      -24.039  79.770  35.614  0.00  0.00    +0.012 A 
ATOM     27  C   LIG    1      -24.891  80.554  36.404  0.00  0.00    +0.047 A 
ATOM     28  C   LIG    1      -24.525  81.855  36.763  0.00  0.00    +0.132 A 
ATOM     29  C   LIG    1      -23.274  82.339  36.368  0.00  0.00    +0.047 A 
ATOM     30  C   LIG    1      -22.443  81.575  35.548  0.00  0.00    +0.012 A 
BRANCH  25  33
ATOM     31  C   LIG    1      -20.854  77.670  32.953  0.00  0.00    +0.156 A 
ATOM     32  S   LIG    1      -22.521  78.180  33.368  0.00  0.00    -0.053 S 
ATOM     33  C   LIG    1      -21.903  79.497  34.342  0.00  0.00    +0.038 A 
ATOM     34  C   LIG    1      -20.560  79.552  34.302  0.00  0.00    +0.100 A 
ATOM     35  N   LIG    1      -19.997  78.589  33.505  0.00  0.00    -0.342 N 
ATOM     36  H   LIG    1      -19.000  78.414  33.496  0.00  0.00    +0.167 HD
BRANCH  31  37
ATOM     37  N   LIG    1      -20.496  76.631  32.296  0.00  0.00    -0.228 NA
BRANCH  37  38
ATOM     38  C   LIG    1      -19.805  76.804  31.017  0.00  0.00    +0.130 C 
BRANCH  38  40
ATOM     39  C   LIG    1      -21.583  76.461  29.261  0.00  0.00    +0.005 C 
ATOM     40  C   LIG    1      -20.768  77.480  30.041  0.00  0.00    +0.017 C 
ENDBRANCH  38  40
ENDBRANCH  37  38
ENDBRANCH  31  37
ENDBRANCH  25  33
ENDBRANCH  24  28
ENDBRANCH   1  24
TORSDOF 11
ENDMDL
MODEL 4
REMARK VINA RESULT:      -5.9      8.856     13.457
REMARK  Name = pdb/CHEMBL3970342.pdb
REMARK                            x       y       z     vdW  Elec       q    Type
REMARK                         _______ _______ _______ _____ _____    ______ ____
ROOT
ATOM      1  C   LIG    1      -27.674  73.335  32.219  0.00  0.00    +0.323 A 
ATOM      2  N   LIG    1      -27.479  74.416  33.001  0.00  0.00    -0.201 NA
ATOM      3  C   LIG    1      -26.315  75.080  32.829  0.00  0.00    +0.145 A 
ATOM      4  C   LIG    1      -25.307  74.670  31.980  0.00  0.00    +0.105 A 
ATOM      5  C   LIG    1      -25.601  73.506  31.292  0.00  0.00    +0.145 A 
ATOM      6  N   LIG    1      -26.760  72.816  31.388  0.00  0.00    -0.201 NA
ENDROOT
BRANCH   4   7
ATOM      7  N   LIG    1      -24.157  75.456  31.759  0.00  0.00    -0.196 NA
ATOM      8  C   LIG    1      -24.189  76.428  30.912  0.00  0.00    +0.285 C 
BRANCH   8   9
ATOM      9  N   LIG    1      -23.189  77.304  30.608  0.00  0.00    -0.268 N 
ATOM     10  H   LIG    1      -23.005  77.418  29.616  0.00  0.00    +0.157 HD
BRANCH   9  11
ATOM     11  C   LIG    1      -22.059  77.617  31.402  0.00  0.00    +0.054 A 
ATOM     12  C   LIG    1      -20.765  77.495  30.866  0.00  0.00    +0.062 A 
ATOM     13 CL   LIG    1      -20.533  76.867  29.269  0.00  0.00    -0.082 Cl
ATOM     14  C   LIG    1      -19.637  77.883  31.595  0.00  0.00    +0.022 A 
ATOM     15  C   LIG    1      -19.789  78.452  32.860  0.00  0.00    +0.014 A 
ATOM     16  C   LIG    1      -21.069  78.619  33.410  0.00  0.00    +0.057 A 
ATOM     17  C   LIG    1      -22.189  78.167  32.686  0.00  0.00    +0.037 A 
BRANCH  16  18
ATOM     18  C   LIG    1      -21.251  79.322  34.736  0.00  0.00    +0.417 C 
ATOM     19  F   LIG    1      -22.513  79.815  34.884  0.00  0.00    -0.166 F 
ATOM     20  F   LIG    1      -20.415  80.384  34.889  0.00  0.00    -0.166 F 
ATOM     21  F   LIG    1      -21.041  78.518  35.814  0.00  0.00    -0.166 F 
ENDBRANCH  16  18
ENDBRANCH   9  11
ENDBRANCH   8   9
BRANCH   8  22
ATOM     22  O   LIG    1      -25.291  76.694  30.188  0.00  0.00    -0.481 OA
ATOM     23  H   LIG    1      -25.454  76.006  29.526  0.00  0.00    +0.295 HD
ENDBRANCH   8  22
ENDBRANCH   4   7
BRANCH   1  24
ATOM     24  O   LIG    1      -28.918  72.717  32.196  0.00  0.00    -0.424 OA
BRANCH  24  28
ATOM     25  C   LIG    1      -31.917  74.116  29.617  0.00  0.00    -0.010 A 
ATOM     26  C   LIG    1      -31.396  72.820  29.511  0.00  0.00    +0.012 A 
ATOM     27  C   LIG    1      -30.395  72.381  30.390  0.00  0.00    +0.047 A 
ATOM     28  C   LIG    1      -29.902  73.233  31.382  0.00  0.00    +0.132 A 
ATOM     29  C   LIG    1      -30.382  74.545  31.447  0.00  0.00    +0.047 A 
ATOM     30  C   LIG    1      -31.406  74.970  30.600  0.00  0.00    +0.012 A 
BRANCH  25  33
ATOM     31  C   LIG    1      -34.628  76.062  27.514  0.00  0.00    +0.156 A 
ATOM     32  S   LIG    1      -33.064  76.314  28.353  0.00  0.00    -0.053 S 
ATOM     33  C   LIG    1      -32.961  74.606  28.727  0.00  0.00    +0.038 A 
ATOM     34  C   LIG    1      -34.002  73.926  28.214  0.00  0.00    +0.100 A 
ATOM     35  N   LIG    1      -34.877  74.713  27.511  0.00  0.00    -0.342 N 
ATOM     36  H   LIG    1      -35.776  74.370  27.198  0.00  0.00    +0.167 HD
BRANCH  31  37
ATOM     37  N   LIG    1      -35.405  76.956  27.028  0.00  0.00    -0.228 NA
BRANCH  37  38
ATOM     38  C   LIG    1      -36.276  77.707  27.935  0.00  0.00    +0.130 C 
BRANCH  38  40
ATOM     39  C   LIG    1      -38.421  79.032  28.000  0.00  0.00    +0.005 C 
ATOM     40  C   LIG    1      -37.479  78.209  27.136  0.00  0.00    +0.017 C 
ENDBRANCH  38  40
ENDBRANCH  37  38
ENDBRANCH  31  37
ENDBRANCH  25  33
ENDBRANCH  24  28
ENDBRANCH   1  24
TORSDOF 11
ENDMDL
MODEL 5
REMARK VINA RESULT:      -5.9     17.577     20.336
REMARK  Name = pdb/CHEMBL3970342.pdb
REMARK                            x       y       z     vdW  Elec       q    Type
REMARK                         _______ _______ _______ _____ _____    ______ ____
ROOT
ATOM      1  C   LIG    1      -36.336  67.169  20.586  0.00  0.00    +0.323 A 
ATOM      2  N   LIG    1      -36.308  66.941  21.914  0.00  0.00    -0.201 NA
ATOM      3  C   LIG    1      -37.103  67.724  22.675  0.00  0.00    +0.145 A 
ATOM      4  C   LIG    1      -37.855  68.774  22.186  0.00  0.00    +0.105 A 
ATOM      5  C   LIG    1      -37.737  68.949  20.819  0.00  0.00    +0.145 A 
ATOM      6  N   LIG    1      -36.992  68.177  19.995  0.00  0.00    -0.201 NA
ENDROOT
BRANCH   4   7
ATOM      7  N   LIG    1      -38.749  69.492  23.007  0.00  0.00    -0.196 NA
ATOM      8  C   LIG    1      -38.316  70.447  23.757  0.00  0.00    +0.285 C 
BRANCH   8   9
ATOM      9  N   LIG    1      -39.042  71.261  24.576  0.00  0.00    -0.268 N 
ATOM     10  H   LIG    1      -39.672  70.780  25.210  0.00  0.00    +0.157 HD
BRANCH   9  11
ATOM     11  C   LIG    1      -39.461  72.586  24.307  0.00  0.00    +0.054 A 
ATOM     12  C   LIG    1      -40.745  72.828  23.786  0.00  0.00    +0.062 A 
ATOM     13 CL   LIG    1      -41.786  71.507  23.374  0.00  0.00    -0.082 Cl
ATOM     14  C   LIG    1      -41.219  74.129  23.595  0.00  0.00    +0.022 A 
ATOM     15  C   LIG    1      -40.432  75.218  23.975  0.00  0.00    +0.014 A 
ATOM     16  C   LIG    1      -39.160  75.011  24.528  0.00  0.00    +0.057 A 
ATOM     17  C   LIG    1      -38.676  73.695  24.657  0.00  0.00    +0.037 A 
BRANCH  16  18
ATOM     18  C   LIG    1      -38.341  76.177  25.032  0.00  0.00    +0.417 C 
ATOM     19  F   LIG    1      -37.058  75.815  25.317  0.00  0.00    -0.166 F 
ATOM     20  F   LIG    1      -38.841  76.718  26.175  0.00  0.00    -0.166 F 
ATOM     21  F   LIG    1      -38.245  77.201  24.140  0.00  0.00    -0.166 F 
ENDBRANCH  16  18
ENDBRANCH   9  11
ENDBRANCH   8   9
BRANCH   8  22
ATOM     22  O   LIG    1      -37.009  70.760  23.814  0.00  0.00    -0.481 OA
ATOM     23  H   LIG    1      -36.745  71.014  24.710  0.00  0.00    +0.295 HD
ENDBRANCH   8  22
ENDBRANCH   4   7
BRANCH   1  24
ATOM     24  O   LIG    1      -35.701  66.285  19.722  0.00  0.00    -0.424 OA
BRANCH  24  28
ATOM     25  C   LIG    1      -31.788  67.100  18.445  0.00  0.00    -0.010 A 
ATOM     26  C   LIG    1      -32.899  67.348  17.629  0.00  0.00    +0.012 A 
ATOM     27  C   LIG    1      -34.195  67.067  18.085  0.00  0.00    +0.047 A 
ATOM     28  C   LIG    1      -34.394  66.532  19.361  0.00  0.00    +0.132 A 
ATOM     29  C   LIG    1      -33.280  66.231  20.150  0.00  0.00    +0.047 A 
ATOM     30  C   LIG    1      -31.994  66.548  19.714  0.00  0.00    +0.012 A 
BRANCH  25  33
ATOM     31  C   LIG    1      -28.301  68.547  17.302  0.00  0.00    +0.156 A 
ATOM     32  S   LIG    1      -29.723  68.959  18.313  0.00  0.00    -0.053 S 
ATOM     33  C   LIG    1      -30.428  67.386  18.008  0.00  0.00    +0.038 A 
ATOM     34  C   LIG    1      -29.622  66.623  17.249  0.00  0.00    +0.100 A 
ATOM     35  N   LIG    1      -28.445  67.239  16.910  0.00  0.00    -0.342 N 
ATOM     36  H   LIG    1      -27.811  66.848  16.225  0.00  0.00    +0.167 HD
BRANCH  31  37
ATOM     37  N   LIG    1      -27.335  69.315  16.963  0.00  0.00    -0.228 NA
BRANCH  37  38
ATOM     38  C   LIG    1      -26.097  69.284  17.743  0.00  0.00    +0.130 C 
BRANCH  38  40
ATOM     39  C   LIG    1      -26.001  71.510  16.561  0.00  0.00    +0.005 C 
ATOM     40  C   LIG    1      -25.488  70.686  17.731  0.00  0.00    +0.017 C 
ENDBRANCH  38  40
ENDBRANCH  37  38
ENDBRANCH  31  37
ENDBRANCH  25  33
ENDBRANCH  24  28
ENDBRANCH   1  24
TORSDOF 11
ENDMDL
MODEL 6
REMARK VINA RESULT:      -5.8     18.590     20.662
REMARK  Name = pdb/CHEMBL3970342.pdb
REMARK                            x       y       z     vdW  Elec       q    Type
REMARK                         _______ _______ _______ _____ _____    ______ ____
ROOT
ATOM      1  C   LIG    1      -33.720  66.420  20.001  0.00  0.00    +0.323 A 
ATOM      2  N   LIG    1      -33.521  66.708  21.303  0.00  0.00    -0.201 NA
ATOM      3  C   LIG    1      -34.626  66.958  22.038  0.00  0.00    +0.145 A 
ATOM      4  C   LIG    1      -35.904  67.020  21.520  0.00  0.00    +0.105 A 
ATOM      5  C   LIG    1      -35.963  66.781  20.159  0.00  0.00    +0.145 A 
ATOM      6  N   LIG    1      -34.902  66.485  19.374  0.00  0.00    -0.201 NA
ENDROOT
BRANCH   4   7
ATOM      7  N   LIG    1      -37.034  67.180  22.350  0.00  0.00    -0.196 NA
ATOM      8  C   LIG    1      -37.478  68.360  22.620  0.00  0.00    +0.285 C 
BRANCH   8   9
ATOM      9  N   LIG    1      -38.570  68.691  23.367  0.00  0.00    -0.268 N 
ATOM     10  H   LIG    1      -39.064  67.904  23.777  0.00  0.00    +0.157 HD
BRANCH   9  11
ATOM     11  C   LIG    1      -39.407  69.821  23.199  0.00  0.00    +0.054 A 
ATOM     12  C   LIG    1      -40.561  69.731  22.400  0.00  0.00    +0.062 A 
ATOM     13 CL   LIG    1      -40.917  68.274  21.535  0.00  0.00    -0.082 Cl
ATOM     14  C   LIG    1      -41.453  70.802  22.290  0.00  0.00    +0.022 A 
ATOM     15  C   LIG    1      -41.232  71.969  23.022  0.00  0.00    +0.014 A 
ATOM     16  C   LIG    1      -40.108  72.078  23.854  0.00  0.00    +0.057 A 
ATOM     17  C   LIG    1      -39.189  71.012  23.907  0.00  0.00    +0.037 A 
BRANCH  16  18
ATOM     18  C   LIG    1      -39.912  73.298  24.725  0.00  0.00    +0.417 C 
ATOM     19  F   LIG    1      -39.109  73.037  25.796  0.00  0.00    -0.166 F 
ATOM     20  F   LIG    1      -41.078  73.773  25.239  0.00  0.00    -0.166 F 
ATOM     21  F   LIG    1      -39.331  74.344  24.076  0.00  0.00    -0.166 F 
ENDBRANCH  16  18
ENDBRANCH   9  11
ENDBRANCH   8   9
BRANCH   8  22
ATOM     22  O   LIG    1      -36.863  69.465  22.161  0.00  0.00    -0.481 OA
ATOM     23  H   LIG    1      -37.134  69.669  21.254  0.00  0.00    +0.295 HD
ENDBRANCH   8  22
ENDBRANCH   4   7
BRANCH   1  24
ATOM     24  O   LIG    1      -32.661  65.962  19.227  0.00  0.00    -0.424 OA
BRANCH  24  28
ATOM     25  C   LIG    1      -29.232  68.323  18.701  0.00  0.00    -0.010 A 
ATOM     26  C   LIG    1      -29.155  66.994  19.139  0.00  0.00    +0.012 A 
ATOM     27  C   LIG    1      -30.319  66.231  19.303  0.00  0.00    +0.047 A 
ATOM     28  C   LIG    1      -31.573  66.787  19.034  0.00  0.00    +0.132 A 
ATOM     29  C   LIG    1      -31.650  68.130  18.654  0.00  0.00    +0.047 A 
ATOM     30  C   LIG    1      -30.490  68.879  18.452  0.00  0.00    +0.012 A 
BRANCH  25  33
ATOM     31  C   LIG    1      -25.842  70.075  17.701  0.00  0.00    +0.156 A 
ATOM     32  S   LIG    1      -27.142  69.051  17.014  0.00  0.00    -0.053 S 
ATOM     33  C   LIG    1      -28.044  69.145  18.512  0.00  0.00    +0.038 A 
ATOM     34  C   LIG    1      -27.419  69.922  19.415  0.00  0.00    +0.100 A 
ATOM     35  N   LIG    1      -26.249  70.467  18.952  0.00  0.00    -0.342 N 
ATOM     36  H   LIG    1      -25.602  70.948  19.563  0.00  0.00    +0.167 HD
BRANCH  31  37
ATOM     37  N   LIG    1      -24.718  70.374  17.165  0.00  0.00    -0.228 NA
BRANCH  37  38
ATOM     38  C   LIG    1      -24.321  71.781  17.092  0.00  0.00    +0.130 C 
BRANCH  38  40
ATOM     39  C   LIG    1      -22.348  73.223  17.717  0.00  0.00    +0.005 C 
ATOM     40  C   LIG    1      -23.185  72.010  18.090  0.00  0.00    +0.017 C 
ENDBRANCH  38  40
ENDBRANCH  37  38
ENDBRANCH  31  37
ENDBRANCH  25  33
ENDBRANCH  24  28
ENDBRANCH   1  24
TORSDOF 11
ENDMDL
MODEL 7
REMARK VINA RESULT:      -5.8      5.550     11.625
REMARK  Name = pdb/CHEMBL3970342.pdb
REMARK                            x       y       z     vdW  Elec       q    Type
REMARK                         _______ _______ _______ _____ _____    ______ ____
ROOT
ATOM      1  C   LIG    1      -26.203  83.117  36.989  0.00  0.00    +0.323 A 
ATOM      2  N   LIG    1      -26.624  81.837  36.994  0.00  0.00    -0.201 NA
ATOM      3  C   LIG    1      -25.681  80.892  36.792  0.00  0.00    +0.145 A 
ATOM      4  C   LIG    1      -24.359  81.166  36.502  0.00  0.00    +0.105 A 
ATOM      5  C   LIG    1      -24.072  82.519  36.451  0.00  0.00    +0.145 A 
ATOM      6  N   LIG    1      -24.959  83.513  36.683  0.00  0.00    -0.201 NA
ENDROOT
BRANCH   4   7
ATOM      7  N   LIG    1      -23.393  80.143  36.405  0.00  0.00    -0.196 NA
ATOM      8  C   LIG    1      -23.208  79.531  35.285  0.00  0.00    +0.285 C 
BRANCH   8   9
ATOM      9  N   LIG    1      -22.298  78.553  35.009  0.00  0.00    -0.268 N 
ATOM     10  H   LIG    1      -21.978  78.024  35.814  0.00  0.00    +0.157 HD
BRANCH   9  11
ATOM     11  C   LIG    1      -21.357  78.537  33.950  0.00  0.00    +0.054 A 
ATOM     12  C   LIG    1      -20.047  79.000  34.165  0.00  0.00    +0.062 A 
ATOM     13 CL   LIG    1      -19.597  79.683  35.691  0.00  0.00    -0.082 Cl
ATOM     14  C   LIG    1      -19.072  78.913  33.166  0.00  0.00    +0.022 A 
ATOM     15  C   LIG    1      -19.381  78.311  31.945  0.00  0.00    +0.014 A 
ATOM     16  C   LIG    1      -20.670  77.810  31.711  0.00  0.00    +0.057 A 
ATOM     17  C   LIG    1      -21.654  77.960  32.707  0.00  0.00    +0.037 A 
BRANCH  16  18
ATOM     18  C   LIG    1      -20.987  77.070  30.431  0.00  0.00    +0.417 C 
ATOM     19  F   LIG    1      -21.141  75.732  30.640  0.00  0.00    -0.166 F 
ATOM     20  F   LIG    1      -20.008  77.192  29.495  0.00  0.00    -0.166 F 
ATOM     21  F   LIG    1      -22.136  77.484  29.831  0.00  0.00    -0.166 F 
ENDBRANCH  16  18
ENDBRANCH   9  11
ENDBRANCH   8   9
BRANCH   8  22
ATOM     22  O   LIG    1      -23.947  79.813  34.197  0.00  0.00    -0.481 OA
ATOM     23  H   LIG    1      -24.452  79.041  33.904  0.00  0.00    +0.295 HD
ENDBRANCH   8  22
ENDBRANCH   4   7
BRANCH   1  24
ATOM     24  O   LIG    1      -27.069  84.130  37.381  0.00  0.00    -0.424 OA
BRANCH  24  28
ATOM     25  C   LIG    1      -29.003  86.413  34.439  0.00  0.00    -0.010 A 
ATOM     26  C   LIG    1      -27.804  86.832  35.031  0.00  0.00    +0.012 A 
ATOM     27  C   LIG    1      -27.181  86.045  36.010  0.00  0.00    +0.047 A 
ATOM     28  C   LIG    1      -27.750  84.833  36.411  0.00  0.00    +0.132 A 
ATOM     29  C   LIG    1      -28.977  84.447  35.862  0.00  0.00    +0.047 A 
ATOM     30  C   LIG    1      -29.577  85.209  34.859  0.00  0.00    +0.012 A 
BRANCH  25  33
ATOM     31  C   LIG    1      -31.255  87.991  31.611  0.00  0.00    +0.156 A 
ATOM     32  S   LIG    1      -31.336  86.842  32.984  0.00  0.00    -0.053 S 
ATOM     33  C   LIG    1      -29.676  87.201  33.415  0.00  0.00    +0.038 A 
ATOM     34  C   LIG    1      -29.150  88.138  32.607  0.00  0.00    +0.100 A 
ATOM     35  N   LIG    1      -30.027  88.602  31.662  0.00  0.00    -0.342 N 
ATOM     36  H   LIG    1      -29.730  89.195  30.897  0.00  0.00    +0.167 HD
BRANCH  31  37
ATOM     37  N   LIG    1      -32.145  88.199  30.714  0.00  0.00    -0.228 NA
BRANCH  37  38
ATOM     38  C   LIG    1      -33.340  87.354  30.692  0.00  0.00    +0.130 C 
BRANCH  38  40
ATOM     39  C   LIG    1      -32.776  85.031  29.888  0.00  0.00    +0.005 C 
ATOM     40  C   LIG    1      -33.243  86.420  29.485  0.00  0.00    +0.017 C 
ENDBRANCH  38  40
ENDBRANCH  37  38
ENDBRANCH  31  37
ENDBRANCH  25  33
ENDBRANCH  24  28
ENDBRANCH   1  24
TORSDOF 11
ENDMDL
MODEL 8
REMARK VINA RESULT:      -5.7     18.655     20.866
REMARK  Name = pdb/CHEMBL3970342.pdb
REMARK                            x       y       z     vdW  Elec       q    Type
REMARK                         _______ _______ _______ _____ _____    ______ ____
ROOT
ATOM      1  C   LIG    1      -36.186  67.213  21.306  0.00  0.00    +0.323 A 
ATOM      2  N   LIG    1      -35.924  67.212  22.628  0.00  0.00    -0.201 NA
ATOM      3  C   LIG    1      -36.638  68.074  23.383  0.00  0.00    +0.145 A 
ATOM      4  C   LIG    1      -37.534  68.993  22.873  0.00  0.00    +0.105 A 
ATOM      5  C   LIG    1      -37.655  68.943  21.496  0.00  0.00    +0.145 A 
ATOM      6  N   LIG    1      -37.001  68.078  20.687  0.00  0.00    -0.201 NA
ENDROOT
BRANCH   4   7
ATOM      7  N   LIG    1      -38.331  69.798  23.714  0.00  0.00    -0.196 NA
ATOM      8  C   LIG    1      -37.878  70.922  24.155  0.00  0.00    +0.285 C 
BRANCH   8   9
ATOM      9  N   LIG    1      -38.524  71.832  24.939  0.00  0.00    -0.268 N 
ATOM     10  H   LIG    1      -38.651  71.552  25.906  0.00  0.00    +0.157 HD
BRANCH   9  11
ATOM     11  C   LIG    1      -39.488  72.782  24.525  0.00  0.00    +0.054 A 
ATOM     12  C   LIG    1      -39.217  74.158  24.637  0.00  0.00    +0.062 A 
ATOM     13 CL   LIG    1      -37.748  74.703  25.373  0.00  0.00    -0.082 Cl
ATOM     14  C   LIG    1      -40.111  75.117  24.153  0.00  0.00    +0.022 A 
ATOM     15  C   LIG    1      -41.275  74.713  23.498  0.00  0.00    +0.014 A 
ATOM     16  C   LIG    1      -41.560  73.349  23.340  0.00  0.00    +0.057 A 
ATOM     17  C   LIG    1      -40.677  72.398  23.886  0.00  0.00    +0.037 A 
BRANCH  16  18
ATOM     18  C   LIG    1      -42.767  72.902  22.547  0.00  0.00    +0.417 C 
ATOM     19  F   LIG    1      -43.700  73.889  22.438  0.00  0.00    -0.166 F 
ATOM     20  F   LIG    1      -43.407  71.843  23.113  0.00  0.00    -0.166 F 
ATOM     21  F   LIG    1      -42.475  72.528  21.271  0.00  0.00    -0.166 F 
ENDBRANCH  16  18
ENDBRANCH   9  11
ENDBRANCH   8   9
BRANCH   8  22
ATOM     22  O   LIG    1      -36.633  71.341  23.867  0.00  0.00    -0.481 OA
ATOM     23  H   LIG    1      -36.375  71.090  22.968  0.00  0.00    +0.295 HD
ENDBRANCH   8  22
ENDBRANCH   4   7
BRANCH   1  24
ATOM     24  O   LIG    1      -35.640  66.226  20.495  0.00  0.00    -0.424 OA
BRANCH  24  28
ATOM     25  C   LIG    1      -32.083  67.060  18.430  0.00  0.00    -0.010 A 
ATOM     26  C   LIG    1      -32.079  66.562  19.739  0.00  0.00    +0.012 A 
ATOM     27  C   LIG    1      -33.285  66.291  20.402  0.00  0.00    +0.047 A 
ATOM     28  C   LIG    1      -34.507  66.518  19.765  0.00  0.00    +0.132 A 
ATOM     29  C   LIG    1      -34.509  67.070  18.480  0.00  0.00    +0.047 A 
ATOM     30  C   LIG    1      -33.310  67.302  17.805  0.00  0.00    +0.012 A 
BRANCH  25  33
ATOM     31  C   LIG    1      -28.710  68.403  16.888  0.00  0.00    +0.156 A 
ATOM     32  S   LIG    1      -29.643  68.396  18.419  0.00  0.00    -0.053 S 
ATOM     33  C   LIG    1      -30.851  67.346  17.707  0.00  0.00    +0.038 A 
ATOM     34  C   LIG    1      -30.530  67.011  16.445  0.00  0.00    +0.100 A 
ATOM     35  N   LIG    1      -29.340  67.544  16.022  0.00  0.00    -0.342 N 
ATOM     36  H   LIG    1      -29.046  67.501  15.055  0.00  0.00    +0.167 HD
BRANCH  31  37
ATOM     37  N   LIG    1      -27.667  69.093  16.612  0.00  0.00    -0.228 NA
BRANCH  37  38
ATOM     38  C   LIG    1      -27.448  70.357  17.316  0.00  0.00    +0.130 C 
BRANCH  38  40
ATOM     39  C   LIG    1      -27.186  72.549  16.095  0.00  0.00    +0.005 C 
ATOM     40  C   LIG    1      -28.157  71.467  16.539  0.00  0.00    +0.017 C 
ENDBRANCH  38  40
ENDBRANCH  37  38
ENDBRANCH  31  37
ENDBRANCH  25  33
ENDBRANCH  24  28
ENDBRANCH   1  24
TORSDOF 11
ENDMDL
MODEL 9
REMARK VINA RESULT:      -5.7      2.416      2.842
REMARK  Name = pdb/CHEMBL3970342.pdb
REMARK                            x       y       z     vdW  Elec       q    Type
REMARK                         _______ _______ _______ _____ _____    ______ ____
ROOT
ATOM      1  C   LIG    1      -26.826  83.592  36.933  0.00  0.00    +0.323 A 
ATOM      2  N   LIG    1      -28.063  83.066  37.019  0.00  0.00    -0.201 NA
ATOM      3  C   LIG    1      -28.998  83.591  36.198  0.00  0.00    +0.145 A 
ATOM      4  C   LIG    1      -28.779  84.667  35.361  0.00  0.00    +0.105 A 
ATOM      5  C   LIG    1      -27.489  85.163  35.422  0.00  0.00    +0.145 A 
ATOM      6  N   LIG    1      -26.497  84.659  36.191  0.00  0.00    -0.201 NA
ENDROOT
BRANCH   4   7
ATOM      7  N   LIG    1      -29.760  85.107  34.447  0.00  0.00    -0.196 NA
ATOM      8  C   LIG    1      -30.492  86.131  34.726  0.00  0.00    +0.285 C 
BRANCH   8   9
ATOM      9  N   LIG    1      -31.452  86.708  33.947  0.00  0.00    -0.268 N 
ATOM     10  H   LIG    1      -32.198  87.171  34.457  0.00  0.00    +0.157 HD
BRANCH   9  11
ATOM     11  C   LIG    1      -31.859  86.300  32.654  0.00  0.00    +0.054 A 
ATOM     12  C   LIG    1      -31.121  86.698  31.525  0.00  0.00    +0.062 A 
ATOM     13 CL   LIG    1      -29.770  87.768  31.692  0.00  0.00    -0.082 Cl
ATOM     14  C   LIG    1      -31.445  86.237  30.245  0.00  0.00    +0.022 A 
ATOM     15  C   LIG    1      -32.488  85.324  30.079  0.00  0.00    +0.014 A 
ATOM     16  C   LIG    1      -33.223  84.882  31.189  0.00  0.00    +0.057 A 
ATOM     17  C   LIG    1      -32.920  85.403  32.462  0.00  0.00    +0.037 A 
BRANCH  16  18
ATOM     18  C   LIG    1      -34.289  83.821  31.034  0.00  0.00    +0.417 C 
ATOM     19  F   LIG    1      -34.539  83.173  32.206  0.00  0.00    -0.166 F 
ATOM     20  F   LIG    1      -33.946  82.857  30.138  0.00  0.00    -0.166 F 
ATOM     21  F   LIG    1      -35.490  84.311  30.620  0.00  0.00    -0.166 F 
ENDBRANCH  16  18
ENDBRANCH   9  11
ENDBRANCH   8   9
BRANCH   8  22
ATOM     22  O   LIG    1      -30.379  86.779  35.899  0.00  0.00    -0.481 OA
ATOM     23  H   LIG    1      -29.451  86.949  36.121  0.00  0.00    +0.295 HD
ENDBRANCH   8  22
ENDBRANCH   4   7
BRANCH   1  24
ATOM     24  O   LIG    1      -25.769  82.982  37.597  0.00  0.00    -0.424 OA
BRANCH  24  28
ATOM     25  C   LIG    1      -23.178  80.526  35.394  0.00  0.00    -0.010 A 
ATOM     26  C   LIG    1      -24.431  80.076  35.828  0.00  0.00    +0.012 A 
ATOM     27  C   LIG    1      -25.276  80.923  36.561  0.00  0.00    +0.047 A 
ATOM     28  C   LIG    1      -24.875  82.225  36.871  0.00  0.00    +0.132 A 
ATOM     29  C   LIG    1      -23.600  82.651  36.487  0.00  0.00    +0.047 A 
ATOM     30  C   LIG    1      -22.776  81.824  35.723  0.00  0.00    +0.012 A 
BRANCH  25  33
ATOM     31  C   LIG    1      -21.292  77.803  33.251  0.00  0.00    +0.156 A 
ATOM     32  S   LIG    1      -22.926  78.493  33.510  0.00  0.00    -0.053 S 
ATOM     33  C   LIG    1      -22.276  79.678  34.625  0.00  0.00    +0.038 A 
ATOM     34  C   LIG    1      -20.941  79.569  34.736  0.00  0.00    +0.100 A 
ATOM     35  N   LIG    1      -20.404  78.583  33.948  0.00  0.00    -0.342 N 
ATOM     36  H   LIG    1      -19.440  78.288  34.038  0.00  0.00    +0.167 HD
BRANCH  31  37
ATOM     37  N   LIG    1      -20.984  76.760  32.575  0.00  0.00    -0.228 NA
BRANCH  37  38
ATOM     38  C   LIG    1      -22.009  76.123  31.748  0.00  0.00    +0.130 C 
BRANCH  38  40
ATOM     39  C   LIG    1      -22.935  77.218  29.673  0.00  0.00    +0.005 C 
ATOM     40  C   LIG    1      -21.747  76.496  30.289  0.00  0.00    +0.017 C 
ENDBRANCH  38  40
ENDBRANCH  37  38
ENDBRANCH  31  37
ENDBRANCH  25  33
ENDBRANCH  24  28
ENDBRANCH   1  24
TORSDOF 11
ENDMDL
