MODEL 1
REMARK VINA RESULT:      -6.5      0.000      0.000
REMARK  Name = pdb/CHEMBL3678300.pdb
REMARK                            x       y       z     vdW  Elec       q    Type
REMARK                         _______ _______ _______ _____ _____    ______ ____
ROOT
ATOM      1  C   LIG    1      -22.343  71.346  16.609  0.00  0.00    +0.162 A 
ATOM      2  C   LIG    1      -23.274  71.808  17.551  0.00  0.00    +0.162 A 
ATOM      3  C   LIG    1      -22.795  72.320  18.770  0.00  0.00    +0.050 A 
ATOM      4  C   LIG    1      -21.419  72.344  19.067  0.00  0.00    +0.009 A 
ATOM      5  C   LIG    1      -20.486  71.847  18.146  0.00  0.00    -0.021 A 
ATOM      6  C   LIG    1      -20.982  71.356  16.931  0.00  0.00    +0.055 A 
ENDROOT
BRANCH   1   8
ATOM      7  C   LIG    1      -22.104  71.291  14.217  0.00  0.00    +0.277 C 
ATOM      8  O   LIG    1      -22.787  70.894  15.397  0.00  0.00    -0.491 OA
ENDBRANCH   1   8
BRANCH   5   9
ATOM      9  C   LIG    1      -18.992  71.760  18.462  0.00  0.00    +0.119 C 
ATOM     10  C   LIG    1      -18.230  71.055  17.331  0.00  0.00    +0.036 C 
BRANCH   9  11
ATOM     11  N   LIG    1      -18.418  73.067  18.811  0.00  0.00    -0.290 N 
ATOM     12  C   LIG    1      -18.479  74.226  18.061  0.00  0.00    +0.162 A 
ATOM     13  N   LIG    1      -19.079  74.421  16.871  0.00  0.00    -0.235 NA
ATOM     14  C   LIG    1      -18.968  75.699  16.421  0.00  0.00    +0.121 A 
ATOM     15  C   LIG    1      -18.313  76.755  17.064  0.00  0.00    +0.005 A 
ATOM     16  C   LIG    1      -17.729  76.486  18.309  0.00  0.00    +0.041 A 
ATOM     17  C   LIG    1      -17.805  75.179  18.815  0.00  0.00    +0.110 A 
ATOM     18  N   LIG    1      -17.332  74.636  19.978  0.00  0.00    -0.213 NA
ATOM     19  C   LIG    1      -17.700  73.389  19.950  0.00  0.00    +0.196 A 
BRANCH  15  20
ATOM     20  C   LIG    1      -18.217  78.084  16.474  0.00  0.00    +0.021 A 
ATOM     21  C   LIG    1      -19.263  78.962  16.262  0.00  0.00    +0.116 A 
ATOM     22  N   LIG    1      -18.727  80.068  15.660  0.00  0.00    -0.274 N 
ATOM     23  C   LIG    1      -19.443  81.248  15.237  0.00  0.00    +0.172 C 
ATOM     24  N   LIG    1      -17.402  79.983  15.471  0.00  0.00    -0.179 NA
ATOM     25  C   LIG    1      -17.094  78.779  15.958  0.00  0.00    +0.143 A 
ENDBRANCH  15  20
BRANCH  19  26
ATOM     26  N   LIG    1      -17.430  72.484  20.915  0.00  0.00    -0.329 N 
ATOM     27  H   LIG    1      -16.706  71.816  20.656  0.00  0.00    +0.145 HD
ATOM     28  H   LIG    1      -17.332  72.782  21.881  0.00  0.00    +0.145 HD
ENDBRANCH  19  26
ENDBRANCH   9  11
ENDBRANCH   5   9
BRANCH   2  29
ATOM     29  O   LIG    1      -24.651  71.829  17.425  0.00  0.00    -0.484 OA
BRANCH  29  30
ATOM     30  C   LIG    1      -25.347  70.644  17.831  0.00  0.00    +0.266 C 
BRANCH  30  31
ATOM     31  C   LIG    1      -26.843  70.817  17.869  0.00  0.00    +0.008 A 
ATOM     32  C   LIG    1      -27.547  71.332  16.791  0.00  0.00    +0.118 A 
ATOM     33  N   LIG    1      -28.900  71.370  16.719  0.00  0.00    -0.251 NA
ATOM     34  C   LIG    1      -29.614  70.870  17.771  0.00  0.00    +0.144 A 
ATOM     35  C   LIG    1      -28.980  70.352  18.900  0.00  0.00    +0.033 A 
ATOM     36  C   LIG    1      -27.588  70.320  18.942  0.00  0.00    +0.010 A 
BRANCH  34  37
ATOM     37  C   LIG    1      -31.137  70.853  17.692  0.00  0.00    +0.434 C 
ATOM     38  F   LIG    1      -31.608  70.911  16.412  0.00  0.00    -0.164 F 
ATOM     39  F   LIG    1      -31.725  71.888  18.358  0.00  0.00    -0.164 F 
ATOM     40  F   LIG    1      -31.691  69.721  18.224  0.00  0.00    -0.164 F 
ENDBRANCH  34  37
ENDBRANCH  30  31
ENDBRANCH  29  30
ENDBRANCH   2  29
TORSDOF 9
ENDMDL
MODEL 2
REMARK VINA RESULT:      -6.3     13.840     15.500
REMARK  Name = pdb/CHEMBL3678300.pdb
REMARK                            x       y       z     vdW  Elec       q    Type
REMARK                         _______ _______ _______ _____ _____    ______ ____
ROOT
ATOM      1  C   LIG    1      -24.172  74.479  31.558  0.00  0.00    +0.162 A 
ATOM      2  C   LIG    1      -23.762  73.575  32.550  0.00  0.00    +0.162 A 
ATOM      3  C   LIG    1      -22.396  73.511  32.873  0.00  0.00    +0.050 A 
ATOM      4  C   LIG    1      -21.444  74.304  32.203  0.00  0.00    +0.009 A 
ATOM      5  C   LIG    1      -21.842  75.180  31.184  0.00  0.00    -0.021 A 
ATOM      6  C   LIG    1      -23.209  75.241  30.888  0.00  0.00    +0.055 A 
ENDROOT
BRANCH   1   8
ATOM      7  C   LIG    1      -26.209  75.748  31.697  0.00  0.00    +0.277 C 
ATOM      8  O   LIG    1      -25.503  74.593  31.268  0.00  0.00    -0.491 OA
ENDBRANCH   1   8
BRANCH   5   9
ATOM      9  C   LIG    1      -20.836  75.987  30.361  0.00  0.00    +0.119 C 
ATOM     10  C   LIG    1      -21.550  76.847  29.309  0.00  0.00    +0.036 C 
BRANCH   9  11
ATOM     11  N   LIG    1      -19.917  76.762  31.206  0.00  0.00    -0.290 N 
ATOM     12  C   LIG    1      -20.261  77.635  32.220  0.00  0.00    +0.162 A 
ATOM     13  N   LIG    1      -21.490  77.956  32.665  0.00  0.00    -0.235 NA
ATOM     14  C   LIG    1      -21.469  78.836  33.702  0.00  0.00    +0.121 A 
ATOM     15  C   LIG    1      -20.334  79.397  34.296  0.00  0.00    +0.005 A 
ATOM     16  C   LIG    1      -19.085  79.001  33.796  0.00  0.00    +0.041 A 
ATOM     17  C   LIG    1      -19.051  78.103  32.718  0.00  0.00    +0.110 A 
ATOM     18  N   LIG    1      -17.998  77.557  32.035  0.00  0.00    -0.213 NA
ATOM     19  C   LIG    1      -18.534  76.775  31.146  0.00  0.00    +0.196 A 
BRANCH  15  20
ATOM     20  C   LIG    1      -20.422  80.365  35.381  0.00  0.00    +0.021 A 
ATOM     21  C   LIG    1      -19.764  80.297  36.594  0.00  0.00    +0.116 A 
ATOM     22  N   LIG    1      -20.163  81.389  37.316  0.00  0.00    -0.274 N 
ATOM     23  C   LIG    1      -19.745  81.733  38.653  0.00  0.00    +0.172 C 
ATOM     24  N   LIG    1      -21.028  82.175  36.659  0.00  0.00    -0.179 NA
ATOM     25  C   LIG    1      -21.190  81.552  35.490  0.00  0.00    +0.143 A 
ENDBRANCH  15  20
BRANCH  19  26
ATOM     26  N   LIG    1      -17.842  76.040  30.249  0.00  0.00    -0.329 N 
ATOM     27  H   LIG    1      -18.420  75.650  29.508  0.00  0.00    +0.145 HD
ATOM     28  H   LIG    1      -16.954  76.378  29.890  0.00  0.00    +0.145 HD
ENDBRANCH  19  26
ENDBRANCH   9  11
ENDBRANCH   5   9
BRANCH   2  29
ATOM     29  O   LIG    1      -24.563  72.714  33.278  0.00  0.00    -0.484 OA
BRANCH  29  30
ATOM     30  C   LIG    1      -24.247  71.320  33.187  0.00  0.00    +0.266 C 
BRANCH  30  31
ATOM     31  C   LIG    1      -24.328  70.782  31.782  0.00  0.00    +0.008 A 
ATOM     32  C   LIG    1      -25.502  70.838  31.045  0.00  0.00    +0.118 A 
ATOM     33  N   LIG    1      -25.590  70.505  29.734  0.00  0.00    -0.251 NA
ATOM     34  C   LIG    1      -24.453  70.089  29.100  0.00  0.00    +0.144 A 
ATOM     35  C   LIG    1      -23.237  69.988  29.776  0.00  0.00    +0.033 A 
ATOM     36  C   LIG    1      -23.178  70.343  31.121  0.00  0.00    +0.010 A 
BRANCH  34  37
ATOM     37  C   LIG    1      -24.514  69.759  27.612  0.00  0.00    +0.434 C 
ATOM     38  F   LIG    1      -23.983  68.539  27.311  0.00  0.00    -0.164 F 
ATOM     39  F   LIG    1      -23.856  70.662  26.830  0.00  0.00    -0.164 F 
ATOM     40  F   LIG    1      -25.792  69.722  27.121  0.00  0.00    -0.164 F 
ENDBRANCH  34  37
ENDBRANCH  30  31
ENDBRANCH  29  30
ENDBRANCH   2  29
TORSDOF 9
ENDMDL
MODEL 3
REMARK VINA RESULT:      -6.2     11.406     17.008
REMARK  Name = pdb/CHEMBL3678300.pdb
REMARK                            x       y       z     vdW  Elec       q    Type
REMARK                         _______ _______ _______ _____ _____    ______ ____
ROOT
ATOM      1  C   LIG    1      -24.158  88.090  11.141  0.00  0.00    +0.162 A 
ATOM      2  C   LIG    1      -23.904  89.463  11.006  0.00  0.00    +0.162 A 
ATOM      3  C   LIG    1      -22.654  89.956  11.419  0.00  0.00    +0.050 A 
ATOM      4  C   LIG    1      -21.682  89.111  11.989  0.00  0.00    +0.009 A 
ATOM      5  C   LIG    1      -21.945  87.746  12.163  0.00  0.00    -0.021 A 
ATOM      6  C   LIG    1      -23.189  87.271  11.731  0.00  0.00    +0.055 A 
ENDROOT
BRANCH   1   8
ATOM      7  C   LIG    1      -25.364  86.318  10.052  0.00  0.00    +0.277 C 
ATOM      8  O   LIG    1      -25.347  87.584  10.696  0.00  0.00    -0.491 OA
ENDBRANCH   1   8
BRANCH   5   9
ATOM      9  C   LIG    1      -20.962  86.807  12.867  0.00  0.00    +0.119 C 
ATOM     10  C   LIG    1      -19.698  87.560  13.304  0.00  0.00    +0.036 C 
BRANCH   9  11
ATOM     11  N   LIG    1      -21.592  86.059  13.964  0.00  0.00    -0.290 N 
ATOM     12  C   LIG    1      -21.822  84.698  14.013  0.00  0.00    +0.162 A 
ATOM     13  N   LIG    1      -21.513  83.764  13.093  0.00  0.00    -0.235 NA
ATOM     14  C   LIG    1      -21.861  82.505  13.473  0.00  0.00    +0.121 A 
ATOM     15  C   LIG    1      -22.479  82.138  14.673  0.00  0.00    +0.005 A 
ATOM     16  C   LIG    1      -22.752  83.159  15.594  0.00  0.00    +0.041 A 
ATOM     17  C   LIG    1      -22.424  84.479  15.246  0.00  0.00    +0.110 A 
ATOM     18  N   LIG    1      -22.577  85.654  15.931  0.00  0.00    -0.213 NA
ATOM     19  C   LIG    1      -22.084  86.571  15.152  0.00  0.00    +0.196 A 
BRANCH  15  20
ATOM     20  C   LIG    1      -22.847  80.759  14.967  0.00  0.00    +0.021 A 
ATOM     21  C   LIG    1      -22.111  79.632  14.656  0.00  0.00    +0.116 A 
ATOM     22  N   LIG    1      -22.843  78.558  15.083  0.00  0.00    -0.274 N 
ATOM     23  C   LIG    1      -22.479  77.167  14.960  0.00  0.00    +0.172 C 
ATOM     24  N   LIG    1      -24.003  78.900  15.662  0.00  0.00    -0.179 NA
ATOM     25  C   LIG    1      -24.008  80.233  15.586  0.00  0.00    +0.143 A 
ENDBRANCH  15  20
BRANCH  19  26
ATOM     26  N   LIG    1      -22.041  87.888  15.445  0.00  0.00    -0.329 N 
ATOM     27  H   LIG    1      -22.958  88.303  15.602  0.00  0.00    +0.145 HD
ATOM     28  H   LIG    1      -21.356  88.241  16.107  0.00  0.00    +0.145 HD
ENDBRANCH  19  26
ENDBRANCH   9  11
ENDBRANCH   5   9
BRANCH   2  29
ATOM     29  O   LIG    1      -24.757  90.424  10.494  0.00  0.00    -0.484 OA
BRANCH  29  30
ATOM     30  C   LIG    1      -24.462  91.784  10.834  0.00  0.00    +0.266 C 
BRANCH  30  31
ATOM     31  C   LIG    1      -25.487  92.405  11.746  0.00  0.00    +0.008 A 
ATOM     32  C   LIG    1      -26.211  91.647  12.655  0.00  0.00    +0.118 A 
ATOM     33  N   LIG    1      -27.032  92.173  13.596  0.00  0.00    -0.251 NA
ATOM     34  C   LIG    1      -27.157  93.533  13.652  0.00  0.00    +0.144 A 
ATOM     35  C   LIG    1      -26.478  94.364  12.760  0.00  0.00    +0.033 A 
ATOM     36  C   LIG    1      -25.635  93.793  11.810  0.00  0.00    +0.010 A 
BRANCH  34  37
ATOM     37  C   LIG    1      -28.035  94.152  14.734  0.00  0.00    +0.434 C 
ATOM     38  F   LIG    1      -27.369  95.051  15.515  0.00  0.00    -0.164 F 
ATOM     39  F   LIG    1      -28.571  93.233  15.588  0.00  0.00    -0.164 F 
ATOM     40  F   LIG    1      -29.105  94.842  14.230  0.00  0.00    -0.164 F 
ENDBRANCH  34  37
ENDBRANCH  30  31
ENDBRANCH  29  30
ENDBRANCH   2  29
TORSDOF 9
ENDMDL
MODEL 4
REMARK VINA RESULT:      -6.1     19.384     21.208
REMARK  Name = pdb/CHEMBL3678300.pdb
REMARK                            x       y       z     vdW  Elec       q    Type
REMARK                         _______ _______ _______ _____ _____    ______ ____
ROOT
ATOM      1  C   LIG    1      -35.381  83.960  32.274  0.00  0.00    +0.162 A 
ATOM      2  C   LIG    1      -34.853  83.076  31.320  0.00  0.00    +0.162 A 
ATOM      3  C   LIG    1      -34.125  83.612  30.243  0.00  0.00    +0.050 A 
ATOM      4  C   LIG    1      -33.948  85.000  30.094  0.00  0.00    +0.009 A 
ATOM      5  C   LIG    1      -34.505  85.890  31.021  0.00  0.00    -0.021 A 
ATOM      6  C   LIG    1      -35.214  85.337  32.095  0.00  0.00    +0.055 A 
ENDROOT
BRANCH   1   8
ATOM      7  C   LIG    1      -37.027  84.254  34.001  0.00  0.00    +0.277 C 
ATOM      8  O   LIG    1      -36.047  83.455  33.356  0.00  0.00    -0.491 OA
ENDBRANCH   1   8
BRANCH   5   9
ATOM      9  C   LIG    1      -34.426  87.409  30.849  0.00  0.00    +0.119 C 
ATOM     10  C   LIG    1      -35.233  88.129  31.937  0.00  0.00    +0.036 C 
BRANCH   9  11
ATOM     11  N   LIG    1      -33.040  87.888  30.751  0.00  0.00    -0.290 N 
ATOM     12  C   LIG    1      -32.063  87.799  31.724  0.00  0.00    +0.162 A 
ATOM     13  N   LIG    1      -32.152  87.251  32.951  0.00  0.00    -0.235 NA
ATOM     14  C   LIG    1      -30.986  87.312  33.648  0.00  0.00    +0.121 A 
ATOM     15  C   LIG    1      -29.781  87.870  33.210  0.00  0.00    +0.005 A 
ATOM     16  C   LIG    1      -29.754  88.404  31.913  0.00  0.00    +0.041 A 
ATOM     17  C   LIG    1      -30.935  88.377  31.155  0.00  0.00    +0.110 A 
ATOM     18  N   LIG    1      -31.200  88.820  29.888  0.00  0.00    -0.213 NA
ATOM     19  C   LIG    1      -32.448  88.525  29.675  0.00  0.00    +0.196 A 
BRANCH  15  20
ATOM     20  C   LIG    1      -28.595  87.920  34.054  0.00  0.00    +0.021 A 
ATOM     21  C   LIG    1      -28.165  89.003  34.798  0.00  0.00    +0.116 A 
ATOM     22  N   LIG    1      -27.000  88.621  35.405  0.00  0.00    -0.274 N 
ATOM     23  C   LIG    1      -26.180  89.429  36.275  0.00  0.00    +0.172 C 
ATOM     24  N   LIG    1      -26.638  87.362  35.121  0.00  0.00    -0.179 NA
ATOM     25  C   LIG    1      -27.601  86.939  34.298  0.00  0.00    +0.143 A 
ENDBRANCH  15  20
BRANCH  19  26
ATOM     26  N   LIG    1      -33.120  88.797  28.536  0.00  0.00    -0.329 N 
ATOM     27  H   LIG    1      -32.519  88.899  27.721  0.00  0.00    +0.145 HD
ATOM     28  H   LIG    1      -33.969  88.286  28.311  0.00  0.00    +0.145 HD
ENDBRANCH  19  26
ENDBRANCH   9  11
ENDBRANCH   5   9
BRANCH   2  29
ATOM     29  O   LIG    1      -34.960  81.698  31.309  0.00  0.00    -0.484 OA
BRANCH  29  30
ATOM     30  C   LIG    1      -35.564  81.114  30.149  0.00  0.00    +0.266 C 
BRANCH  30  31
ATOM     31  C   LIG    1      -34.672  80.124  29.448  0.00  0.00    +0.008 A 
ATOM     32  C   LIG    1      -34.500  78.831  29.923  0.00  0.00    +0.118 A 
ATOM     33  N   LIG    1      -33.830  77.862  29.254  0.00  0.00    -0.251 NA
ATOM     34  C   LIG    1      -33.290  78.175  28.038  0.00  0.00    +0.144 A 
ATOM     35  C   LIG    1      -33.403  79.457  27.500  0.00  0.00    +0.033 A 
ATOM     36  C   LIG    1      -34.104  80.430  28.208  0.00  0.00    +0.010 A 
BRANCH  34  37
ATOM     37  C   LIG    1      -32.577  77.088  27.242  0.00  0.00    +0.434 C 
ATOM     38  F   LIG    1      -31.583  76.472  27.946  0.00  0.00    -0.164 F 
ATOM     39  F   LIG    1      -31.999  77.548  26.095  0.00  0.00    -0.164 F 
ATOM     40  F   LIG    1      -33.410  76.077  26.845  0.00  0.00    -0.164 F 
ENDBRANCH  34  37
ENDBRANCH  30  31
ENDBRANCH  29  30
ENDBRANCH   2  29
TORSDOF 9
ENDMDL
MODEL 5
REMARK VINA RESULT:      -6.1     14.309     15.828
REMARK  Name = pdb/CHEMBL3678300.pdb
REMARK                            x       y       z     vdW  Elec       q    Type
REMARK                         _______ _______ _______ _____ _____    ______ ____
ROOT
ATOM      1  C   LIG    1      -24.072  76.043  30.666  0.00  0.00    +0.162 A 
ATOM      2  C   LIG    1      -24.366  74.878  31.391  0.00  0.00    +0.162 A 
ATOM      3  C   LIG    1      -23.298  74.129  31.916  0.00  0.00    +0.050 A 
ATOM      4  C   LIG    1      -21.959  74.507  31.699  0.00  0.00    +0.009 A 
ATOM      5  C   LIG    1      -21.658  75.647  30.943  0.00  0.00    -0.021 A 
ATOM      6  C   LIG    1      -22.736  76.389  30.442  0.00  0.00    +0.055 A 
ENDROOT
BRANCH   1   8
ATOM      7  C   LIG    1      -25.094  78.209  30.453  0.00  0.00    +0.277 C 
ATOM      8  O   LIG    1      -25.099  76.812  30.194  0.00  0.00    -0.491 OA
ENDBRANCH   1   8
BRANCH   5   9
ATOM      9  C   LIG    1      -20.221  76.043  30.596  0.00  0.00    +0.119 C 
ATOM     10  C   LIG    1      -20.194  77.096  29.480  0.00  0.00    +0.036 C 
BRANCH   9  11
ATOM     11  N   LIG    1      -19.451  76.445  31.782  0.00  0.00    -0.290 N 
ATOM     12  C   LIG    1      -19.786  77.430  32.692  0.00  0.00    +0.162 A 
ATOM     13  N   LIG    1      -20.879  78.217  32.708  0.00  0.00    -0.235 NA
ATOM     14  C   LIG    1      -20.907  79.069  33.768  0.00  0.00    +0.121 A 
ATOM     15  C   LIG    1      -19.942  79.179  34.774  0.00  0.00    +0.005 A 
ATOM     16  C   LIG    1      -18.841  78.313  34.707  0.00  0.00    +0.041 A 
ATOM     17  C   LIG    1      -18.758  77.421  33.626  0.00  0.00    +0.110 A 
ATOM     18  N   LIG    1      -17.815  76.483  33.306  0.00  0.00    -0.213 NA
ATOM     19  C   LIG    1      -18.243  75.925  32.212  0.00  0.00    +0.196 A 
BRANCH  15  20
ATOM     20  C   LIG    1      -20.048  80.157  35.849  0.00  0.00    +0.021 A 
ATOM     21  C   LIG    1      -20.818  81.304  35.838  0.00  0.00    +0.116 A 
ATOM     22  N   LIG    1      -20.591  81.938  37.029  0.00  0.00    -0.274 N 
ATOM     23  C   LIG    1      -21.170  83.187  37.461  0.00  0.00    +0.172 C 
ATOM     24  N   LIG    1      -19.735  81.283  37.826  0.00  0.00    -0.179 NA
ATOM     25  C   LIG    1      -19.401  80.208  37.109  0.00  0.00    +0.143 A 
ENDBRANCH  15  20
BRANCH  19  26
ATOM     26  N   LIG    1      -17.602  74.941  31.547  0.00  0.00    -0.329 N 
ATOM     27  H   LIG    1      -17.014  75.277  30.787  0.00  0.00    +0.145 HD
ATOM     28  H   LIG    1      -17.151  74.189  32.061  0.00  0.00    +0.145 HD
ENDBRANCH  19  26
ENDBRANCH   9  11
ENDBRANCH   5   9
BRANCH   2  29
ATOM     29  O   LIG    1      -25.618  74.359  31.668  0.00  0.00    -0.484 OA
BRANCH  29  30
ATOM     30  C   LIG    1      -26.409  75.077  32.622  0.00  0.00    +0.266 C 
BRANCH  30  31
ATOM     31  C   LIG    1      -27.823  75.317  32.161  0.00  0.00    +0.008 A 
ATOM     32  C   LIG    1      -28.216  76.528  31.609  0.00  0.00    +0.118 A 
ATOM     33  N   LIG    1      -29.430  76.744  31.047  0.00  0.00    -0.251 NA
ATOM     34  C   LIG    1      -30.321  75.709  31.022  0.00  0.00    +0.144 A 
ATOM     35  C   LIG    1      -30.009  74.466  31.573  0.00  0.00    +0.033 A 
ATOM     36  C   LIG    1      -28.750  74.272  32.138  0.00  0.00    +0.010 A 
BRANCH  34  37
ATOM     37  C   LIG    1      -31.674  75.912  30.349  0.00  0.00    +0.434 C 
ATOM     38  F   LIG    1      -31.642  76.842  29.351  0.00  0.00    -0.164 F 
ATOM     39  F   LIG    1      -32.653  76.314  31.210  0.00  0.00    -0.164 F 
ATOM     40  F   LIG    1      -32.158  74.775  29.759  0.00  0.00    -0.164 F 
ENDBRANCH  34  37
ENDBRANCH  30  31
ENDBRANCH  29  30
ENDBRANCH   2  29
TORSDOF 9
ENDMDL
MODEL 6
REMARK VINA RESULT:      -6.1     20.854     23.206
REMARK  Name = pdb/CHEMBL3678300.pdb
REMARK                            x       y       z     vdW  Elec       q    Type
REMARK                         _______ _______ _______ _____ _____    ______ ____
ROOT
ATOM      1  C   LIG    1      -32.399  93.491  27.861  0.00  0.00    +0.162 A 
ATOM      2  C   LIG    1      -32.563  92.120  27.612  0.00  0.00    +0.162 A 
ATOM      3  C   LIG    1      -32.710  91.695  26.280  0.00  0.00    +0.050 A 
ATOM      4  C   LIG    1      -32.727  92.613  25.213  0.00  0.00    +0.009 A 
ATOM      5  C   LIG    1      -32.603  93.987  25.457  0.00  0.00    -0.021 A 
ATOM      6  C   LIG    1      -32.442  94.389  26.789  0.00  0.00    +0.055 A 
ENDROOT
BRANCH   1   8
ATOM      7  C   LIG    1      -33.328  94.211  29.957  0.00  0.00    +0.277 C 
ATOM      8  O   LIG    1      -32.201  93.918  29.144  0.00  0.00    -0.491 OA
ENDBRANCH   1   8
BRANCH   5   9
ATOM      9  C   LIG    1      -32.716  95.030  24.344  0.00  0.00    +0.119 C 
ATOM     10  C   LIG    1      -32.539  96.450  24.899  0.00  0.00    +0.036 C 
BRANCH   9  11
ATOM     11  N   LIG    1      -31.820  94.740  23.215  0.00  0.00    -0.290 N 
ATOM     12  C   LIG    1      -32.175  94.204  21.992  0.00  0.00    +0.162 A 
ATOM     13  N   LIG    1      -33.400  93.847  21.560  0.00  0.00    -0.235 NA
ATOM     14  C   LIG    1      -33.398  93.373  20.285  0.00  0.00    +0.121 A 
ATOM     15  C   LIG    1      -32.286  93.236  19.449  0.00  0.00    +0.005 A 
ATOM     16  C   LIG    1      -31.045  93.647  19.957  0.00  0.00    +0.041 A 
ATOM     17  C   LIG    1      -30.989  94.134  21.272  0.00  0.00    +0.110 A 
ATOM     18  N   LIG    1      -29.937  94.592  22.017  0.00  0.00    -0.213 NA
ATOM     19  C   LIG    1      -30.451  94.938  23.160  0.00  0.00    +0.196 A 
BRANCH  15  20
ATOM     20  C   LIG    1      -32.386  92.676  18.107  0.00  0.00    +0.021 A 
ATOM     21  C   LIG    1      -33.187  91.619  17.720  0.00  0.00    +0.116 A 
ATOM     22  N   LIG    1      -32.941  91.410  16.390  0.00  0.00    -0.274 N 
ATOM     23  C   LIG    1      -33.541  90.399  15.554  0.00  0.00    +0.172 C 
ATOM     24  N   LIG    1      -32.044  92.263  15.873  0.00  0.00    -0.179 NA
ATOM     25  C   LIG    1      -31.703  93.025  16.915  0.00  0.00    +0.143 A 
ENDBRANCH  15  20
BRANCH  19  26
ATOM     26  N   LIG    1      -29.751  95.442  24.198  0.00  0.00    -0.329 N 
ATOM     27  H   LIG    1      -30.219  96.213  24.671  0.00  0.00    +0.145 HD
ATOM     28  H   LIG    1      -29.302  94.817  24.861  0.00  0.00    +0.145 HD
ENDBRANCH  19  26
ENDBRANCH   9  11
ENDBRANCH   5   9
BRANCH   2  29
ATOM     29  O   LIG    1      -32.595  91.099  28.545  0.00  0.00    -0.484 OA
BRANCH  29  30
ATOM     30  C   LIG    1      -33.603  90.099  28.362  0.00  0.00    +0.266 C 
BRANCH  30  31
ATOM     31  C   LIG    1      -33.207  88.750  28.900  0.00  0.00    +0.008 A 
ATOM     32  C   LIG    1      -32.177  88.603  29.818  0.00  0.00    +0.118 A 
ATOM     33  N   LIG    1      -31.880  87.437  30.442  0.00  0.00    -0.251 NA
ATOM     34  C   LIG    1      -32.639  86.339  30.150  0.00  0.00    +0.144 A 
ATOM     35  C   LIG    1      -33.681  86.401  29.224  0.00  0.00    +0.033 A 
ATOM     36  C   LIG    1      -33.967  87.615  28.605  0.00  0.00    +0.010 A 
BRANCH  34  37
ATOM     37  C   LIG    1      -32.358  85.029  30.878  0.00  0.00    +0.434 C 
ATOM     38  F   LIG    1      -33.052  83.972  30.365  0.00  0.00    -0.164 F 
ATOM     39  F   LIG    1      -32.661  85.072  32.207  0.00  0.00    -0.164 F 
ATOM     40  F   LIG    1      -31.043  84.653  30.820  0.00  0.00    -0.164 F 
ENDBRANCH  34  37
ENDBRANCH  30  31
ENDBRANCH  29  30
ENDBRANCH   2  29
TORSDOF 9
ENDMDL
MODEL 7
REMARK VINA RESULT:      -6.1     15.267     18.061
REMARK  Name = pdb/CHEMBL3678300.pdb
REMARK                            x       y       z     vdW  Elec       q    Type
REMARK                         _______ _______ _______ _____ _____    ______ ____
ROOT
ATOM      1  C   LIG    1      -40.696  74.250  23.809  0.00  0.00    +0.162 A 
ATOM      2  C   LIG    1      -40.048  73.012  23.935  0.00  0.00    +0.162 A 
ATOM      3  C   LIG    1      -38.807  72.971  24.595  0.00  0.00    +0.050 A 
ATOM      4  C   LIG    1      -38.201  74.140  25.094  0.00  0.00    +0.009 A 
ATOM      5  C   LIG    1      -38.824  75.385  24.936  0.00  0.00    -0.021 A 
ATOM      6  C   LIG    1      -40.067  75.403  24.290  0.00  0.00    +0.055 A 
ENDROOT
BRANCH   1   8
ATOM      7  C   LIG    1      -42.585  75.555  23.095  0.00  0.00    +0.277 C 
ATOM      8  O   LIG    1      -41.927  74.302  23.216  0.00  0.00    -0.491 OA
ENDBRANCH   1   8
BRANCH   5   9
ATOM      9  C   LIG    1      -38.161  76.693  25.371  0.00  0.00    +0.119 C 
ATOM     10  C   LIG    1      -39.064  77.896  25.068  0.00  0.00    +0.036 C 
BRANCH   9  11
ATOM     11  N   LIG    1      -37.710  76.652  26.770  0.00  0.00    -0.290 N 
ATOM     12  C   LIG    1      -36.406  76.555  27.217  0.00  0.00    +0.162 A 
ATOM     13  N   LIG    1      -35.275  76.494  26.489  0.00  0.00    -0.235 NA
ATOM     14  C   LIG    1      -34.152  76.429  27.253  0.00  0.00    +0.121 A 
ATOM     15  C   LIG    1      -34.095  76.418  28.650  0.00  0.00    +0.005 A 
ATOM     16  C   LIG    1      -35.310  76.507  29.345  0.00  0.00    +0.041 A 
ATOM     17  C   LIG    1      -36.500  76.565  28.603  0.00  0.00    +0.110 A 
ATOM     18  N   LIG    1      -37.806  76.649  29.004  0.00  0.00    -0.213 NA
ATOM     19  C   LIG    1      -38.500  76.693  27.906  0.00  0.00    +0.196 A 
BRANCH  15  20
ATOM     20  C   LIG    1      -32.836  76.306  29.376  0.00  0.00    +0.021 A 
ATOM     21  C   LIG    1      -32.690  76.059  30.728  0.00  0.00    +0.116 A 
ATOM     22  N   LIG    1      -31.346  76.070  30.984  0.00  0.00    -0.274 N 
ATOM     23  C   LIG    1      -30.714  75.870  32.265  0.00  0.00    +0.172 C 
ATOM     24  N   LIG    1      -30.598  76.296  29.894  0.00  0.00    -0.179 NA
ATOM     25  C   LIG    1      -31.500  76.445  28.922  0.00  0.00    +0.143 A 
ENDBRANCH  15  20
BRANCH  19  26
ATOM     26  N   LIG    1      -39.846  76.774  27.848  0.00  0.00    -0.329 N 
ATOM     27  H   LIG    1      -40.208  77.709  28.026  0.00  0.00    +0.145 HD
ATOM     28  H   LIG    1      -40.353  76.317  27.095  0.00  0.00    +0.145 HD
ENDBRANCH  19  26
ENDBRANCH   9  11
ENDBRANCH   5   9
BRANCH   2  29
ATOM     29  O   LIG    1      -40.494  71.785  23.480  0.00  0.00    -0.484 OA
BRANCH  29  30
ATOM     30  C   LIG    1      -39.825  70.630  24.000  0.00  0.00    +0.266 C 
BRANCH  30  31
ATOM     31  C   LIG    1      -38.986  69.917  22.973  0.00  0.00    +0.008 A 
ATOM     32  C   LIG    1      -37.630  69.695  23.163  0.00  0.00    +0.118 A 
ATOM     33  N   LIG    1      -36.864  68.934  22.344  0.00  0.00    -0.251 NA
ATOM     34  C   LIG    1      -37.464  68.349  21.265  0.00  0.00    +0.144 A 
ATOM     35  C   LIG    1      -38.819  68.538  20.993  0.00  0.00    +0.033 A 
ATOM     36  C   LIG    1      -39.581  69.320  21.858  0.00  0.00    +0.010 A 
BRANCH  34  37
ATOM     37  C   LIG    1      -36.636  67.445  20.357  0.00  0.00    +0.434 C 
ATOM     38  F   LIG    1      -35.414  67.136  20.879  0.00  0.00    -0.164 F 
ATOM     39  F   LIG    1      -36.397  67.986  19.127  0.00  0.00    -0.164 F 
ATOM     40  F   LIG    1      -37.233  66.238  20.110  0.00  0.00    -0.164 F 
ENDBRANCH  34  37
ENDBRANCH  30  31
ENDBRANCH  29  30
ENDBRANCH   2  29
TORSDOF 9
ENDMDL
MODEL 8
REMARK VINA RESULT:      -6.1     14.012     15.794
REMARK  Name = pdb/CHEMBL3678300.pdb
REMARK                            x       y       z     vdW  Elec       q    Type
REMARK                         _______ _______ _______ _____ _____    ______ ____
ROOT
ATOM      1  C   LIG    1      -25.725  74.299  31.714  0.00  0.00    +0.162 A 
ATOM      2  C   LIG    1      -24.862  73.193  31.709  0.00  0.00    +0.162 A 
ATOM      3  C   LIG    1      -23.520  73.393  31.341  0.00  0.00    +0.050 A 
ATOM      4  C   LIG    1      -23.045  74.660  30.951  0.00  0.00    +0.009 A 
ATOM      5  C   LIG    1      -23.911  75.761  30.916  0.00  0.00    -0.021 A 
ATOM      6  C   LIG    1      -25.240  75.545  31.301  0.00  0.00    +0.055 A 
ENDROOT
BRANCH   1   8
ATOM      7  C   LIG    1      -27.351  74.349  33.484  0.00  0.00    +0.277 C 
ATOM      8  O   LIG    1      -27.020  74.134  32.120  0.00  0.00    -0.491 OA
ENDBRANCH   1   8
BRANCH   5   9
ATOM      9  C   LIG    1      -23.468  77.134  30.406  0.00  0.00    +0.119 C 
ATOM     10  C   LIG    1      -24.549  78.193  30.666  0.00  0.00    +0.036 C 
BRANCH   9  11
ATOM     11  N   LIG    1      -22.148  77.522  30.922  0.00  0.00    -0.290 N 
ATOM     12  C   LIG    1      -21.873  78.078  32.157  0.00  0.00    +0.162 A 
ATOM     13  N   LIG    1      -22.732  78.369  33.152  0.00  0.00    -0.235 NA
ATOM     14  C   LIG    1      -22.119  78.889  34.250  0.00  0.00    +0.121 A 
ATOM     15  C   LIG    1      -20.750  79.129  34.405  0.00  0.00    +0.005 A 
ATOM     16  C   LIG    1      -19.912  78.782  33.336  0.00  0.00    +0.041 A 
ATOM     17  C   LIG    1      -20.495  78.252  32.174  0.00  0.00    +0.110 A 
ATOM     18  N   LIG    1      -19.935  77.836  30.997  0.00  0.00    -0.213 NA
ATOM     19  C   LIG    1      -20.931  77.416  30.273  0.00  0.00    +0.196 A 
BRANCH  15  20
ATOM     20  C   LIG    1      -20.198  79.728  35.613  0.00  0.00    +0.021 A 
ATOM     21  C   LIG    1      -20.615  80.905  36.206  0.00  0.00    +0.116 A 
ATOM     22  N   LIG    1      -19.802  81.105  37.289  0.00  0.00    -0.274 N 
ATOM     23  C   LIG    1      -19.854  82.215  38.208  0.00  0.00    +0.172 C 
ATOM     24  N   LIG    1      -18.888  80.138  37.455  0.00  0.00    -0.179 NA
ATOM     25  C   LIG    1      -19.123  79.308  36.436  0.00  0.00    +0.143 A 
ENDBRANCH  15  20
BRANCH  19  26
ATOM     26  N   LIG    1      -20.818  76.921  29.022  0.00  0.00    -0.329 N 
ATOM     27  H   LIG    1      -19.892  77.041  28.617  0.00  0.00    +0.145 HD
ATOM     28  H   LIG    1      -21.208  76.011  28.797  0.00  0.00    +0.145 HD
ENDBRANCH  19  26
ENDBRANCH   9  11
ENDBRANCH   5   9
BRANCH   2  29
ATOM     29  O   LIG    1      -25.176  71.887  32.037  0.00  0.00    -0.484 OA
BRANCH  29  30
ATOM     30  C   LIG    1      -25.699  71.072  30.982  0.00  0.00    +0.266 C 
BRANCH  30  31
ATOM     31  C   LIG    1      -24.640  70.271  30.269  0.00  0.00    +0.008 A 
ATOM     32  C   LIG    1      -24.607  70.172  28.886  0.00  0.00    +0.118 A 
ATOM     33  N   LIG    1      -23.597  69.591  28.193  0.00  0.00    -0.251 NA
ATOM     34  C   LIG    1      -22.549  69.071  28.899  0.00  0.00    +0.144 A 
ATOM     35  C   LIG    1      -22.517  69.114  30.293  0.00  0.00    +0.033 A 
ATOM     36  C   LIG    1      -23.566  69.725  30.976  0.00  0.00    +0.010 A 
BRANCH  34  37
ATOM     37  C   LIG    1      -21.377  68.458  28.140  0.00  0.00    +0.434 C 
ATOM     38  F   LIG    1      -21.732  67.378  27.386  0.00  0.00    -0.164 F 
ATOM     39  F   LIG    1      -20.367  68.035  28.954  0.00  0.00    -0.164 F 
ATOM     40  F   LIG    1      -20.790  69.329  27.262  0.00  0.00    -0.164 F 
ENDBRANCH  34  37
ENDBRANCH  30  31
ENDBRANCH  29  30
ENDBRANCH   2  29
TORSDOF 9
ENDMDL
MODEL 9
REMARK VINA RESULT:      -6.1     15.147     18.594
REMARK  Name = pdb/CHEMBL3678300.pdb
REMARK                            x       y       z     vdW  Elec       q    Type
REMARK                         _______ _______ _______ _____ _____    ______ ____
ROOT
ATOM      1  C   LIG    1      -37.728  68.833  21.505  0.00  0.00    +0.162 A 
ATOM      2  C   LIG    1      -36.845  68.385  22.500  0.00  0.00    +0.162 A 
ATOM      3  C   LIG    1      -37.359  68.133  23.784  0.00  0.00    +0.050 A 
ATOM      4  C   LIG    1      -38.716  68.351  24.090  0.00  0.00    +0.009 A 
ATOM      5  C   LIG    1      -39.594  68.836  23.111  0.00  0.00    -0.021 A 
ATOM      6  C   LIG    1      -39.067  69.066  21.833  0.00  0.00    +0.055 A 
ENDROOT
BRANCH   1   8
ATOM      7  C   LIG    1      -37.360  67.982  19.286  0.00  0.00    +0.277 C 
ATOM      8  O   LIG    1      -37.257  69.032  20.237  0.00  0.00    -0.491 OA
ENDBRANCH   1   8
BRANCH   5   9
ATOM      9  C   LIG    1      -41.052  69.183  23.419  0.00  0.00    +0.119 C 
ATOM     10  C   LIG    1      -41.464  68.653  24.799  0.00  0.00    +0.036 C 
BRANCH   9  11
ATOM     11  N   LIG    1      -41.333  70.615  23.247  0.00  0.00    -0.290 N 
ATOM     12  C   LIG    1      -40.599  71.670  23.757  0.00  0.00    +0.162 A 
ATOM     13  N   LIG    1      -39.475  71.626  24.497  0.00  0.00    -0.235 NA
ATOM     14  C   LIG    1      -38.996  72.859  24.812  0.00  0.00    +0.121 A 
ATOM     15  C   LIG    1      -39.554  74.088  24.448  0.00  0.00    +0.005 A 
ATOM     16  C   LIG    1      -40.713  74.059  23.658  0.00  0.00    +0.041 A 
ATOM     17  C   LIG    1      -41.256  72.811  23.314  0.00  0.00    +0.110 A 
ATOM     18  N   LIG    1      -42.359  72.484  22.573  0.00  0.00    -0.213 NA
ATOM     19  C   LIG    1      -42.386  71.185  22.553  0.00  0.00    +0.196 A 
BRANCH  15  20
ATOM     20  C   LIG    1      -38.982  75.359  24.872  0.00  0.00    +0.021 A 
ATOM     21  C   LIG    1      -39.684  76.493  25.231  0.00  0.00    +0.116 A 
ATOM     22  N   LIG    1      -38.753  77.452  25.524  0.00  0.00    -0.274 N 
ATOM     23  C   LIG    1      -39.018  78.809  25.936  0.00  0.00    +0.172 C 
ATOM     24  N   LIG    1      -37.489  77.026  25.392  0.00  0.00    -0.179 NA
ATOM     25  C   LIG    1      -37.627  75.760  24.991  0.00  0.00    +0.143 A 
ENDBRANCH  15  20
BRANCH  19  26
ATOM     26  N   LIG    1      -43.326  70.443  21.929  0.00  0.00    -0.329 N 
ATOM     27  H   LIG    1      -43.118  70.261  20.948  0.00  0.00    +0.145 HD
ATOM     28  H   LIG    1      -43.714  69.623  22.385  0.00  0.00    +0.145 HD
ENDBRANCH  19  26
ENDBRANCH   9  11
ENDBRANCH   5   9
BRANCH   2  29
ATOM     29  O   LIG    1      -35.489  68.148  22.370  0.00  0.00    -0.484 OA
BRANCH  29  30
ATOM     30  C   LIG    1      -35.009  66.897  22.876  0.00  0.00    +0.266 C 
BRANCH  30  31
ATOM     31  C   LIG    1      -34.414  66.014  21.810  0.00  0.00    +0.008 A 
ATOM     32  C   LIG    1      -34.820  64.699  21.640  0.00  0.00    +0.118 A 
ATOM     33  N   LIG    1      -34.426  63.913  20.609  0.00  0.00    -0.251 NA
ATOM     34  C   LIG    1      -33.576  64.446  19.681  0.00  0.00    +0.144 A 
ATOM     35  C   LIG    1      -33.107  65.755  19.792  0.00  0.00    +0.033 A 
ATOM     36  C   LIG    1      -33.536  66.541  20.859  0.00  0.00    +0.010 A 
BRANCH  34  37
ATOM     37  C   LIG    1      -33.159  63.599  18.484  0.00  0.00    +0.434 C 
ATOM     38  F   LIG    1      -33.189  62.259  18.739  0.00  0.00    -0.164 F 
ATOM     39  F   LIG    1      -31.899  63.872  18.040  0.00  0.00    -0.164 F 
ATOM     40  F   LIG    1      -33.970  63.771  17.394  0.00  0.00    -0.164 F 
ENDBRANCH  34  37
ENDBRANCH  30  31
ENDBRANCH  29  30
ENDBRANCH   2  29
TORSDOF 9
ENDMDL
