MODEL 1
REMARK VINA RESULT:      -6.4      0.000      0.000
REMARK  Name = pdb/CHEMBL3978342.pdb
REMARK                            x       y       z     vdW  Elec       q    Type
REMARK                         _______ _______ _______ _____ _____    ______ ____
ROOT
ATOM      1  C   LIG    1      -39.996  73.223  24.854  0.00  0.00    +0.126 A 
ATOM      2  N   LIG    1      -38.968  73.990  25.151  0.00  0.00    -0.211 NA
ATOM      3  C   LIG    1      -38.968  75.284  24.684  0.00  0.00    +0.179 A 
ATOM      4  C   LIG    1      -38.066  76.324  24.806  0.00  0.00    +0.098 A 
ATOM      5  C   LIG    1      -38.636  77.386  24.075  0.00  0.00    +0.160 A 
ATOM      6  N   LIG    1      -39.814  77.073  23.535  0.00  0.00    -0.171 NA
ATOM      7  N   LIG    1      -40.014  75.789  23.910  0.00  0.00    -0.220 N 
ATOM      8  C   LIG    1      -41.103  74.997  23.599  0.00  0.00    +0.118 A 
ATOM      9  C   LIG    1      -41.160  73.735  24.033  0.00  0.00    +0.063 A 
ENDROOT
BRANCH   1  11
ATOM     10  C   LIG    1      -38.878  70.974  25.101  0.00  0.00    +0.108 C 
ATOM     11  N   LIG    1      -40.011  71.900  25.277  0.00  0.00    -0.308 N 
ATOM     12  C   LIG    1      -41.044  71.309  26.126  0.00  0.00    +0.107 C 
ATOM     13  C   LIG    1      -40.565  69.894  26.417  0.00  0.00    +0.021 C 
ATOM     14  C   LIG    1      -39.056  70.026  26.304  0.00  0.00    +0.029 C 
BRANCH  10  18
ATOM     15  F   LIG    1      -41.147  69.625  20.934  0.00  0.00    -0.205 F 
ATOM     16  C   LIG    1      -40.045  69.615  21.695  0.00  0.00    +0.124 A 
ATOM     17  C   LIG    1      -40.064  70.249  22.935  0.00  0.00    +0.046 A 
ATOM     18  C   LIG    1      -38.922  70.260  23.756  0.00  0.00    +0.011 A 
ATOM     19  C   LIG    1      -37.773  69.622  23.266  0.00  0.00    +0.129 A 
ATOM     20  F   LIG    1      -36.645  69.624  23.990  0.00  0.00    -0.205 F 
ATOM     21  C   LIG    1      -37.758  68.977  22.026  0.00  0.00    +0.041 A 
ATOM     22  C   LIG    1      -38.903  68.975  21.234  0.00  0.00    +0.041 A 
ENDBRANCH  10  18
ENDBRANCH   1  11
BRANCH   4  23
ATOM     23  N   LIG    1      -36.875  76.264  25.508  0.00  0.00    -0.276 N 
ATOM     24  H   LIG    1      -36.073  75.842  25.040  0.00  0.00    +0.155 HD
ATOM     25  C   LIG    1      -36.715  76.734  26.795  0.00  0.00    +0.267 C 
ATOM     26  O   LIG    1      -37.589  77.264  27.483  0.00  0.00    -0.268 OA
BRANCH  25  27
ATOM     27  C   LIG    1      -35.343  76.562  27.363  0.00  0.00    +0.126 A 
ATOM     28  N   LIG    1      -34.546  77.670  27.392  0.00  0.00    -0.249 NA
ATOM     29  C   LIG    1      -33.304  77.492  27.914  0.00  0.00    +0.131 A 
ATOM     30  C   LIG    1      -32.827  76.283  28.403  0.00  0.00    +0.059 A 
ATOM     31 CL   LIG    1      -31.243  76.154  29.049  0.00  0.00    -0.082 Cl
ATOM     32  C   LIG    1      -33.664  75.173  28.359  0.00  0.00    +0.024 A 
ATOM     33  C   LIG    1      -34.944  75.314  27.831  0.00  0.00    +0.034 A 
ENDBRANCH  25  27
ENDBRANCH   4  23
TORSDOF 4
ENDMDL
MODEL 2
REMARK VINA RESULT:      -6.4     17.034     19.620
REMARK  Name = pdb/CHEMBL3978342.pdb
REMARK                            x       y       z     vdW  Elec       q    Type
REMARK                         _______ _______ _______ _____ _____    ______ ____
ROOT
ATOM      1  C   LIG    1      -20.240  77.686  15.514  0.00  0.00    +0.126 A 
ATOM      2  N   LIG    1      -21.472  77.951  15.131  0.00  0.00    -0.211 NA
ATOM      3  C   LIG    1      -21.992  79.188  15.430  0.00  0.00    +0.179 A 
ATOM      4  C   LIG    1      -23.220  79.773  15.186  0.00  0.00    +0.098 A 
ATOM      5  C   LIG    1      -23.137  81.052  15.772  0.00  0.00    +0.160 A 
ATOM      6  N   LIG    1      -21.953  81.290  16.336  0.00  0.00    -0.171 NA
ATOM      7  N   LIG    1      -21.255  80.150  16.124  0.00  0.00    -0.220 N 
ATOM      8  C   LIG    1      -19.958  79.888  16.524  0.00  0.00    +0.118 A 
ATOM      9  C   LIG    1      -19.400  78.705  16.252  0.00  0.00    +0.063 A 
ENDROOT
BRANCH   1  11
ATOM     10  C   LIG    1      -20.497  75.263  14.856  0.00  0.00    +0.108 C 
ATOM     11  N   LIG    1      -19.697  76.433  15.261  0.00  0.00    -0.308 N 
ATOM     12  C   LIG    1      -18.266  76.151  15.156  0.00  0.00    +0.107 C 
ATOM     13  C   LIG    1      -18.173  74.687  14.752  0.00  0.00    +0.021 C 
ATOM     14  C   LIG    1      -19.482  74.463  14.015  0.00  0.00    +0.029 C 
BRANCH  10  18
ATOM     15  F   LIG    1      -19.916  72.432  18.853  0.00  0.00    -0.205 F 
ATOM     16  C   LIG    1      -20.734  73.107  18.036  0.00  0.00    +0.124 A 
ATOM     17  C   LIG    1      -20.203  73.768  16.931  0.00  0.00    +0.046 A 
ATOM     18  C   LIG    1      -21.033  74.490  16.054  0.00  0.00    +0.011 A 
ATOM     19  C   LIG    1      -22.403  74.523  16.352  0.00  0.00    +0.129 A 
ATOM     20  F   LIG    1      -23.242  75.219  15.570  0.00  0.00    -0.205 F 
ATOM     21  C   LIG    1      -22.937  73.852  17.455  0.00  0.00    +0.041 A 
ATOM     22  C   LIG    1      -22.095  73.140  18.305  0.00  0.00    +0.041 A 
ENDBRANCH  10  18
ENDBRANCH   1  11
BRANCH   4  23
ATOM     23  N   LIG    1      -24.266  79.170  14.508  0.00  0.00    -0.276 N 
ATOM     24  H   LIG    1      -24.199  79.114  13.492  0.00  0.00    +0.155 HD
ATOM     25  C   LIG    1      -25.384  78.649  15.125  0.00  0.00    +0.267 C 
ATOM     26  O   LIG    1      -25.602  78.645  16.338  0.00  0.00    -0.268 OA
BRANCH  25  27
ATOM     27  C   LIG    1      -26.392  78.048  14.201  0.00  0.00    +0.126 A 
ATOM     28  N   LIG    1      -26.940  76.856  14.579  0.00  0.00    -0.249 NA
ATOM     29  C   LIG    1      -27.856  76.328  13.725  0.00  0.00    +0.131 A 
ATOM     30  C   LIG    1      -28.247  76.923  12.532  0.00  0.00    +0.059 A 
ATOM     31 CL   LIG    1      -29.416  76.182  11.518  0.00  0.00    -0.082 Cl
ATOM     32  C   LIG    1      -27.670  78.137  12.175  0.00  0.00    +0.024 A 
ATOM     33  C   LIG    1      -26.727  78.710  13.024  0.00  0.00    +0.034 A 
ENDBRANCH  25  27
ENDBRANCH   4  23
TORSDOF 4
ENDMDL
MODEL 3
REMARK VINA RESULT:      -6.4     17.890     19.915
REMARK  Name = pdb/CHEMBL3978342.pdb
REMARK                            x       y       z     vdW  Elec       q    Type
REMARK                         _______ _______ _______ _____ _____    ______ ____
ROOT
ATOM      1  C   LIG    1      -33.435  92.430  20.110  0.00  0.00    +0.126 A 
ATOM      2  N   LIG    1      -33.258  92.718  21.383  0.00  0.00    -0.211 NA
ATOM      3  C   LIG    1      -32.173  93.489  21.728  0.00  0.00    +0.179 A 
ATOM      4  C   LIG    1      -31.705  93.958  22.941  0.00  0.00    +0.098 A 
ATOM      5  C   LIG    1      -30.530  94.671  22.626  0.00  0.00    +0.160 A 
ATOM      6  N   LIG    1      -30.262  94.681  21.320  0.00  0.00    -0.171 NA
ATOM      7  N   LIG    1      -31.268  93.960  20.775  0.00  0.00    -0.220 N 
ATOM      8  C   LIG    1      -31.448  93.673  19.434  0.00  0.00    +0.118 A 
ATOM      9  C   LIG    1      -32.489  92.934  19.041  0.00  0.00    +0.063 A 
ENDROOT
BRANCH   1  11
ATOM     10  C   LIG    1      -34.335  90.280  19.145  0.00  0.00    +0.108 C 
ATOM     11  N   LIG    1      -34.499  91.622  19.730  0.00  0.00    -0.308 N 
ATOM     12  C   LIG    1      -35.902  91.891  20.042  0.00  0.00    +0.107 C 
ATOM     13  C   LIG    1      -36.666  90.677  19.533  0.00  0.00    +0.021 C 
ATOM     14  C   LIG    1      -35.626  89.574  19.609  0.00  0.00    +0.029 C 
BRANCH  10  18
ATOM     15  F   LIG    1      -34.835  92.485  14.761  0.00  0.00    -0.205 F 
ATOM     16  C   LIG    1      -34.417  91.431  15.474  0.00  0.00    +0.124 A 
ATOM     17  C   LIG    1      -34.613  91.416  16.853  0.00  0.00    +0.046 A 
ATOM     18  C   LIG    1      -34.182  90.326  17.630  0.00  0.00    +0.011 A 
ATOM     19  C   LIG    1      -33.541  89.274  16.960  0.00  0.00    +0.129 A 
ATOM     20  F   LIG    1      -33.081  88.221  17.651  0.00  0.00    -0.205 F 
ATOM     21  C   LIG    1      -33.353  89.285  15.575  0.00  0.00    +0.041 A 
ATOM     22  C   LIG    1      -33.794  90.373  14.827  0.00  0.00    +0.041 A 
ENDBRANCH  10  18
ENDBRANCH   1  11
BRANCH   4  23
ATOM     23  N   LIG    1      -32.308  93.732  24.166  0.00  0.00    -0.276 N 
ATOM     24  H   LIG    1      -32.961  94.438  24.507  0.00  0.00    +0.155 HD
ATOM     25  C   LIG    1      -32.074  92.619  24.945  0.00  0.00    +0.267 C 
ATOM     26  O   LIG    1      -31.315  91.689  24.666  0.00  0.00    -0.268 OA
BRANCH  25  27
ATOM     27  C   LIG    1      -32.829  92.581  26.234  0.00  0.00    +0.126 A 
ATOM     28  N   LIG    1      -32.683  91.460  27.000  0.00  0.00    -0.249 NA
ATOM     29  C   LIG    1      -33.377  91.447  28.169  0.00  0.00    +0.131 A 
ATOM     30  C   LIG    1      -34.196  92.482  28.604  0.00  0.00    +0.059 A 
ATOM     31 CL   LIG    1      -35.032  92.378  30.098  0.00  0.00    -0.082 Cl
ATOM     32  C   LIG    1      -34.324  93.609  27.800  0.00  0.00    +0.024 A 
ATOM     33  C   LIG    1      -33.629  93.661  26.595  0.00  0.00    +0.034 A 
ENDBRANCH  25  27
ENDBRANCH   4  23
TORSDOF 4
ENDMDL
MODEL 4
REMARK VINA RESULT:      -6.4     13.752     19.525
REMARK  Name = pdb/CHEMBL3978342.pdb
REMARK                            x       y       z     vdW  Elec       q    Type
REMARK                         _______ _______ _______ _____ _____    ______ ____
ROOT
ATOM      1  C   LIG    1      -19.993  77.640  32.759  0.00  0.00    +0.126 A 
ATOM      2  N   LIG    1      -21.272  77.394  32.567  0.00  0.00    -0.211 NA
ATOM      3  C   LIG    1      -21.683  77.046  31.302  0.00  0.00    +0.179 A 
ATOM      4  C   LIG    1      -22.920  76.735  30.770  0.00  0.00    +0.098 A 
ATOM      5  C   LIG    1      -22.678  76.495  29.403  0.00  0.00    +0.160 A 
ATOM      6  N   LIG    1      -21.393  76.622  29.072  0.00  0.00    -0.171 NA
ATOM      7  N   LIG    1      -20.788  76.956  30.234  0.00  0.00    -0.220 N 
ATOM      8  C   LIG    1      -19.441  77.204  30.424  0.00  0.00    +0.118 A 
ATOM      9  C   LIG    1      -18.985  77.537  31.634  0.00  0.00    +0.063 A 
ENDROOT
BRANCH   1  11
ATOM     10  C   LIG    1      -20.404  78.040  35.216  0.00  0.00    +0.108 C 
ATOM     11  N   LIG    1      -19.549  78.030  34.016  0.00  0.00    -0.308 N 
ATOM     12  C   LIG    1      -18.151  78.279  34.366  0.00  0.00    +0.107 C 
ATOM     13  C   LIG    1      -18.154  78.553  35.863  0.00  0.00    +0.021 C 
ATOM     14  C   LIG    1      -19.376  77.787  36.337  0.00  0.00    +0.029 C 
BRANCH  10  18
ATOM     15  F   LIG    1      -20.637  82.860  36.241  0.00  0.00    -0.205 F 
ATOM     16  C   LIG    1      -21.260  81.736  35.864  0.00  0.00    +0.124 A 
ATOM     17  C   LIG    1      -20.536  80.550  35.771  0.00  0.00    +0.046 A 
ATOM     18  C   LIG    1      -21.159  79.354  35.374  0.00  0.00    +0.011 A 
ATOM     19  C   LIG    1      -22.527  79.415  35.066  0.00  0.00    +0.129 A 
ATOM     20  F   LIG    1      -23.170  78.314  34.654  0.00  0.00    -0.205 F 
ATOM     21  C   LIG    1      -23.255  80.603  35.169  0.00  0.00    +0.041 A 
ATOM     22  C   LIG    1      -22.616  81.773  35.570  0.00  0.00    +0.041 A 
ENDBRANCH  10  18
ENDBRANCH   1  11
BRANCH   4  23
ATOM     23  N   LIG    1      -24.104  76.694  31.487  0.00  0.00    -0.276 N 
ATOM     24  H   LIG    1      -24.144  76.073  32.294  0.00  0.00    +0.155 HD
ATOM     25  C   LIG    1      -25.222  77.436  31.168  0.00  0.00    +0.267 C 
ATOM     26  O   LIG    1      -25.320  78.224  30.226  0.00  0.00    -0.268 OA
BRANCH  25  27
ATOM     27  C   LIG    1      -26.393  77.233  32.074  0.00  0.00    +0.126 A 
ATOM     28  N   LIG    1      -27.629  77.245  31.495  0.00  0.00    -0.249 NA
ATOM     29  C   LIG    1      -28.679  77.057  32.337  0.00  0.00    +0.131 A 
ATOM     30  C   LIG    1      -28.558  76.859  33.706  0.00  0.00    +0.059 A 
ATOM     31 CL   LIG    1      -29.943  76.627  34.691  0.00  0.00    -0.082 Cl
ATOM     32  C   LIG    1      -27.285  76.853  34.266  0.00  0.00    +0.024 A 
ATOM     33  C   LIG    1      -26.183  77.042  33.436  0.00  0.00    +0.034 A 
ENDBRANCH  25  27
ENDBRANCH   4  23
TORSDOF 4
ENDMDL
MODEL 5
REMARK VINA RESULT:      -6.3     21.434     24.530
REMARK  Name = pdb/CHEMBL3978342.pdb
REMARK                            x       y       z     vdW  Elec       q    Type
REMARK                         _______ _______ _______ _____ _____    ______ ____
ROOT
ATOM      1  C   LIG    1      -22.899  87.925  11.621  0.00  0.00    +0.126 A 
ATOM      2  N   LIG    1      -22.599  86.840  12.305  0.00  0.00    -0.211 NA
ATOM      3  C   LIG    1      -21.365  86.773  12.908  0.00  0.00    +0.179 A 
ATOM      4  C   LIG    1      -20.748  85.803  13.674  0.00  0.00    +0.098 A 
ATOM      5  C   LIG    1      -19.473  86.328  13.967  0.00  0.00    +0.160 A 
ATOM      6  N   LIG    1      -19.279  87.542  13.451  0.00  0.00    -0.171 NA
ATOM      7  N   LIG    1      -20.437  87.812  12.806  0.00  0.00    -0.220 N 
ATOM      8  C   LIG    1      -20.742  88.959  12.099  0.00  0.00    +0.118 A 
ATOM      9  C   LIG    1      -21.929  89.082  11.500  0.00  0.00    +0.063 A 
ENDROOT
BRANCH   1  11
ATOM     10  C   LIG    1      -24.436  89.035   9.957  0.00  0.00    +0.108 C 
ATOM     11  N   LIG    1      -24.121  88.010  10.968  0.00  0.00    -0.308 N 
ATOM     12  C   LIG    1      -25.172  86.995  11.031  0.00  0.00    +0.107 C 
ATOM     13  C   LIG    1      -26.249  87.471  10.066  0.00  0.00    +0.021 C 
ATOM     14  C   LIG    1      -25.458  88.296   9.068  0.00  0.00    +0.029 C 
BRANCH  10  18
ATOM     15  F   LIG    1      -26.283  91.613  13.735  0.00  0.00    -0.205 F 
ATOM     16  C   LIG    1      -25.883  91.578  12.458  0.00  0.00    +0.124 A 
ATOM     17  C   LIG    1      -25.421  90.380  11.919  0.00  0.00    +0.046 A 
ATOM     18  C   LIG    1      -24.989  90.310  10.582  0.00  0.00    +0.011 A 
ATOM     19  C   LIG    1      -25.032  91.494   9.832  0.00  0.00    +0.129 A 
ATOM     20  F   LIG    1      -24.606  91.498   8.560  0.00  0.00    -0.205 F 
ATOM     21  C   LIG    1      -25.504  92.694  10.371  0.00  0.00    +0.041 A 
ATOM     22  C   LIG    1      -25.932  92.736  11.695  0.00  0.00    +0.041 A 
ENDBRANCH  10  18
ENDBRANCH   1  11
BRANCH   4  23
ATOM     23  N   LIG    1      -21.318  84.594  14.034  0.00  0.00    -0.276 N 
ATOM     24  H   LIG    1      -21.044  83.768  13.503  0.00  0.00    +0.155 HD
ATOM     25  C   LIG    1      -22.230  84.448  15.058  0.00  0.00    +0.267 C 
ATOM     26  O   LIG    1      -22.654  85.351  15.781  0.00  0.00    -0.268 OA
BRANCH  25  27
ATOM     27  C   LIG    1      -22.721  83.053  15.271  0.00  0.00    +0.126 A 
ATOM     28  N   LIG    1      -23.582  82.554  14.337  0.00  0.00    -0.249 NA
ATOM     29  C   LIG    1      -24.014  81.283  14.549  0.00  0.00    +0.131 A 
ATOM     30  C   LIG    1      -23.635  80.498  15.631  0.00  0.00    +0.059 A 
ATOM     31 CL   LIG    1      -24.231  78.900  15.815  0.00  0.00    -0.082 Cl
ATOM     32  C   LIG    1      -22.758  81.036  16.566  0.00  0.00    +0.024 A 
ATOM     33  C   LIG    1      -22.292  82.335  16.383  0.00  0.00    +0.034 A 
ENDBRANCH  25  27
ENDBRANCH   4  23
TORSDOF 4
ENDMDL
MODEL 6
REMARK VINA RESULT:      -6.3      4.753      7.135
REMARK  Name = pdb/CHEMBL3978342.pdb
REMARK                            x       y       z     vdW  Elec       q    Type
REMARK                         _______ _______ _______ _____ _____    ______ ____
ROOT
ATOM      1  C   LIG    1      -38.874  69.052  23.195  0.00  0.00    +0.126 A 
ATOM      2  N   LIG    1      -37.799  68.661  23.848  0.00  0.00    -0.211 NA
ATOM      3  C   LIG    1      -36.750  68.148  23.122  0.00  0.00    +0.179 A 
ATOM      4  C   LIG    1      -35.512  67.654  23.486  0.00  0.00    +0.098 A 
ATOM      5  C   LIG    1      -34.909  67.256  22.275  0.00  0.00    +0.160 A 
ATOM      6  N   LIG    1      -35.680  67.483  21.211  0.00  0.00    -0.171 NA
ATOM      7  N   LIG    1      -36.803  68.029  21.732  0.00  0.00    -0.220 N 
ATOM      8  C   LIG    1      -37.921  68.444  21.033  0.00  0.00    +0.118 A 
ATOM      9  C   LIG    1      -38.967  68.958  21.687  0.00  0.00    +0.063 A 
ENDROOT
BRANCH   1  11
ATOM     10  C   LIG    1      -40.817  70.645  23.423  0.00  0.00    +0.108 C 
ATOM     11  N   LIG    1      -39.967  69.540  23.899  0.00  0.00    -0.308 N 
ATOM     12  C   LIG    1      -40.546  68.906  25.083  0.00  0.00    +0.107 C 
ATOM     13  C   LIG    1      -41.782  69.728  25.416  0.00  0.00    +0.021 C 
ATOM     14  C   LIG    1      -42.176  70.296  24.064  0.00  0.00    +0.029 C 
BRANCH  10  18
ATOM     15  F   LIG    1      -37.426  73.560  25.506  0.00  0.00    -0.205 F 
ATOM     16  C   LIG    1      -38.593  73.438  24.860  0.00  0.00    +0.124 A 
ATOM     17  C   LIG    1      -39.062  72.169  24.528  0.00  0.00    +0.046 A 
ATOM     18  C   LIG    1      -40.281  72.007  23.845  0.00  0.00    +0.011 A 
ATOM     19  C   LIG    1      -40.986  73.172  23.507  0.00  0.00    +0.129 A 
ATOM     20  F   LIG    1      -42.140  73.083  22.830  0.00  0.00    -0.205 F 
ATOM     21  C   LIG    1      -40.519  74.444  23.848  0.00  0.00    +0.041 A 
ATOM     22  C   LIG    1      -39.312  74.578  24.529  0.00  0.00    +0.041 A 
ENDBRANCH  10  18
ENDBRANCH   1  11
BRANCH   4  23
ATOM     23  N   LIG    1      -35.032  67.590  24.783  0.00  0.00    -0.276 N 
ATOM     24  H   LIG    1      -35.169  66.717  25.293  0.00  0.00    +0.155 HD
ATOM     25  C   LIG    1      -34.391  68.632  25.419  0.00  0.00    +0.267 C 
ATOM     26  O   LIG    1      -34.157  69.740  24.932  0.00  0.00    -0.268 OA
BRANCH  25  27
ATOM     27  C   LIG    1      -33.961  68.346  26.821  0.00  0.00    +0.126 A 
ATOM     28  N   LIG    1      -34.124  67.067  27.267  0.00  0.00    -0.249 NA
ATOM     29  C   LIG    1      -33.725  66.828  28.544  0.00  0.00    +0.131 A 
ATOM     30  C   LIG    1      -33.178  67.790  29.384  0.00  0.00    +0.059 A 
ATOM     31 CL   LIG    1      -32.699  67.396  30.983  0.00  0.00    -0.082 Cl
ATOM     32  C   LIG    1      -33.026  69.085  28.901  0.00  0.00    +0.024 A 
ATOM     33  C   LIG    1      -33.423  69.368  27.597  0.00  0.00    +0.034 A 
ENDBRANCH  25  27
ENDBRANCH   4  23
TORSDOF 4
ENDMDL
MODEL 7
REMARK VINA RESULT:      -6.3      4.151      6.943
REMARK  Name = pdb/CHEMBL3978342.pdb
REMARK                            x       y       z     vdW  Elec       q    Type
REMARK                         _______ _______ _______ _____ _____    ______ ____
ROOT
ATOM      1  C   LIG    1      -33.481  73.735  29.406  0.00  0.00    +0.126 A 
ATOM      2  N   LIG    1      -34.152  74.456  28.532  0.00  0.00    -0.211 NA
ATOM      3  C   LIG    1      -33.613  75.658  28.134  0.00  0.00    +0.179 A 
ATOM      4  C   LIG    1      -34.048  76.635  27.259  0.00  0.00    +0.098 A 
ATOM      5  C   LIG    1      -33.056  77.635  27.309  0.00  0.00    +0.160 A 
ATOM      6  N   LIG    1      -32.052  77.331  28.132  0.00  0.00    -0.171 NA
ATOM      7  N   LIG    1      -32.395  76.122  28.633  0.00  0.00    -0.220 N 
ATOM      8  C   LIG    1      -31.677  75.370  29.544  0.00  0.00    +0.118 A 
ATOM      9  C   LIG    1      -32.148  74.192  29.960  0.00  0.00    +0.063 A 
ENDROOT
BRANCH   1  11
ATOM     10  C   LIG    1      -33.394  71.221  29.606  0.00  0.00    +0.108 C 
ATOM     11  N   LIG    1      -34.013  72.535  29.859  0.00  0.00    -0.308 N 
ATOM     12  C   LIG    1      -35.119  72.419  30.808  0.00  0.00    +0.107 C 
ATOM     13  C   LIG    1      -35.255  70.929  31.087  0.00  0.00    +0.021 C 
ATOM     14  C   LIG    1      -33.847  70.416  30.841  0.00  0.00    +0.029 C 
BRANCH  10  18
ATOM     15  F   LIG    1      -36.031  71.291  25.437  0.00  0.00    -0.205 F 
ATOM     16  C   LIG    1      -35.145  70.666  26.223  0.00  0.00    +0.124 A 
ATOM     17  C   LIG    1      -34.784  71.242  27.439  0.00  0.00    +0.046 A 
ATOM     18  C   LIG    1      -33.853  70.614  28.286  0.00  0.00    +0.011 A 
ATOM     19  C   LIG    1      -33.302  69.401  27.845  0.00  0.00    +0.129 A 
ATOM     20  F   LIG    1      -32.388  68.769  28.596  0.00  0.00    -0.205 F 
ATOM     21  C   LIG    1      -33.672  68.820  26.630  0.00  0.00    +0.041 A 
ATOM     22  C   LIG    1      -34.599  69.458  25.812  0.00  0.00    +0.041 A 
ENDBRANCH  10  18
ENDBRANCH   1  11
BRANCH   4  23
ATOM     23  N   LIG    1      -35.222  76.580  26.527  0.00  0.00    -0.276 N 
ATOM     24  H   LIG    1      -35.150  76.333  25.540  0.00  0.00    +0.155 HD
ATOM     25  C   LIG    1      -36.469  76.844  27.052  0.00  0.00    +0.267 C 
ATOM     26  O   LIG    1      -36.708  77.155  28.220  0.00  0.00    -0.268 OA
BRANCH  25  27
ATOM     27  C   LIG    1      -37.599  76.731  26.082  0.00  0.00    +0.126 A 
ATOM     28  N   LIG    1      -38.238  77.889  25.743  0.00  0.00    -0.249 NA
ATOM     29  C   LIG    1      -39.262  77.764  24.858  0.00  0.00    +0.131 A 
ATOM     30  C   LIG    1      -39.672  76.559  24.302  0.00  0.00    +0.059 A 
ATOM     31 CL   LIG    1      -40.975  76.498  23.188  0.00  0.00    -0.082 Cl
ATOM     32  C   LIG    1      -39.001  75.397  24.667  0.00  0.00    +0.024 A 
ATOM     33  C   LIG    1      -37.946  75.484  25.572  0.00  0.00    +0.034 A 
ENDBRANCH  25  27
ENDBRANCH   4  23
TORSDOF 4
ENDMDL
MODEL 8
REMARK VINA RESULT:      -6.3      4.725      8.935
REMARK  Name = pdb/CHEMBL3978342.pdb
REMARK                            x       y       z     vdW  Elec       q    Type
REMARK                         _______ _______ _______ _____ _____    ______ ____
ROOT
ATOM      1  C   LIG    1      -36.850  79.731  27.920  0.00  0.00    +0.126 A 
ATOM      2  N   LIG    1      -37.022  78.520  27.434  0.00  0.00    -0.211 NA
ATOM      3  C   LIG    1      -35.960  77.648  27.475  0.00  0.00    +0.179 A 
ATOM      4  C   LIG    1      -35.804  76.340  27.057  0.00  0.00    +0.098 A 
ATOM      5  C   LIG    1      -34.465  76.019  27.356  0.00  0.00    +0.160 A 
ATOM      6  N   LIG    1      -33.807  77.023  27.935  0.00  0.00    -0.171 NA
ATOM      7  N   LIG    1      -34.723  78.016  28.007  0.00  0.00    -0.220 N 
ATOM      8  C   LIG    1      -34.532  79.281  28.530  0.00  0.00    +0.118 A 
ATOM      9  C   LIG    1      -35.531  80.167  28.523  0.00  0.00    +0.063 A 
ENDROOT
BRANCH   1  11
ATOM     10  C   LIG    1      -39.234  80.328  27.350  0.00  0.00    +0.108 C 
ATOM     11  N   LIG    1      -37.890  80.650  27.861  0.00  0.00    -0.308 N 
ATOM     12  C   LIG    1      -37.867  81.976  28.476  0.00  0.00    +0.107 C 
ATOM     13  C   LIG    1      -39.258  82.549  28.250  0.00  0.00    +0.021 C 
ATOM     14  C   LIG    1      -40.119  81.302  28.156  0.00  0.00    +0.029 C 
BRANCH  10  18
ATOM     15  F   LIG    1      -38.950  83.068  23.259  0.00  0.00    -0.205 F 
ATOM     16  C   LIG    1      -39.178  81.878  23.828  0.00  0.00    +0.124 A 
ATOM     17  C   LIG    1      -39.109  81.758  25.214  0.00  0.00    +0.046 A 
ATOM     18  C   LIG    1      -39.339  80.521  25.843  0.00  0.00    +0.011 A 
ATOM     19  C   LIG    1      -39.625  79.425  25.016  0.00  0.00    +0.129 A 
ATOM     20  F   LIG    1      -39.825  78.213  25.555  0.00  0.00    -0.205 F 
ATOM     21  C   LIG    1      -39.704  79.548  23.626  0.00  0.00    +0.041 A 
ATOM     22  C   LIG    1      -39.477  80.784  23.028  0.00  0.00    +0.041 A 
ENDBRANCH  10  18
ENDBRANCH   1  11
BRANCH   4  23
ATOM     23  N   LIG    1      -36.795  75.571  26.470  0.00  0.00    -0.276 N 
ATOM     24  H   LIG    1      -37.120  74.751  26.982  0.00  0.00    +0.155 HD
ATOM     25  C   LIG    1      -37.357  75.847  25.241  0.00  0.00    +0.267 C 
ATOM     26  O   LIG    1      -37.065  76.796  24.512  0.00  0.00    -0.268 OA
BRANCH  25  27
ATOM     27  C   LIG    1      -38.407  74.882  24.796  0.00  0.00    +0.126 A 
ATOM     28  N   LIG    1      -39.571  75.414  24.322  0.00  0.00    -0.249 NA
ATOM     29  C   LIG    1      -40.512  74.518  23.921  0.00  0.00    +0.131 A 
ATOM     30  C   LIG    1      -40.349  73.140  23.968  0.00  0.00    +0.059 A 
ATOM     31 CL   LIG    1      -41.593  72.085  23.436  0.00  0.00    -0.082 Cl
ATOM     32  C   LIG    1      -39.152  72.629  24.457  0.00  0.00    +0.024 A 
ATOM     33  C   LIG    1      -38.163  73.514  24.877  0.00  0.00    +0.034 A 
ENDBRANCH  25  27
ENDBRANCH   4  23
TORSDOF 4
ENDMDL
MODEL 9
REMARK VINA RESULT:      -6.2      4.217      6.922
REMARK  Name = pdb/CHEMBL3978342.pdb
REMARK                            x       y       z     vdW  Elec       q    Type
REMARK                         _______ _______ _______ _____ _____    ______ ____
ROOT
ATOM      1  C   LIG    1      -41.911  72.646  23.008  0.00  0.00    +0.126 A 
ATOM      2  N   LIG    1      -40.963  71.790  23.329  0.00  0.00    -0.211 NA
ATOM      3  C   LIG    1      -40.784  70.688  22.526  0.00  0.00    +0.179 A 
ATOM      4  C   LIG    1      -39.907  69.622  22.579  0.00  0.00    +0.098 A 
ATOM      5  C   LIG    1      -40.251  68.812  21.478  0.00  0.00    +0.160 A 
ATOM      6  N   LIG    1      -41.255  69.313  20.758  0.00  0.00    -0.171 NA
ATOM      7  N   LIG    1      -41.577  70.460  21.399  0.00  0.00    -0.220 N 
ATOM      8  C   LIG    1      -42.570  71.355  21.046  0.00  0.00    +0.118 A 
ATOM      9  C   LIG    1      -42.782  72.446  21.786  0.00  0.00    +0.063 A 
ENDROOT
BRANCH   1  11
ATOM     10  C   LIG    1      -41.687  75.112  23.492  0.00  0.00    +0.108 C 
ATOM     11  N   LIG    1      -42.145  73.749  23.818  0.00  0.00    -0.308 N 
ATOM     12  C   LIG    1      -43.038  73.759  24.976  0.00  0.00    +0.107 C 
ATOM     13  C   LIG    1      -43.060  75.203  25.454  0.00  0.00    +0.021 C 
ATOM     14  C   LIG    1      -42.760  75.978  24.183  0.00  0.00    +0.029 C 
BRANCH  10  18
ATOM     15  F   LIG    1      -37.490  73.741  25.690  0.00  0.00    -0.205 F 
ATOM     16  C   LIG    1      -38.201  74.689  25.067  0.00  0.00    +0.124 A 
ATOM     17  C   LIG    1      -39.503  74.409  24.657  0.00  0.00    +0.046 A 
ATOM     18  C   LIG    1      -40.275  75.381  23.997  0.00  0.00    +0.011 A 
ATOM     19  C   LIG    1      -39.674  76.626  23.760  0.00  0.00    +0.129 A 
ATOM     20  F   LIG    1      -40.350  77.583  23.108  0.00  0.00    -0.205 F 
ATOM     21  C   LIG    1      -38.371  76.909  24.179  0.00  0.00    +0.041 A 
ATOM     22  C   LIG    1      -37.629  75.932  24.837  0.00  0.00    +0.041 A 
ENDBRANCH  10  18
ENDBRANCH   1  11
BRANCH   4  23
ATOM     23  N   LIG    1      -38.928  69.448  23.542  0.00  0.00    -0.276 N 
ATOM     24  H   LIG    1      -39.231  69.357  24.512  0.00  0.00    +0.155 HD
ATOM     25  C   LIG    1      -37.578  69.395  23.266  0.00  0.00    +0.267 C 
ATOM     26  O   LIG    1      -37.066  69.490  22.149  0.00  0.00    -0.268 OA
BRANCH  25  27
ATOM     27  C   LIG    1      -36.696  69.205  24.458  0.00  0.00    +0.126 A 
ATOM     28  N   LIG    1      -35.400  68.855  24.215  0.00  0.00    -0.249 NA
ATOM     29  C   LIG    1      -34.615  68.689  25.313  0.00  0.00    +0.131 A 
ATOM     30  C   LIG    1      -35.055  68.855  26.620  0.00  0.00    +0.059 A 
ATOM     31 CL   LIG    1      -33.990  68.627  27.945  0.00  0.00    -0.082 Cl
ATOM     32  C   LIG    1      -36.382  69.211  26.834  0.00  0.00    +0.024 A 
ATOM     33  C   LIG    1      -37.217  69.391  25.734  0.00  0.00    +0.034 A 
ENDBRANCH  25  27
ENDBRANCH   4  23
TORSDOF 4
ENDMDL
