MODEL 1
REMARK VINA RESULT:      -6.9      0.000      0.000
REMARK  Name = pdb/CHEMBL3896203.pdb
REMARK                            x       y       z     vdW  Elec       q    Type
REMARK                         _______ _______ _______ _____ _____    ______ ____
ROOT
ATOM      1  C   LIG    1      -35.093  80.446  28.659  0.00  0.00    +0.105 A 
ATOM      2  C   LIG    1      -35.594  81.448  27.848  0.00  0.00    +0.145 A 
ATOM      3  N   LIG    1      -35.664  82.750  28.203  0.00  0.00    -0.201 NA
ATOM      4  C   LIG    1      -35.243  83.044  29.449  0.00  0.00    +0.323 A 
ATOM      5  N   LIG    1      -34.654  82.183  30.290  0.00  0.00    -0.201 NA
ATOM      6  C   LIG    1      -34.553  80.915  29.842  0.00  0.00    +0.145 A 
ENDROOT
BRANCH   1   8
ATOM      7  C   LIG    1      -34.174  78.652  27.371  0.00  0.00    +0.285 C 
ATOM      8  N   LIG    1      -35.028  79.123  28.216  0.00  0.00    -0.196 NA
BRANCH   7   9
ATOM      9  O   LIG    1      -33.100  79.337  26.937  0.00  0.00    -0.481 OA
ATOM     10  H   LIG    1      -32.883  79.133  26.017  0.00  0.00    +0.295 HD
ENDBRANCH   7   9
BRANCH   7  11
ATOM     11  N   LIG    1      -34.161  77.432  26.774  0.00  0.00    -0.267 N 
ATOM     12  H   LIG    1      -34.115  77.492  25.764  0.00  0.00    +0.157 HD
BRANCH  11  13
ATOM     13  C   LIG    1      -34.603  76.189  27.278  0.00  0.00    +0.061 A 
ATOM     14  C   LIG    1      -35.926  75.727  27.095  0.00  0.00    +0.092 A 
ATOM     15  N   LIG    1      -36.350  74.542  27.632  0.00  0.00    -0.253 NA
ATOM     16  C   LIG    1      -35.470  73.766  28.304  0.00  0.00    +0.124 A 
ATOM     17  C   LIG    1      -34.142  74.083  28.464  0.00  0.00    +0.075 A 
ATOM     18  C   LIG    1      -33.722  75.304  27.930  0.00  0.00    +0.039 A 
BRANCH  14  19
ATOM     19  C   LIG    1      -37.000  76.440  26.341  0.00  0.00    +0.002 A 
ATOM     20  C   LIG    1      -37.344  76.150  25.007  0.00  0.00    +0.010 A 
ATOM     21  C   LIG    1      -38.356  76.859  24.340  0.00  0.00    +0.001 A 
ATOM     22  C   LIG    1      -39.081  77.844  25.003  0.00  0.00    +0.000 A 
ATOM     23  C   LIG    1      -38.800  78.120  26.336  0.00  0.00    +0.001 A 
ATOM     24  C   LIG    1      -37.771  77.432  26.987  0.00  0.00    +0.010 A 
ENDBRANCH  14  19
BRANCH  17  25
ATOM     25  C   LIG    1      -33.204  73.159  29.186  0.00  0.00    +0.419 C 
ATOM     26  F   LIG    1      -33.261  71.883  28.721  0.00  0.00    -0.166 F 
ATOM     27  F   LIG    1      -33.459  73.092  30.520  0.00  0.00    -0.166 F 
ATOM     28  F   LIG    1      -31.901  73.542  29.073  0.00  0.00    -0.166 F 
ENDBRANCH  17  25
ENDBRANCH  11  13
ENDBRANCH   7  11
ENDBRANCH   1   8
BRANCH   4  29
ATOM     29  O   LIG    1      -35.444  84.323  29.953  0.00  0.00    -0.424 OA
BRANCH  29  30
ATOM     30  C   LIG    1      -34.341  84.963  30.465  0.00  0.00    +0.132 A 
ATOM     31  C   LIG    1      -34.235  85.339  31.805  0.00  0.00    +0.047 A 
ATOM     32  C   LIG    1      -33.113  86.029  32.250  0.00  0.00    +0.012 A 
ATOM     33  C   LIG    1      -32.043  86.302  31.386  0.00  0.00    -0.010 A 
ATOM     34  C   LIG    1      -32.136  85.867  30.054  0.00  0.00    +0.012 A 
ATOM     35  C   LIG    1      -33.280  85.201  29.596  0.00  0.00    +0.047 A 
BRANCH  33  36
ATOM     36  C   LIG    1      -30.859  87.021  31.866  0.00  0.00    +0.041 A 
ATOM     37  S   LIG    1      -30.602  87.266  33.547  0.00  0.00    -0.052 S 
ATOM     38  C   LIG    1      -29.171  88.127  33.226  0.00  0.00    +0.168 A 
ATOM     39  N   LIG    1      -28.816  88.182  31.961  0.00  0.00    -0.232 NA
ATOM     40  C   LIG    1      -29.798  87.587  31.183  0.00  0.00    +0.129 A 
BRANCH  38  41
ATOM     41  N   LIG    1      -28.420  88.642  34.260  0.00  0.00    -0.250 N 
ATOM     42  C   LIG    1      -27.419  87.930  34.938  0.00  0.00    +0.221 C 
ATOM     43  O   LIG    1      -27.008  86.800  34.772  0.00  0.00    -0.275 OA
ATOM     44  C   LIG    1      -26.941  88.811  36.071  0.00  0.00    +0.098 C 
ATOM     45  C   LIG    1      -27.437  90.189  35.678  0.00  0.00    +0.029 C 
ATOM     46  C   LIG    1      -28.707  89.892  34.910  0.00  0.00    +0.116 C 
ENDBRANCH  38  41
ENDBRANCH  33  36
ENDBRANCH  29  30
ENDBRANCH   4  29
TORSDOF 10
ENDMDL
MODEL 2
REMARK VINA RESULT:      -6.8      9.093     16.101
REMARK  Name = pdb/CHEMBL3896203.pdb
REMARK                            x       y       z     vdW  Elec       q    Type
REMARK                         _______ _______ _______ _____ _____    ______ ____
ROOT
ATOM      1  C   LIG    1      -26.160  76.738  33.169  0.00  0.00    +0.105 A 
ATOM      2  C   LIG    1      -27.258  76.748  34.009  0.00  0.00    +0.145 A 
ATOM      3  N   LIG    1      -28.539  76.680  33.586  0.00  0.00    -0.201 NA
ATOM      4  C   LIG    1      -28.718  76.638  32.251  0.00  0.00    +0.323 A 
ATOM      5  N   LIG    1      -27.738  76.530  31.343  0.00  0.00    -0.201 NA
ATOM      6  C   LIG    1      -26.485  76.533  31.841  0.00  0.00    +0.145 A 
ENDROOT
BRANCH   1   8
ATOM      7  C   LIG    1      -24.194  77.861  33.941  0.00  0.00    +0.285 C 
ATOM      8  N   LIG    1      -24.860  76.788  33.679  0.00  0.00    -0.196 NA
BRANCH   7   9
ATOM      9  O   LIG    1      -24.734  79.094  33.934  0.00  0.00    -0.481 OA
ATOM     10  H   LIG    1      -24.243  79.705  33.367  0.00  0.00    +0.295 HD
ENDBRANCH   7   9
BRANCH   7  11
ATOM     11  N   LIG    1      -22.882  77.981  34.272  0.00  0.00    -0.267 N 
ATOM     12  H   LIG    1      -22.746  78.357  35.202  0.00  0.00    +0.157 HD
BRANCH  11  13
ATOM     13  C   LIG    1      -21.754  78.062  33.425  0.00  0.00    +0.061 A 
ATOM     14  C   LIG    1      -20.677  78.940  33.684  0.00  0.00    +0.092 A 
ATOM     15  N   LIG    1      -19.615  79.039  32.827  0.00  0.00    -0.253 NA
ATOM     16  C   LIG    1      -19.563  78.239  31.739  0.00  0.00    +0.124 A 
ATOM     17  C   LIG    1      -20.515  77.292  31.443  0.00  0.00    +0.075 A 
ATOM     18  C   LIG    1      -21.607  77.211  32.313  0.00  0.00    +0.039 A 
BRANCH  14  19
ATOM     19  C   LIG    1      -20.561  79.851  34.861  0.00  0.00    +0.002 A 
ATOM     20  C   LIG    1      -21.322  81.026  35.019  0.00  0.00    +0.010 A 
ATOM     21  C   LIG    1      -21.166  81.854  36.142  0.00  0.00    +0.001 A 
ATOM     22  C   LIG    1      -20.281  81.507  37.158  0.00  0.00    +0.000 A 
ATOM     23  C   LIG    1      -19.552  80.328  37.056  0.00  0.00    +0.001 A 
ATOM     24  C   LIG    1      -19.688  79.521  35.922  0.00  0.00    +0.010 A 
ENDBRANCH  14  19
BRANCH  17  25
ATOM     25  C   LIG    1      -20.381  76.405  30.240  0.00  0.00    +0.419 C 
ATOM     26  F   LIG    1      -19.848  77.049  29.168  0.00  0.00    -0.166 F 
ATOM     27  F   LIG    1      -21.573  75.897  29.828  0.00  0.00    -0.166 F 
ATOM     28  F   LIG    1      -19.576  75.330  30.469  0.00  0.00    -0.166 F 
ENDBRANCH  17  25
ENDBRANCH  11  13
ENDBRANCH   7  11
ENDBRANCH   1   8
BRANCH   4  29
ATOM     29  O   LIG    1      -30.001  76.744  31.731  0.00  0.00    -0.424 OA
BRANCH  29  30
ATOM     30  C   LIG    1      -30.560  75.592  31.230  0.00  0.00    +0.132 A 
ATOM     31  C   LIG    1      -30.595  74.393  31.943  0.00  0.00    +0.047 A 
ATOM     32  C   LIG    1      -31.130  73.249  31.360  0.00  0.00    +0.012 A 
ATOM     33  C   LIG    1      -31.701  73.290  30.080  0.00  0.00    -0.010 A 
ATOM     34  C   LIG    1      -31.712  74.517  29.396  0.00  0.00    +0.012 A 
ATOM     35  C   LIG    1      -31.144  75.662  29.968  0.00  0.00    +0.047 A 
BRANCH  33  36
ATOM     36  C   LIG    1      -32.273  72.083  29.477  0.00  0.00    +0.041 A 
ATOM     37  S   LIG    1      -33.720  72.163  28.556  0.00  0.00    -0.052 S 
ATOM     38  C   LIG    1      -33.680  70.481  28.304  0.00  0.00    +0.168 A 
ATOM     39  N   LIG    1      -32.624  69.863  28.785  0.00  0.00    -0.232 NA
ATOM     40  C   LIG    1      -31.843  70.768  29.488  0.00  0.00    +0.129 A 
BRANCH  38  41
ATOM     41  N   LIG    1      -34.665  69.863  27.565  0.00  0.00    -0.250 N 
ATOM     42  C   LIG    1      -34.598  69.653  26.180  0.00  0.00    +0.221 C 
ATOM     43  O   LIG    1      -33.724  69.929  25.384  0.00  0.00    -0.275 OA
ATOM     44  C   LIG    1      -35.926  69.067  25.757  0.00  0.00    +0.098 C 
ATOM     45  C   LIG    1      -36.525  68.575  27.061  0.00  0.00    +0.029 C 
ATOM     46  C   LIG    1      -35.969  69.545  28.082  0.00  0.00    +0.116 C 
ENDBRANCH  38  41
ENDBRANCH  33  36
ENDBRANCH  29  30
ENDBRANCH   4  29
TORSDOF 10
ENDMDL
MODEL 3
REMARK VINA RESULT:      -6.7      8.375     13.485
REMARK  Name = pdb/CHEMBL3896203.pdb
REMARK                            x       y       z     vdW  Elec       q    Type
REMARK                         _______ _______ _______ _____ _____    ______ ____
ROOT
ATOM      1  C   LIG    1      -28.281  84.102  36.516  0.00  0.00    +0.105 A 
ATOM      2  C   LIG    1      -28.296  83.015  37.371  0.00  0.00    +0.145 A 
ATOM      3  N   LIG    1      -27.189  82.385  37.821  0.00  0.00    -0.201 NA
ATOM      4  C   LIG    1      -26.014  82.853  37.354  0.00  0.00    +0.323 A 
ATOM      5  N   LIG    1      -25.864  83.950  36.600  0.00  0.00    -0.201 NA
ATOM      6  C   LIG    1      -27.008  84.570  36.246  0.00  0.00    +0.145 A 
ENDROOT
BRANCH   1   8
ATOM      7  C   LIG    1      -29.990  84.646  34.933  0.00  0.00    +0.285 C 
ATOM      8  N   LIG    1      -29.466  84.720  36.111  0.00  0.00    -0.196 NA
BRANCH   7   9
ATOM      9  O   LIG    1      -29.556  83.805  33.977  0.00  0.00    -0.481 OA
ATOM     10  H   LIG    1      -30.208  83.686  33.272  0.00  0.00    +0.295 HD
ENDBRANCH   7   9
BRANCH   7  11
ATOM     11  N   LIG    1      -31.035  85.352  34.428  0.00  0.00    -0.267 N 
ATOM     12  H   LIG    1      -31.908  85.147  34.898  0.00  0.00    +0.157 HD
BRANCH  11  13
ATOM     13  C   LIG    1      -31.167  85.962  33.162  0.00  0.00    +0.061 A 
ATOM     14  C   LIG    1      -30.452  87.129  32.808  0.00  0.00    +0.092 A 
ATOM     15  N   LIG    1      -30.629  87.735  31.594  0.00  0.00    -0.253 NA
ATOM     16  C   LIG    1      -31.461  87.174  30.688  0.00  0.00    +0.124 A 
ATOM     17  C   LIG    1      -32.137  85.995  30.900  0.00  0.00    +0.075 A 
ATOM     18  C   LIG    1      -31.966  85.394  32.150  0.00  0.00    +0.039 A 
BRANCH  14  19
ATOM     19  C   LIG    1      -29.466  87.841  33.674  0.00  0.00    +0.002 A 
ATOM     20  C   LIG    1      -28.185  87.339  33.976  0.00  0.00    +0.010 A 
ATOM     21  C   LIG    1      -27.298  88.044  34.806  0.00  0.00    +0.001 A 
ATOM     22  C   LIG    1      -27.650  89.290  35.316  0.00  0.00    +0.000 A 
ATOM     23  C   LIG    1      -28.887  89.836  34.995  0.00  0.00    +0.001 A 
ATOM     24  C   LIG    1      -29.779  89.116  34.193  0.00  0.00    +0.010 A 
ENDBRANCH  14  19
BRANCH  17  25
ATOM     25  C   LIG    1      -33.016  85.401  29.838  0.00  0.00    +0.419 C 
ATOM     26  F   LIG    1      -33.255  84.077  30.034  0.00  0.00    -0.166 F 
ATOM     27  F   LIG    1      -32.483  85.513  28.593  0.00  0.00    -0.166 F 
ATOM     28  F   LIG    1      -34.240  85.997  29.777  0.00  0.00    -0.166 F 
ENDBRANCH  17  25
ENDBRANCH  11  13
ENDBRANCH   7  11
ENDBRANCH   1   8
BRANCH   4  29
ATOM     29  O   LIG    1      -24.846  82.154  37.626  0.00  0.00    -0.424 OA
BRANCH  29  30
ATOM     30  C   LIG    1      -24.393  81.306  36.644  0.00  0.00    +0.132 A 
ATOM     31  C   LIG    1      -25.145  80.235  36.159  0.00  0.00    +0.047 A 
ATOM     32  C   LIG    1      -24.609  79.383  35.199  0.00  0.00    +0.012 A 
ATOM     33  C   LIG    1      -23.338  79.617  34.654  0.00  0.00    -0.010 A 
ATOM     34  C   LIG    1      -22.615  80.733  35.108  0.00  0.00    +0.012 A 
ATOM     35  C   LIG    1      -23.139  81.572  36.099  0.00  0.00    +0.047 A 
BRANCH  33  36
ATOM     36  C   LIG    1      -22.785  78.721  33.634  0.00  0.00    +0.041 A 
ATOM     37  S   LIG    1      -21.105  78.369  33.594  0.00  0.00    -0.052 S 
ATOM     38  C   LIG    1      -21.319  77.392  32.219  0.00  0.00    +0.168 A 
ATOM     39  N   LIG    1      -22.564  77.236  31.825  0.00  0.00    -0.232 NA
ATOM     40  C   LIG    1      -23.395  78.025  32.607  0.00  0.00    +0.129 A 
BRANCH  38  41
ATOM     41  N   LIG    1      -20.242  76.757  31.640  0.00  0.00    -0.250 N 
ATOM     42  C   LIG    1      -20.066  75.365  31.616  0.00  0.00    +0.221 C 
ATOM     43  O   LIG    1      -20.771  74.476  32.049  0.00  0.00    -0.275 OA
ATOM     44  C   LIG    1      -18.708  75.102  31.006  0.00  0.00    +0.098 C 
ATOM     45  C   LIG    1      -18.375  76.408  30.312  0.00  0.00    +0.029 C 
ATOM     46  C   LIG    1      -19.066  77.443  31.174  0.00  0.00    +0.116 C 
ENDBRANCH  38  41
ENDBRANCH  33  36
ENDBRANCH  29  30
ENDBRANCH   4  29
TORSDOF 10
ENDMDL
MODEL 4
REMARK VINA RESULT:      -6.6      8.552     12.710
REMARK  Name = pdb/CHEMBL3896203.pdb
REMARK                            x       y       z     vdW  Elec       q    Type
REMARK                         _______ _______ _______ _____ _____    ______ ____
ROOT
ATOM      1  C   LIG    1      -24.865  79.761  36.826  0.00  0.00    +0.105 A 
ATOM      2  C   LIG    1      -24.474  80.717  37.745  0.00  0.00    +0.145 A 
ATOM      3  N   LIG    1      -25.308  81.618  38.308  0.00  0.00    -0.201 NA
ATOM      4  C   LIG    1      -26.590  81.575  37.893  0.00  0.00    +0.323 A 
ATOM      5  N   LIG    1      -27.108  80.641  37.082  0.00  0.00    -0.201 NA
ATOM      6  C   LIG    1      -26.231  79.731  36.614  0.00  0.00    +0.145 A 
ENDROOT
BRANCH   1   8
ATOM      7  C   LIG    1      -23.641  78.716  35.057  0.00  0.00    +0.285 C 
ATOM      8  N   LIG    1      -23.951  78.844  36.303  0.00  0.00    -0.196 NA
BRANCH   7   9
ATOM      9  O   LIG    1      -24.023  79.584  34.101  0.00  0.00    -0.481 OA
ATOM     10  H   LIG    1      -24.944  79.454  33.837  0.00  0.00    +0.295 HD
ENDBRANCH   7   9
BRANCH   7  11
ATOM     11  N   LIG    1      -22.899  77.744  34.466  0.00  0.00    -0.267 N 
ATOM     12  H   LIG    1      -22.743  76.949  35.073  0.00  0.00    +0.157 HD
BRANCH  11  13
ATOM     13  C   LIG    1      -22.012  77.842  33.372  0.00  0.00    +0.061 A 
ATOM     14  C   LIG    1      -20.757  78.485  33.473  0.00  0.00    +0.092 A 
ATOM     15  N   LIG    1      -19.931  78.613  32.389  0.00  0.00    -0.253 NA
ATOM     16  C   LIG    1      -20.294  78.062  31.209  0.00  0.00    +0.124 A 
ATOM     17  C   LIG    1      -21.452  77.343  31.028  0.00  0.00    +0.075 A 
ATOM     18  C   LIG    1      -22.299  77.234  32.134  0.00  0.00    +0.039 A 
BRANCH  14  19
ATOM     19  C   LIG    1      -20.192  79.101  34.710  0.00  0.00    +0.002 A 
ATOM     20  C   LIG    1      -20.653  80.312  35.262  0.00  0.00    +0.010 A 
ATOM     21  C   LIG    1      -20.079  80.854  36.423  0.00  0.00    +0.001 A 
ATOM     22  C   LIG    1      -19.061  80.177  37.088  0.00  0.00    +0.000 A 
ATOM     23  C   LIG    1      -18.618  78.955  36.597  0.00  0.00    +0.001 A 
ATOM     24  C   LIG    1      -19.172  78.434  35.423  0.00  0.00    +0.010 A 
ENDBRANCH  14  19
BRANCH  17  25
ATOM     25  C   LIG    1      -21.781  76.720  29.702  0.00  0.00    +0.419 C 
ATOM     26  F   LIG    1      -22.105  75.404  29.806  0.00  0.00    -0.166 F 
ATOM     27  F   LIG    1      -20.749  76.792  28.819  0.00  0.00    -0.166 F 
ATOM     28  F   LIG    1      -22.840  77.320  29.090  0.00  0.00    -0.166 F 
ENDBRANCH  17  25
ENDBRANCH  11  13
ENDBRANCH   7  11
ENDBRANCH   1   8
BRANCH   4  29
ATOM     29  O   LIG    1      -27.469  82.574  38.287  0.00  0.00    -0.424 OA
BRANCH  29  30
ATOM     30  C   LIG    1      -27.897  83.439  37.308  0.00  0.00    +0.132 A 
ATOM     31  C   LIG    1      -27.034  84.289  36.615  0.00  0.00    +0.047 A 
ATOM     32  C   LIG    1      -27.538  85.176  35.670  0.00  0.00    +0.012 A 
ATOM     33  C   LIG    1      -28.903  85.190  35.347  0.00  0.00    -0.010 A 
ATOM     34  C   LIG    1      -29.752  84.288  36.010  0.00  0.00    +0.012 A 
ATOM     35  C   LIG    1      -29.252  83.417  36.986  0.00  0.00    +0.047 A 
BRANCH  33  36
ATOM     36  C   LIG    1      -29.425  86.121  34.342  0.00  0.00    +0.041 A 
ATOM     37  S   LIG    1      -30.869  85.765  33.483  0.00  0.00    -0.052 S 
ATOM     38  C   LIG    1      -30.722  87.208  32.594  0.00  0.00    +0.168 A 
ATOM     39  N   LIG    1      -29.719  87.985  32.940  0.00  0.00    -0.232 NA
ATOM     40  C   LIG    1      -28.957  87.347  33.908  0.00  0.00    +0.129 A 
BRANCH  38  41
ATOM     41  N   LIG    1      -31.662  87.540  31.643  0.00  0.00    -0.250 N 
ATOM     42  C   LIG    1      -31.762  86.927  30.386  0.00  0.00    +0.221 C 
ATOM     43  O   LIG    1      -31.111  86.027  29.895  0.00  0.00    -0.275 OA
ATOM     44  C   LIG    1      -32.831  87.670  29.616  0.00  0.00    +0.098 C 
ATOM     45  C   LIG    1      -33.585  88.420  30.696  0.00  0.00    +0.029 C 
ATOM     46  C   LIG    1      -32.519  88.692  31.735  0.00  0.00    +0.116 C 
ENDBRANCH  38  41
ENDBRANCH  33  36
ENDBRANCH  29  30
ENDBRANCH   4  29
TORSDOF 10
ENDMDL
MODEL 5
REMARK VINA RESULT:      -6.5      8.457     10.606
REMARK  Name = pdb/CHEMBL3896203.pdb
REMARK                            x       y       z     vdW  Elec       q    Type
REMARK                         _______ _______ _______ _____ _____    ______ ____
ROOT
ATOM      1  C   LIG    1      -34.877  70.140  28.003  0.00  0.00    +0.105 A 
ATOM      2  C   LIG    1      -35.241  71.165  28.857  0.00  0.00    +0.145 A 
ATOM      3  N   LIG    1      -34.556  71.507  29.970  0.00  0.00    -0.201 NA
ATOM      4  C   LIG    1      -33.476  70.752  30.253  0.00  0.00    +0.323 A 
ATOM      5  N   LIG    1      -32.971  69.797  29.459  0.00  0.00    -0.201 NA
ATOM      6  C   LIG    1      -33.666  69.557  28.329  0.00  0.00    +0.145 A 
ENDROOT
BRANCH   1   8
ATOM      7  C   LIG    1      -35.455  70.404  25.697  0.00  0.00    +0.285 C 
ATOM      8  N   LIG    1      -35.620  69.858  26.854  0.00  0.00    -0.196 NA
BRANCH   7   9
ATOM      9  O   LIG    1      -34.411  71.195  25.389  0.00  0.00    -0.481 OA
ATOM     10  H   LIG    1      -34.602  72.130  25.545  0.00  0.00    +0.295 HD
ENDBRANCH   7   9
BRANCH   7  11
ATOM     11  N   LIG    1      -36.243  70.303  24.595  0.00  0.00    -0.267 N 
ATOM     12  H   LIG    1      -35.724  70.047  23.765  0.00  0.00    +0.157 HD
BRANCH  11  13
ATOM     13  C   LIG    1      -37.511  70.876  24.353  0.00  0.00    +0.061 A 
ATOM     14  C   LIG    1      -38.600  70.119  23.865  0.00  0.00    +0.092 A 
ATOM     15  N   LIG    1      -39.809  70.701  23.590  0.00  0.00    -0.253 NA
ATOM     16  C   LIG    1      -39.984  72.017  23.845  0.00  0.00    +0.124 A 
ATOM     17  C   LIG    1      -39.017  72.822  24.399  0.00  0.00    +0.075 A 
ATOM     18  C   LIG    1      -37.780  72.225  24.658  0.00  0.00    +0.039 A 
BRANCH  14  19
ATOM     19  C   LIG    1      -38.583  68.654  23.578  0.00  0.00    +0.002 A 
ATOM     20  C   LIG    1      -38.493  68.112  22.281  0.00  0.00    +0.010 A 
ATOM     21  C   LIG    1      -38.492  66.725  22.065  0.00  0.00    +0.001 A 
ATOM     22  C   LIG    1      -38.531  65.843  23.141  0.00  0.00    +0.000 A 
ATOM     23  C   LIG    1      -38.569  66.346  24.436  0.00  0.00    +0.001 A 
ATOM     24  C   LIG    1      -38.601  67.729  24.645  0.00  0.00    +0.010 A 
ENDBRANCH  14  19
BRANCH  17  25
ATOM     25  C   LIG    1      -39.286  74.269  24.696  0.00  0.00    +0.419 C 
ATOM     26  F   LIG    1      -38.172  75.041  24.599  0.00  0.00    -0.166 F 
ATOM     27  F   LIG    1      -39.780  74.463  25.948  0.00  0.00    -0.166 F 
ATOM     28  F   LIG    1      -40.198  74.817  23.845  0.00  0.00    -0.166 F 
ENDBRANCH  17  25
ENDBRANCH  11  13
ENDBRANCH   7  11
ENDBRANCH   1   8
BRANCH   4  29
ATOM     29  O   LIG    1      -32.823  70.924  31.466  0.00  0.00    -0.424 OA
BRANCH  29  30
ATOM     30  C   LIG    1      -31.987  72.011  31.566  0.00  0.00    +0.132 A 
ATOM     31  C   LIG    1      -32.424  73.269  31.983  0.00  0.00    +0.047 A 
ATOM     32  C   LIG    1      -31.538  74.341  32.015  0.00  0.00    +0.012 A 
ATOM     33  C   LIG    1      -30.183  74.168  31.698  0.00  0.00    -0.010 A 
ATOM     34  C   LIG    1      -29.744  72.883  31.337  0.00  0.00    +0.012 A 
ATOM     35  C   LIG    1      -30.641  71.810  31.271  0.00  0.00    +0.047 A 
BRANCH  33  36
ATOM     36  C   LIG    1      -29.254  75.300  31.745  0.00  0.00    +0.041 A 
ATOM     37  S   LIG    1      -27.590  75.056  32.095  0.00  0.00    -0.052 S 
ATOM     38  C   LIG    1      -27.300  76.729  31.995  0.00  0.00    +0.168 A 
ATOM     39  N   LIG    1      -28.332  77.461  31.640  0.00  0.00    -0.232 NA
ATOM     40  C   LIG    1      -29.455  76.652  31.537  0.00  0.00    +0.129 A 
BRANCH  38  41
ATOM     41  N   LIG    1      -26.032  77.230  32.197  0.00  0.00    -0.250 N 
ATOM     42  C   LIG    1      -25.083  77.407  31.180  0.00  0.00    +0.221 C 
ATOM     43  O   LIG    1      -25.160  77.195  29.987  0.00  0.00    -0.275 OA
ATOM     44  C   LIG    1      -23.800  77.852  31.845  0.00  0.00    +0.098 C 
ATOM     45  C   LIG    1      -24.257  78.320  33.213  0.00  0.00    +0.029 C 
ATOM     46  C   LIG    1      -25.452  77.435  33.498  0.00  0.00    +0.116 C 
ENDBRANCH  38  41
ENDBRANCH  33  36
ENDBRANCH  29  30
ENDBRANCH   4  29
TORSDOF 10
ENDMDL
MODEL 6
REMARK VINA RESULT:      -6.4      8.221     15.387
REMARK  Name = pdb/CHEMBL3896203.pdb
REMARK                            x       y       z     vdW  Elec       q    Type
REMARK                         _______ _______ _______ _____ _____    ______ ____
ROOT
ATOM      1  C   LIG    1      -40.220  78.976  24.936  0.00  0.00    +0.105 A 
ATOM      2  C   LIG    1      -40.933  78.108  25.743  0.00  0.00    +0.145 A 
ATOM      3  N   LIG    1      -41.236  76.835  25.409  0.00  0.00    -0.201 NA
ATOM      4  C   LIG    1      -40.832  76.433  24.187  0.00  0.00    +0.323 A 
ATOM      5  N   LIG    1      -40.059  77.146  23.356  0.00  0.00    -0.201 NA
ATOM      6  C   LIG    1      -39.736  78.382  23.785  0.00  0.00    +0.145 A 
ENDROOT
BRANCH   1   8
ATOM      7  C   LIG    1      -39.030  80.596  26.232  0.00  0.00    +0.285 C 
ATOM      8  N   LIG    1      -39.922  80.274  25.357  0.00  0.00    -0.196 NA
BRANCH   7   9
ATOM      9  O   LIG    1      -38.128  79.730  26.730  0.00  0.00    -0.481 OA
ATOM     10  H   LIG    1      -37.852  79.073  26.075  0.00  0.00    +0.295 HD
ENDBRANCH   7   9
BRANCH   7  11
ATOM     11  N   LIG    1      -38.809  81.807  26.807  0.00  0.00    -0.267 N 
ATOM     12  H   LIG    1      -39.541  82.072  27.454  0.00  0.00    +0.157 HD
BRANCH  11  13
ATOM     13  C   LIG    1      -37.996  82.870  26.357  0.00  0.00    +0.061 A 
ATOM     14  C   LIG    1      -36.701  83.101  26.874  0.00  0.00    +0.092 A 
ATOM     15  N   LIG    1      -35.946  84.165  26.460  0.00  0.00    -0.253 NA
ATOM     16  C   LIG    1      -36.423  84.981  25.494  0.00  0.00    +0.124 A 
ATOM     17  C   LIG    1      -37.632  84.794  24.866  0.00  0.00    +0.075 A 
ATOM     18  C   LIG    1      -38.405  83.717  25.308  0.00  0.00    +0.039 A 
BRANCH  14  19
ATOM     19  C   LIG    1      -36.015  82.269  27.906  0.00  0.00    +0.002 A 
ATOM     20  C   LIG    1      -36.236  82.401  29.291  0.00  0.00    +0.010 A 
ATOM     21  C   LIG    1      -35.556  81.599  30.221  0.00  0.00    +0.001 A 
ATOM     22  C   LIG    1      -34.673  80.613  29.791  0.00  0.00    +0.000 A 
ATOM     23  C   LIG    1      -34.471  80.424  28.429  0.00  0.00    +0.001 A 
ATOM     24  C   LIG    1      -35.128  81.245  27.507  0.00  0.00    +0.010 A 
ENDBRANCH  14  19
BRANCH  17  25
ATOM     25  C   LIG    1      -38.089  85.712  23.770  0.00  0.00    +0.419 C 
ATOM     26  F   LIG    1      -39.304  86.268  24.022  0.00  0.00    -0.166 F 
ATOM     27  F   LIG    1      -38.198  85.082  22.570  0.00  0.00    -0.166 F 
ATOM     28  F   LIG    1      -37.234  86.754  23.569  0.00  0.00    -0.166 F 
ENDBRANCH  17  25
ENDBRANCH  11  13
ENDBRANCH   7  11
ENDBRANCH   1   8
BRANCH   4  29
ATOM     29  O   LIG    1      -41.255  75.204  23.700  0.00  0.00    -0.424 OA
BRANCH  29  30
ATOM     30  C   LIG    1      -40.443  74.126  23.962  0.00  0.00    +0.132 A 
ATOM     31  C   LIG    1      -39.230  74.236  24.644  0.00  0.00    +0.047 A 
ATOM     32  C   LIG    1      -38.431  73.114  24.834  0.00  0.00    +0.012 A 
ATOM     33  C   LIG    1      -38.853  71.846  24.408  0.00  0.00    -0.010 A 
ATOM     34  C   LIG    1      -40.103  71.739  23.776  0.00  0.00    +0.012 A 
ATOM     35  C   LIG    1      -40.894  72.873  23.554  0.00  0.00    +0.047 A 
BRANCH  33  36
ATOM     36  C   LIG    1      -38.010  70.667  24.623  0.00  0.00    +0.041 A 
ATOM     37  S   LIG    1      -37.993  69.382  23.483  0.00  0.00    -0.052 S 
ATOM     38  C   LIG    1      -36.893  68.512  24.446  0.00  0.00    +0.168 A 
ATOM     39  N   LIG    1      -36.467  69.136  25.522  0.00  0.00    -0.232 NA
ATOM     40  C   LIG    1      -37.134  70.347  25.644  0.00  0.00    +0.129 A 
BRANCH  38  41
ATOM     41  N   LIG    1      -36.441  67.274  24.043  0.00  0.00    -0.250 N 
ATOM     42  C   LIG    1      -35.335  67.074  23.204  0.00  0.00    +0.221 C 
ATOM     43  O   LIG    1      -34.578  67.875  22.696  0.00  0.00    -0.275 OA
ATOM     44  C   LIG    1      -35.265  65.591  22.913  0.00  0.00    +0.098 C 
ATOM     45  C   LIG    1      -36.128  64.978  23.998  0.00  0.00    +0.029 C 
ATOM     46  C   LIG    1      -37.164  66.050  24.260  0.00  0.00    +0.116 C 
ENDBRANCH  38  41
ENDBRANCH  33  36
ENDBRANCH  29  30
ENDBRANCH   4  29
TORSDOF 10
ENDMDL
MODEL 7
REMARK VINA RESULT:      -6.4      8.744     14.794
REMARK  Name = pdb/CHEMBL3896203.pdb
REMARK                            x       y       z     vdW  Elec       q    Type
REMARK                         _______ _______ _______ _____ _____    ______ ____
ROOT
ATOM      1  C   LIG    1      -26.505  77.192  32.967  0.00  0.00    +0.105 A 
ATOM      2  C   LIG    1      -26.901  76.563  31.801  0.00  0.00    +0.145 A 
ATOM      3  N   LIG    1      -28.081  75.926  31.644  0.00  0.00    -0.201 NA
ATOM      4  C   LIG    1      -28.881  75.890  32.728  0.00  0.00    +0.323 A 
ATOM      5  N   LIG    1      -28.652  76.537  33.879  0.00  0.00    -0.201 NA
ATOM      6  C   LIG    1      -27.487  77.212  33.941  0.00  0.00    +0.145 A 
ENDROOT
BRANCH   1   8
ATOM      7  C   LIG    1      -24.277  77.496  33.782  0.00  0.00    +0.285 C 
ATOM      8  N   LIG    1      -25.278  77.854  33.051  0.00  0.00    -0.196 NA
BRANCH   7   9
ATOM      9  O   LIG    1      -24.212  76.318  34.431  0.00  0.00    -0.481 OA
ATOM     10  H   LIG    1      -23.475  76.285  35.056  0.00  0.00    +0.295 HD
ENDBRANCH   7   9
BRANCH   7  11
ATOM     11  N   LIG    1      -23.131  78.179  34.039  0.00  0.00    -0.267 N 
ATOM     12  H   LIG    1      -23.282  78.986  34.631  0.00  0.00    +0.157 HD
BRANCH  11  13
ATOM     13  C   LIG    1      -21.919  78.187  33.315  0.00  0.00    +0.061 A 
ATOM     14  C   LIG    1      -20.808  78.966  33.713  0.00  0.00    +0.092 A 
ATOM     15  N   LIG    1      -19.657  78.999  32.974  0.00  0.00    -0.253 NA
ATOM     16  C   LIG    1      -19.556  78.227  31.869  0.00  0.00    +0.124 A 
ATOM     17  C   LIG    1      -20.545  77.370  31.444  0.00  0.00    +0.075 A 
ATOM     18  C   LIG    1      -21.724  77.357  32.194  0.00  0.00    +0.039 A 
BRANCH  14  19
ATOM     19  C   LIG    1      -20.743  79.832  34.927  0.00  0.00    +0.002 A 
ATOM     20  C   LIG    1      -19.892  79.583  36.022  0.00  0.00    +0.010 A 
ATOM     21  C   LIG    1      -19.878  80.425  37.146  0.00  0.00    +0.001 A 
ATOM     22  C   LIG    1      -20.679  81.563  37.185  0.00  0.00    +0.000 A 
ATOM     23  C   LIG    1      -21.492  81.864  36.100  0.00  0.00    +0.001 A 
ATOM     24  C   LIG    1      -21.526  81.006  34.995  0.00  0.00    +0.010 A 
ENDBRANCH  14  19
BRANCH  17  25
ATOM     25  C   LIG    1      -20.357  76.507  30.231  0.00  0.00    +0.419 C 
ATOM     26  F   LIG    1      -21.485  76.405  29.479  0.00  0.00    -0.166 F 
ATOM     27  F   LIG    1      -19.990  75.236  30.544  0.00  0.00    -0.166 F 
ATOM     28  F   LIG    1      -19.391  76.981  29.395  0.00  0.00    -0.166 F 
ENDBRANCH  17  25
ENDBRANCH  11  13
ENDBRANCH   7  11
ENDBRANCH   1   8
BRANCH   4  29
ATOM     29  O   LIG    1      -30.028  75.108  32.704  0.00  0.00    -0.424 OA
BRANCH  29  30
ATOM     30  C   LIG    1      -30.989  75.453  31.783  0.00  0.00    +0.132 A 
ATOM     31  C   LIG    1      -32.157  76.136  32.125  0.00  0.00    +0.047 A 
ATOM     32  C   LIG    1      -33.114  76.412  31.154  0.00  0.00    +0.012 A 
ATOM     33  C   LIG    1      -32.900  76.071  29.810  0.00  0.00    -0.010 A 
ATOM     34  C   LIG    1      -31.694  75.436  29.470  0.00  0.00    +0.012 A 
ATOM     35  C   LIG    1      -30.744  75.127  30.452  0.00  0.00    +0.047 A 
BRANCH  33  36
ATOM     36  C   LIG    1      -33.908  76.375  28.792  0.00  0.00    +0.041 A 
ATOM     37  S   LIG    1      -35.138  75.239  28.408  0.00  0.00    -0.052 S 
ATOM     38  C   LIG    1      -35.770  76.288  27.227  0.00  0.00    +0.168 A 
ATOM     39  N   LIG    1      -35.186  77.463  27.144  0.00  0.00    -0.232 NA
ATOM     40  C   LIG    1      -34.101  77.498  28.007  0.00  0.00    +0.129 A 
BRANCH  38  41
ATOM     41  N   LIG    1      -36.874  75.921  26.488  0.00  0.00    -0.250 N 
ATOM     42  C   LIG    1      -37.813  76.827  25.972  0.00  0.00    +0.221 C 
ATOM     43  O   LIG    1      -37.855  78.039  26.037  0.00  0.00    -0.275 OA
ATOM     44  C   LIG    1      -38.918  76.007  25.345  0.00  0.00    +0.098 C 
ATOM     45  C   LIG    1      -38.289  74.638  25.176  0.00  0.00    +0.029 C 
ATOM     46  C   LIG    1      -37.316  74.561  26.333  0.00  0.00    +0.116 C 
ENDBRANCH  38  41
ENDBRANCH  33  36
ENDBRANCH  29  30
ENDBRANCH   4  29
TORSDOF 10
ENDMDL
MODEL 8
REMARK VINA RESULT:      -6.3     18.389     21.836
REMARK  Name = pdb/CHEMBL3896203.pdb
REMARK                            x       y       z     vdW  Elec       q    Type
REMARK                         _______ _______ _______ _____ _____    ______ ____
ROOT
ATOM      1  C   LIG    1      -25.869  83.720  10.383  0.00  0.00    +0.105 A 
ATOM      2  C   LIG    1      -27.068  84.211  10.866  0.00  0.00    +0.145 A 
ATOM      3  N   LIG    1      -28.280  83.879  10.373  0.00  0.00    -0.201 NA
ATOM      4  C   LIG    1      -28.278  83.040   9.317  0.00  0.00    +0.323 A 
ATOM      5  N   LIG    1      -27.194  82.427   8.821  0.00  0.00    -0.201 NA
ATOM      6  C   LIG    1      -26.026  82.752   9.408  0.00  0.00    +0.145 A 
ENDROOT
BRANCH   1   8
ATOM      7  C   LIG    1      -23.885  83.321  11.658  0.00  0.00    +0.285 C 
ATOM      8  N   LIG    1      -24.651  84.089  10.960  0.00  0.00    -0.196 NA
BRANCH   7   9
ATOM      9  O   LIG    1      -24.065  81.992  11.772  0.00  0.00    -0.481 OA
ATOM     10  H   LIG    1      -24.564  81.626  11.028  0.00  0.00    +0.295 HD
ENDBRANCH   7   9
BRANCH   7  11
ATOM     11  N   LIG    1      -22.786  83.657  12.383  0.00  0.00    -0.267 N 
ATOM     12  H   LIG    1      -22.050  82.966  12.319  0.00  0.00    +0.157 HD
BRANCH  11  13
ATOM     13  C   LIG    1      -22.679  84.546  13.476  0.00  0.00    +0.061 A 
ATOM     14  C   LIG    1      -22.580  84.091  14.811  0.00  0.00    +0.092 A 
ATOM     15  N   LIG    1      -22.525  84.967  15.861  0.00  0.00    -0.253 NA
ATOM     16  C   LIG    1      -22.505  86.296  15.616  0.00  0.00    +0.124 A 
ATOM     17  C   LIG    1      -22.509  86.839  14.352  0.00  0.00    +0.075 A 
ATOM     18  C   LIG    1      -22.586  85.938  13.286  0.00  0.00    +0.039 A 
BRANCH  14  19
ATOM     19  C   LIG    1      -22.543  82.663  15.243  0.00  0.00    +0.002 A 
ATOM     20  C   LIG    1      -21.405  82.042  15.794  0.00  0.00    +0.010 A 
ATOM     21  C   LIG    1      -21.421  80.690  16.174  0.00  0.00    +0.001 A 
ATOM     22  C   LIG    1      -22.586  79.937  16.058  0.00  0.00    +0.000 A 
ATOM     23  C   LIG    1      -23.739  80.535  15.566  0.00  0.00    +0.001 A 
ATOM     24  C   LIG    1      -23.711  81.873  15.159  0.00  0.00    +0.010 A 
ENDBRANCH  14  19
BRANCH  17  25
ATOM     25  C   LIG    1      -22.444  88.324  14.144  0.00  0.00    +0.419 C 
ATOM     26  F   LIG    1      -21.182  88.765  13.896  0.00  0.00    -0.166 F 
ATOM     27  F   LIG    1      -22.890  89.024  15.221  0.00  0.00    -0.166 F 
ATOM     28  F   LIG    1      -23.200  88.738  13.088  0.00  0.00    -0.166 F 
ENDBRANCH  17  25
ENDBRANCH  11  13
ENDBRANCH   7  11
ENDBRANCH   1   8
BRANCH   4  29
ATOM     29  O   LIG    1      -29.465  82.789   8.643  0.00  0.00    -0.424 OA
BRANCH  29  30
ATOM     30  C   LIG    1      -30.599  83.375   9.153  0.00  0.00    +0.132 A 
ATOM     31  C   LIG    1      -30.979  84.683   8.851  0.00  0.00    +0.047 A 
ATOM     32  C   LIG    1      -32.112  85.235   9.441  0.00  0.00    +0.012 A 
ATOM     33  C   LIG    1      -32.927  84.474  10.292  0.00  0.00    -0.010 A 
ATOM     34  C   LIG    1      -32.565  83.140  10.541  0.00  0.00    +0.012 A 
ATOM     35  C   LIG    1      -31.406  82.593   9.975  0.00  0.00    +0.047 A 
BRANCH  33  36
ATOM     36  C   LIG    1      -34.125  85.059  10.900  0.00  0.00    +0.041 A 
ATOM     37  S   LIG    1      -35.568  84.140  11.057  0.00  0.00    -0.052 S 
ATOM     38  C   LIG    1      -36.366  85.470  11.753  0.00  0.00    +0.168 A 
ATOM     39  N   LIG    1      -35.621  86.534  11.958  0.00  0.00    -0.232 NA
ATOM     40  C   LIG    1      -34.355  86.314  11.435  0.00  0.00    +0.129 A 
BRANCH  38  41
ATOM     41  N   LIG    1      -37.685  85.368  12.141  0.00  0.00    -0.250 N 
ATOM     42  C   LIG    1      -38.699  86.244  11.727  0.00  0.00    +0.221 C 
ATOM     43  O   LIG    1      -38.655  87.202  10.983  0.00  0.00    -0.275 OA
ATOM     44  C   LIG    1      -39.952  85.855  12.478  0.00  0.00    +0.098 C 
ATOM     45  C   LIG    1      -39.646  84.454  12.973  0.00  0.00    +0.029 C 
ATOM     46  C   LIG    1      -38.146  84.482  13.177  0.00  0.00    +0.116 C 
ENDBRANCH  38  41
ENDBRANCH  33  36
ENDBRANCH  29  30
ENDBRANCH   4  29
TORSDOF 10
ENDMDL
MODEL 9
REMARK VINA RESULT:      -6.3     19.194     23.414
REMARK  Name = pdb/CHEMBL3896203.pdb
REMARK                            x       y       z     vdW  Elec       q    Type
REMARK                         _______ _______ _______ _____ _____    ______ ____
ROOT
ATOM      1  C   LIG    1      -22.386  84.285  14.988  0.00  0.00    +0.105 A 
ATOM      2  C   LIG    1      -22.632  84.012  16.321  0.00  0.00    +0.145 A 
ATOM      3  N   LIG    1      -22.513  82.790  16.882  0.00  0.00    -0.201 NA
ATOM      4  C   LIG    1      -22.166  81.789  16.047  0.00  0.00    +0.323 A 
ATOM      5  N   LIG    1      -21.813  81.941  14.763  0.00  0.00    -0.201 NA
ATOM      6  C   LIG    1      -21.887  83.201  14.289  0.00  0.00    +0.145 A 
ENDROOT
BRANCH   1   8
ATOM      7  C   LIG    1      -21.563  86.460  14.429  0.00  0.00    +0.285 C 
ATOM      8  N   LIG    1      -22.506  85.581  14.480  0.00  0.00    -0.196 NA
BRANCH   7   9
ATOM      9  O   LIG    1      -20.272  86.184  14.690  0.00  0.00    -0.481 OA
ATOM     10  H   LIG    1      -19.669  86.670  14.111  0.00  0.00    +0.295 HD
ENDBRANCH   7   9
BRANCH   7  11
ATOM     11  N   LIG    1      -21.652  87.777  14.111  0.00  0.00    -0.267 N 
ATOM     12  H   LIG    1      -21.726  88.372  14.927  0.00  0.00    +0.157 HD
BRANCH  11  13
ATOM     13  C   LIG    1      -22.061  88.375  12.899  0.00  0.00    +0.061 A 
ATOM     14  C   LIG    1      -21.257  88.349  11.736  0.00  0.00    +0.092 A 
ATOM     15  N   LIG    1      -21.648  88.975  10.583  0.00  0.00    -0.253 NA
ATOM     16  C   LIG    1      -22.855  89.581  10.534  0.00  0.00    +0.124 A 
ATOM     17  C   LIG    1      -23.748  89.588  11.580  0.00  0.00    +0.075 A 
ATOM     18  C   LIG    1      -23.333  88.964  12.760  0.00  0.00    +0.039 A 
BRANCH  14  19
ATOM     19  C   LIG    1      -19.925  87.685  11.614  0.00  0.00    +0.002 A 
ATOM     20  C   LIG    1      -18.730  88.230  12.124  0.00  0.00    +0.010 A 
ATOM     21  C   LIG    1      -17.501  87.569  11.972  0.00  0.00    +0.001 A 
ATOM     22  C   LIG    1      -17.440  86.326  11.349  0.00  0.00    +0.000 A 
ATOM     23  C   LIG    1      -18.609  85.739  10.880  0.00  0.00    +0.001 A 
ATOM     24  C   LIG    1      -19.827  86.414  11.006  0.00  0.00    +0.010 A 
ENDBRANCH  14  19
BRANCH  17  25
ATOM     25  C   LIG    1      -25.092  90.244  11.450  0.00  0.00    +0.419 C 
ATOM     26  F   LIG    1      -25.528  90.784  12.619  0.00  0.00    -0.166 F 
ATOM     27  F   LIG    1      -26.059  89.379  11.043  0.00  0.00    -0.166 F 
ATOM     28  F   LIG    1      -25.093  91.261  10.543  0.00  0.00    -0.166 F 
ENDBRANCH  17  25
ENDBRANCH  11  13
ENDBRANCH   7  11
ENDBRANCH   1   8
BRANCH   4  29
ATOM     29  O   LIG    1      -22.194  80.479  16.505  0.00  0.00    -0.424 OA
BRANCH  29  30
ATOM     30  C   LIG    1      -22.962  79.592  15.787  0.00  0.00    +0.132 A 
ATOM     31  C   LIG    1      -24.337  79.749  15.610  0.00  0.00    +0.047 A 
ATOM     32  C   LIG    1      -25.065  78.790  14.915  0.00  0.00    +0.012 A 
ATOM     33  C   LIG    1      -24.430  77.688  14.324  0.00  0.00    -0.010 A 
ATOM     34  C   LIG    1      -23.036  77.573  14.459  0.00  0.00    +0.012 A 
ATOM     35  C   LIG    1      -22.306  78.520  15.188  0.00  0.00    +0.047 A 
BRANCH  33  36
ATOM     36  C   LIG    1      -25.203  76.687  13.583  0.00  0.00    +0.041 A 
ATOM     37  S   LIG    1      -26.888  76.502  13.856  0.00  0.00    -0.052 S 
ATOM     38  C   LIG    1      -26.955  75.233  12.726  0.00  0.00    +0.168 A 
ATOM     39  N   LIG    1      -25.831  74.980  12.092  0.00  0.00    -0.232 NA
ATOM     40  C   LIG    1      -24.823  75.782  12.609  0.00  0.00    +0.129 A 
BRANCH  38  41
ATOM     41  N   LIG    1      -28.149  74.595  12.462  0.00  0.00    -0.250 N 
ATOM     42  C   LIG    1      -29.274  75.226  11.913  0.00  0.00    +0.221 C 
ATOM     43  O   LIG    1      -29.437  76.376  11.559  0.00  0.00    -0.275 OA
ATOM     44  C   LIG    1      -30.393  74.209  11.909  0.00  0.00    +0.098 C 
ATOM     45  C   LIG    1      -29.667  72.888  12.078  0.00  0.00    +0.029 C 
ATOM     46  C   LIG    1      -28.458  73.263  12.907  0.00  0.00    +0.116 C 
ENDBRANCH  38  41
ENDBRANCH  33  36
ENDBRANCH  29  30
ENDBRANCH   4  29
TORSDOF 10
ENDMDL
