MODEL 1
REMARK VINA RESULT:      -7.0      0.000      0.000
REMARK  Name = pdb/CHEMBL3927344.pdb
REMARK                            x       y       z     vdW  Elec       q    Type
REMARK                         _______ _______ _______ _____ _____    ______ ____
ROOT
ATOM      1  C   LIG    1      -35.704  69.235  25.093  0.00  0.00    +0.149 A 
ATOM      2  N   LIG    1      -36.824  69.959  25.200  0.00  0.00    -0.160 NA
ATOM      3  N   LIG    1      -36.463  71.114  25.812  0.00  0.00    -0.218 N 
ATOM      4  C   LIG    1      -35.099  71.105  26.158  0.00  0.00    +0.129 A 
ATOM      5  C   LIG    1      -34.641  69.865  25.770  0.00  0.00    +0.078 A 
ENDROOT
BRANCH   3   6
ATOM      6  C   LIG    1      -37.464  72.112  26.003  0.00  0.00    +0.067 A 
ATOM      7  C   LIG    1      -37.957  72.452  27.266  0.00  0.00    +0.028 A 
ATOM      8  C   LIG    1      -38.947  73.434  27.391  0.00  0.00    +0.002 A 
ATOM      9  C   LIG    1      -39.439  74.092  26.265  0.00  0.00    +0.000 A 
ATOM     10  C   LIG    1      -38.933  73.784  25.007  0.00  0.00    +0.002 A 
ATOM     11  C   LIG    1      -37.944  72.808  24.875  0.00  0.00    +0.028 A 
ENDBRANCH   3   6
BRANCH   4  12
ATOM     12  N   LIG    1      -34.338  72.108  26.778  0.00  0.00    -0.266 N 
ATOM     13  H   LIG    1      -33.846  72.761  26.191  0.00  0.00    +0.157 HD
ATOM     14  C   LIG    1      -34.253  72.280  28.211  0.00  0.00    +0.251 C 
ATOM     15  O   LIG    1      -34.916  71.609  28.969  0.00  0.00    -0.270 OA
BRANCH  14  16
ATOM     16  C   LIG    1      -33.268  73.259  28.748  0.00  0.00    +0.056 A 
ATOM     17  C   LIG    1      -32.113  72.915  29.438  0.00  0.00    +0.054 A 
ATOM     18 CL   LIG    1      -31.582  71.286  29.645  0.00  0.00    -0.083 Cl
ATOM     19  C   LIG    1      -31.288  73.922  29.945  0.00  0.00    +0.041 A 
ATOM     20  C   LIG    1      -31.569  75.282  29.720  0.00  0.00    +0.052 A 
ATOM     21 CL   LIG    1      -30.374  76.371  30.334  0.00  0.00    -0.083 Cl
ATOM     22  C   LIG    1      -32.696  75.680  28.975  0.00  0.00    +0.022 A 
ATOM     23  C   LIG    1      -33.535  74.628  28.513  0.00  0.00    +0.026 A 
BRANCH  22  24
ATOM     24  C   LIG    1      -33.022  77.073  28.560  0.00  0.00    +0.107 A 
ATOM     25  C   LIG    1      -32.532  77.732  27.431  0.00  0.00    +0.149 A 
ATOM     26  F   LIG    1      -31.589  77.195  26.647  0.00  0.00    -0.203 F 
ATOM     27  C   LIG    1      -32.981  79.014  27.119  0.00  0.00    +0.042 A 
ATOM     28  C   LIG    1      -33.864  79.657  27.975  0.00  0.00    +0.023 A 
ATOM     29  C   LIG    1      -34.265  78.980  29.111  0.00  0.00    +0.111 A 
ATOM     30  N   LIG    1      -33.877  77.715  29.412  0.00  0.00    -0.252 NA
ENDBRANCH  22  24
ENDBRANCH  14  16
ENDBRANCH   4  12
BRANCH   1  31
ATOM     31  C   LIG    1      -35.627  68.005  24.311  0.00  0.00    +0.236 C 
ATOM     32  N   LIG    1      -34.992  67.998  23.193  0.00  0.00    -0.243 NA
BRANCH  31  33
ATOM     33  O   LIG    1      -36.339  66.984  24.831  0.00  0.00    -0.491 OA
ATOM     34  H   LIG    1      -37.296  67.176  24.851  0.00  0.00    +0.294 HD
ENDBRANCH  31  33
BRANCH  32  35
ATOM     35  C   LIG    1      -34.914  66.770  22.397  0.00  0.00    +0.200 C 
BRANCH  35  36
ATOM     36  C   LIG    1      -35.550  66.892  21.030  0.00  0.00    +0.063 A 
ATOM     37  N   LIG    1      -36.647  67.697  20.950  0.00  0.00    -0.258 NA
ATOM     38  C   LIG    1      -37.187  67.893  19.726  0.00  0.00    +0.111 A 
ATOM     39  C   LIG    1      -36.673  67.340  18.568  0.00  0.00    +0.020 A 
ATOM     40  C   LIG    1      -35.536  66.543  18.667  0.00  0.00    +0.003 A 
ATOM     41  C   LIG    1      -34.956  66.322  19.914  0.00  0.00    +0.025 A 
ENDBRANCH  35  36
ENDBRANCH  32  35
ENDBRANCH   1  31
TORSDOF 8
ENDMDL
MODEL 2
REMARK VINA RESULT:      -6.8      5.112      9.777
REMARK  Name = pdb/CHEMBL3927344.pdb
REMARK                            x       y       z     vdW  Elec       q    Type
REMARK                         _______ _______ _______ _____ _____    ______ ____
ROOT
ATOM      1  C   LIG    1      -31.389  74.577  29.908  0.00  0.00    +0.149 A 
ATOM      2  N   LIG    1      -31.483  75.868  29.571  0.00  0.00    -0.160 NA
ATOM      3  N   LIG    1      -32.545  75.957  28.732  0.00  0.00    -0.218 N 
ATOM      4  C   LIG    1      -33.105  74.692  28.480  0.00  0.00    +0.129 A 
ATOM      5  C   LIG    1      -32.306  73.804  29.169  0.00  0.00    +0.078 A 
ENDROOT
BRANCH   3   6
ATOM      6  C   LIG    1      -32.918  77.250  28.258  0.00  0.00    +0.067 A 
ATOM      7  C   LIG    1      -32.265  77.879  27.194  0.00  0.00    +0.028 A 
ATOM      8  C   LIG    1      -32.669  79.153  26.778  0.00  0.00    +0.002 A 
ATOM      9  C   LIG    1      -33.732  79.800  27.406  0.00  0.00    +0.000 A 
ATOM     10  C   LIG    1      -34.409  79.170  28.446  0.00  0.00    +0.002 A 
ATOM     11  C   LIG    1      -34.013  77.898  28.863  0.00  0.00    +0.028 A 
ENDBRANCH   3   6
BRANCH   4  12
ATOM     12  N   LIG    1      -34.217  74.357  27.692  0.00  0.00    -0.266 N 
ATOM     13  H   LIG    1      -34.051  73.955  26.784  0.00  0.00    +0.157 HD
ATOM     14  C   LIG    1      -35.587  74.520  28.126  0.00  0.00    +0.251 C 
ATOM     15  O   LIG    1      -35.855  74.880  29.249  0.00  0.00    -0.270 OA
BRANCH  14  16
ATOM     16  C   LIG    1      -36.673  74.305  27.131  0.00  0.00    +0.056 A 
ATOM     17  C   LIG    1      -37.121  73.058  26.713  0.00  0.00    +0.054 A 
ATOM     18 CL   LIG    1      -36.576  71.574  27.403  0.00  0.00    -0.083 Cl
ATOM     19  C   LIG    1      -38.111  72.976  25.731  0.00  0.00    +0.041 A 
ATOM     20  C   LIG    1      -38.709  74.132  25.196  0.00  0.00    +0.052 A 
ATOM     21 CL   LIG    1      -39.987  73.821  24.072  0.00  0.00    -0.083 Cl
ATOM     22  C   LIG    1      -38.330  75.417  25.630  0.00  0.00    +0.022 A 
ATOM     23  C   LIG    1      -37.290  75.461  26.600  0.00  0.00    +0.026 A 
BRANCH  22  24
ATOM     24  C   LIG    1      -38.980  76.699  25.239  0.00  0.00    +0.107 A 
ATOM     25  C   LIG    1      -38.645  77.490  24.138  0.00  0.00    +0.149 A 
ATOM     26  F   LIG    1      -37.583  77.223  23.367  0.00  0.00    -0.203 F 
ATOM     27  C   LIG    1      -39.388  78.632  23.844  0.00  0.00    +0.042 A 
ATOM     28  C   LIG    1      -40.419  79.014  24.691  0.00  0.00    +0.023 A 
ATOM     29  C   LIG    1      -40.663  78.227  25.801  0.00  0.00    +0.111 A 
ATOM     30  N   LIG    1      -39.983  77.088  26.083  0.00  0.00    -0.252 NA
ENDBRANCH  22  24
ENDBRANCH  14  16
ENDBRANCH   4  12
BRANCH   1  31
ATOM     31  C   LIG    1      -30.493  74.095  30.955  0.00  0.00    +0.236 C 
ATOM     32  N   LIG    1      -29.903  74.936  31.727  0.00  0.00    -0.243 NA
BRANCH  31  33
ATOM     33  O   LIG    1      -30.308  72.759  30.939  0.00  0.00    -0.491 OA
ATOM     34  H   LIG    1      -29.455  72.510  30.534  0.00  0.00    +0.294 HD
ENDBRANCH  31  33
BRANCH  32  35
ATOM     35  C   LIG    1      -28.997  74.462  32.778  0.00  0.00    +0.200 C 
BRANCH  35  36
ATOM     36  C   LIG    1      -27.572  74.270  32.308  0.00  0.00    +0.063 A 
ATOM     37  N   LIG    1      -27.228  73.003  31.944  0.00  0.00    -0.258 NA
ATOM     38  C   LIG    1      -25.986  72.816  31.440  0.00  0.00    +0.111 A 
ATOM     39  C   LIG    1      -25.074  73.838  31.263  0.00  0.00    +0.020 A 
ATOM     40  C   LIG    1      -25.454  75.129  31.615  0.00  0.00    +0.003 A 
ATOM     41  C   LIG    1      -26.725  75.355  32.136  0.00  0.00    +0.025 A 
ENDBRANCH  35  36
ENDBRANCH  32  35
ENDBRANCH   1  31
TORSDOF 8
ENDMDL
MODEL 3
REMARK VINA RESULT:      -6.8      2.574      3.379
REMARK  Name = pdb/CHEMBL3927344.pdb
REMARK                            x       y       z     vdW  Elec       q    Type
REMARK                         _______ _______ _______ _____ _____    ______ ____
ROOT
ATOM      1  C   LIG    1      -39.595  71.315  23.972  0.00  0.00    +0.149 A 
ATOM      2  N   LIG    1      -40.167  72.508  23.780  0.00  0.00    -0.160 NA
ATOM      3  N   LIG    1      -39.329  73.416  24.339  0.00  0.00    -0.218 N 
ATOM      4  C   LIG    1      -38.231  72.788  24.953  0.00  0.00    +0.129 A 
ATOM      5  C   LIG    1      -38.453  71.438  24.788  0.00  0.00    +0.078 A 
ENDROOT
BRANCH   3   6
ATOM      6  C   LIG    1      -39.665  74.798  24.226  0.00  0.00    +0.067 A 
ATOM      7  C   LIG    1      -38.798  75.819  24.625  0.00  0.00    +0.028 A 
ATOM      8  C   LIG    1      -39.187  77.158  24.499  0.00  0.00    +0.002 A 
ATOM      9  C   LIG    1      -40.430  77.488  23.961  0.00  0.00    +0.000 A 
ATOM     10  C   LIG    1      -41.288  76.481  23.532  0.00  0.00    +0.002 A 
ATOM     11  C   LIG    1      -40.905  75.143  23.652  0.00  0.00    +0.028 A 
ENDBRANCH   3   6
BRANCH   4  12
ATOM     12  N   LIG    1      -37.138  73.367  25.617  0.00  0.00    -0.266 N 
ATOM     13  H   LIG    1      -36.368  73.700  25.061  0.00  0.00    +0.157 HD
ATOM     14  C   LIG    1      -37.074  73.550  27.050  0.00  0.00    +0.251 C 
ATOM     15  O   LIG    1      -38.015  73.287  27.763  0.00  0.00    -0.270 OA
BRANCH  14  16
ATOM     16  C   LIG    1      -35.788  74.003  27.647  0.00  0.00    +0.056 A 
ATOM     17  C   LIG    1      -34.847  73.159  28.223  0.00  0.00    +0.054 A 
ATOM     18 CL   LIG    1      -34.975  71.438  28.196  0.00  0.00    -0.083 Cl
ATOM     19  C   LIG    1      -33.699  73.702  28.804  0.00  0.00    +0.041 A 
ATOM     20  C   LIG    1      -33.442  75.085  28.766  0.00  0.00    +0.052 A 
ATOM     21 CL   LIG    1      -31.919  75.549  29.442  0.00  0.00    -0.083 Cl
ATOM     22  C   LIG    1      -34.337  75.975  28.141  0.00  0.00    +0.022 A 
ATOM     23  C   LIG    1      -35.516  75.390  27.600  0.00  0.00    +0.026 A 
BRANCH  22  24
ATOM     24  C   LIG    1      -34.110  77.431  27.921  0.00  0.00    +0.107 A 
ATOM     25  C   LIG    1      -33.059  78.002  27.200  0.00  0.00    +0.149 A 
ATOM     26  F   LIG    1      -32.046  77.270  26.721  0.00  0.00    -0.203 F 
ATOM     27  C   LIG    1      -33.010  79.381  27.008  0.00  0.00    +0.042 A 
ATOM     28  C   LIG    1      -33.974  80.188  27.595  0.00  0.00    +0.023 A 
ATOM     29  C   LIG    1      -34.953  79.573  28.352  0.00  0.00    +0.111 A 
ATOM     30  N   LIG    1      -35.048  78.230  28.515  0.00  0.00    -0.252 NA
ENDBRANCH  22  24
ENDBRANCH  14  16
ENDBRANCH   4  12
BRANCH   1  31
ATOM     31  C   LIG    1      -40.085  70.091  23.343  0.00  0.00    +0.236 C 
ATOM     32  N   LIG    1      -39.384  69.519  22.429  0.00  0.00    -0.243 NA
BRANCH  31  33
ATOM     33  O   LIG    1      -41.318  69.726  23.750  0.00  0.00    -0.491 OA
ATOM     34  H   LIG    1      -41.712  70.378  24.360  0.00  0.00    +0.294 HD
ENDBRANCH  31  33
BRANCH  32  35
ATOM     35  C   LIG    1      -39.869  68.294  21.787  0.00  0.00    +0.200 C 
BRANCH  35  36
ATOM     36  C   LIG    1      -38.959  67.782  20.694  0.00  0.00    +0.063 A 
ATOM     37  N   LIG    1      -39.342  66.620  20.092  0.00  0.00    -0.258 NA
ATOM     38  C   LIG    1      -38.595  66.181  19.054  0.00  0.00    +0.111 A 
ATOM     39  C   LIG    1      -37.490  66.856  18.571  0.00  0.00    +0.020 A 
ATOM     40  C   LIG    1      -37.131  68.053  19.181  0.00  0.00    +0.003 A 
ATOM     41  C   LIG    1      -37.880  68.533  20.253  0.00  0.00    +0.025 A 
ENDBRANCH  35  36
ENDBRANCH  32  35
ENDBRANCH   1  31
TORSDOF 8
ENDMDL
MODEL 4
REMARK VINA RESULT:      -6.7     16.997     20.160
REMARK  Name = pdb/CHEMBL3927344.pdb
REMARK                            x       y       z     vdW  Elec       q    Type
REMARK                         _______ _______ _______ _____ _____    ______ ____
ROOT
ATOM      1  C   LIG    1      -23.033  81.432  15.539  0.00  0.00    +0.149 A 
ATOM      2  N   LIG    1      -22.244  80.383  15.795  0.00  0.00    -0.160 NA
ATOM      3  N   LIG    1      -22.795  79.334  15.135  0.00  0.00    -0.218 N 
ATOM      4  C   LIG    1      -23.990  79.704  14.494  0.00  0.00    +0.129 A 
ATOM      5  C   LIG    1      -24.180  81.027  14.828  0.00  0.00    +0.078 A 
ENDROOT
BRANCH   3   6
ATOM      6  C   LIG    1      -22.116  78.080  15.185  0.00  0.00    +0.067 A 
ATOM      7  C   LIG    1      -20.723  77.976  15.123  0.00  0.00    +0.028 A 
ATOM      8  C   LIG    1      -20.111  76.717  15.167  0.00  0.00    +0.002 A 
ATOM      9  C   LIG    1      -20.879  75.560  15.287  0.00  0.00    +0.000 A 
ATOM     10  C   LIG    1      -22.264  75.655  15.381  0.00  0.00    +0.002 A 
ATOM     11  C   LIG    1      -22.880  76.907  15.341  0.00  0.00    +0.028 A 
ENDBRANCH   3   6
BRANCH   4  12
ATOM     12  N   LIG    1      -24.844  78.925  13.697  0.00  0.00    -0.266 N 
ATOM     13  H   LIG    1      -24.632  78.843  12.716  0.00  0.00    +0.157 HD
ATOM     14  C   LIG    1      -25.985  78.201  14.212  0.00  0.00    +0.251 C 
ATOM     15  O   LIG    1      -26.222  78.157  15.397  0.00  0.00    -0.270 OA
BRANCH  14  16
ATOM     16  C   LIG    1      -26.916  77.566  13.239  0.00  0.00    +0.056 A 
ATOM     17  C   LIG    1      -26.957  76.206  12.962  0.00  0.00    +0.054 A 
ATOM     18 CL   LIG    1      -26.026  75.035  13.822  0.00  0.00    -0.083 Cl
ATOM     19  C   LIG    1      -27.836  75.728  11.987  0.00  0.00    +0.041 A 
ATOM     20  C   LIG    1      -28.726  76.588  11.319  0.00  0.00    +0.052 A 
ATOM     21 CL   LIG    1      -29.807  75.791  10.227  0.00  0.00    -0.083 Cl
ATOM     22  C   LIG    1      -28.764  77.966  11.607  0.00  0.00    +0.022 A 
ATOM     23  C   LIG    1      -27.824  78.422  12.573  0.00  0.00    +0.026 A 
BRANCH  22  24
ATOM     24  C   LIG    1      -29.747  78.946  11.066  0.00  0.00    +0.107 A 
ATOM     25  C   LIG    1      -29.591  79.717   9.913  0.00  0.00    +0.149 A 
ATOM     26  F   LIG    1      -28.445  79.740   9.221  0.00  0.00    -0.203 F 
ATOM     27  C   LIG    1      -30.627  80.542   9.477  0.00  0.00    +0.042 A 
ATOM     28  C   LIG    1      -31.785  80.643  10.235  0.00  0.00    +0.023 A 
ATOM     29  C   LIG    1      -31.856  79.905  11.402  0.00  0.00    +0.111 A 
ATOM     30  N   LIG    1      -30.881  79.062  11.821  0.00  0.00    -0.252 NA
ENDBRANCH  22  24
ENDBRANCH  14  16
ENDBRANCH   4  12
BRANCH   1  31
ATOM     31  C   LIG    1      -22.677  82.801  15.903  0.00  0.00    +0.236 C 
ATOM     32  N   LIG    1      -22.814  83.746  15.044  0.00  0.00    -0.243 NA
BRANCH  31  33
ATOM     33  O   LIG    1      -22.133  82.911  17.133  0.00  0.00    -0.491 OA
ATOM     34  H   LIG    1      -21.659  82.101  17.400  0.00  0.00    +0.294 HD
ENDBRANCH  31  33
BRANCH  32  35
ATOM     35  C   LIG    1      -22.453  85.122  15.398  0.00  0.00    +0.200 C 
BRANCH  35  36
ATOM     36  C   LIG    1      -22.618  86.104  14.259  0.00  0.00    +0.063 A 
ATOM     37  N   LIG    1      -23.068  85.585  13.082  0.00  0.00    -0.258 NA
ATOM     38  C   LIG    1      -23.305  86.451  12.071  0.00  0.00    +0.111 A 
ATOM     39  C   LIG    1      -23.134  87.818  12.181  0.00  0.00    +0.020 A 
ATOM     40  C   LIG    1      -22.701  88.331  13.399  0.00  0.00    +0.003 A 
ATOM     41  C   LIG    1      -22.447  87.466  14.461  0.00  0.00    +0.025 A 
ENDBRANCH  35  36
ENDBRANCH  32  35
ENDBRANCH   1  31
TORSDOF 8
ENDMDL
MODEL 5
REMARK VINA RESULT:      -6.6      1.730      2.010
REMARK  Name = pdb/CHEMBL3927344.pdb
REMARK                            x       y       z     vdW  Elec       q    Type
REMARK                         _______ _______ _______ _____ _____    ______ ____
ROOT
ATOM      1  C   LIG    1      -37.069  69.249  24.834  0.00  0.00    +0.149 A 
ATOM      2  N   LIG    1      -37.941  70.233  24.591  0.00  0.00    -0.160 NA
ATOM      3  N   LIG    1      -37.379  71.359  25.096  0.00  0.00    -0.218 N 
ATOM      4  C   LIG    1      -36.153  71.081  25.727  0.00  0.00    +0.129 A 
ATOM      5  C   LIG    1      -36.003  69.715  25.629  0.00  0.00    +0.078 A 
ENDROOT
BRANCH   3   6
ATOM      6  C   LIG    1      -38.075  72.592  24.921  0.00  0.00    +0.067 A 
ATOM      7  C   LIG    1      -37.544  73.821  25.325  0.00  0.00    +0.028 A 
ATOM      8  C   LIG    1      -38.278  74.998  25.136  0.00  0.00    +0.002 A 
ATOM      9  C   LIG    1      -39.534  74.962  24.531  0.00  0.00    +0.000 A 
ATOM     10  C   LIG    1      -40.057  73.748  24.097  0.00  0.00    +0.002 A 
ATOM     11  C   LIG    1      -39.330  72.571  24.280  0.00  0.00    +0.028 A 
ENDBRANCH   3   6
BRANCH   4  12
ATOM     12  N   LIG    1      -35.257  71.965  26.349  0.00  0.00    -0.266 N 
ATOM     13  H   LIG    1      -34.539  72.388  25.783  0.00  0.00    +0.157 HD
ATOM     14  C   LIG    1      -35.332  72.335  27.744  0.00  0.00    +0.251 C 
ATOM     15  O   LIG    1      -36.242  71.961  28.448  0.00  0.00    -0.270 OA
BRANCH  14  16
ATOM     16  C   LIG    1      -34.217  73.132  28.325  0.00  0.00    +0.056 A 
ATOM     17  C   LIG    1      -33.187  72.601  29.091  0.00  0.00    +0.054 A 
ATOM     18 CL   LIG    1      -32.977  70.909  29.357  0.00  0.00    -0.083 Cl
ATOM     19  C   LIG    1      -32.222  73.454  29.632  0.00  0.00    +0.041 A 
ATOM     20  C   LIG    1      -32.234  74.835  29.368  0.00  0.00    +0.052 A 
ATOM     21 CL   LIG    1      -30.897  75.704  30.038  0.00  0.00    -0.083 Cl
ATOM     22  C   LIG    1      -33.224  75.412  28.549  0.00  0.00    +0.022 A 
ATOM     23  C   LIG    1      -34.214  74.519  28.052  0.00  0.00    +0.026 A 
BRANCH  22  24
ATOM     24  C   LIG    1      -33.263  76.830  28.092  0.00  0.00    +0.107 A 
ATOM     25  C   LIG    1      -34.073  77.841  28.613  0.00  0.00    +0.149 A 
ATOM     26  F   LIG    1      -35.018  77.595  29.529  0.00  0.00    -0.203 F 
ATOM     27  C   LIG    1      -33.954  79.147  28.140  0.00  0.00    +0.042 A 
ATOM     28  C   LIG    1      -33.075  79.420  27.102  0.00  0.00    +0.023 A 
ATOM     29  C   LIG    1      -32.347  78.367  26.582  0.00  0.00    +0.111 A 
ATOM     30  N   LIG    1      -32.413  77.098  27.055  0.00  0.00    -0.252 NA
ENDBRANCH  22  24
ENDBRANCH  14  16
ENDBRANCH   4  12
BRANCH   1  31
ATOM     31  C   LIG    1      -37.209  67.908  24.271  0.00  0.00    +0.236 C 
ATOM     32  N   LIG    1      -36.920  67.702  23.036  0.00  0.00    -0.243 NA
BRANCH  31  33
ATOM     33  O   LIG    1      -37.737  67.011  25.129  0.00  0.00    -0.491 OA
ATOM     34  H   LIG    1      -37.527  67.223  26.058  0.00  0.00    +0.294 HD
ENDBRANCH  31  33
BRANCH  32  35
ATOM     35  C   LIG    1      -37.063  66.362  22.459  0.00  0.00    +0.200 C 
BRANCH  35  36
ATOM     36  C   LIG    1      -35.871  65.925  21.637  0.00  0.00    +0.063 A 
ATOM     37  N   LIG    1      -34.846  66.819  21.549  0.00  0.00    -0.258 NA
ATOM     38  C   LIG    1      -33.732  66.424  20.891  0.00  0.00    +0.111 A 
ATOM     39  C   LIG    1      -33.581  65.169  20.332  0.00  0.00    +0.020 A 
ATOM     40  C   LIG    1      -34.628  64.262  20.457  0.00  0.00    +0.003 A 
ATOM     41  C   LIG    1      -35.789  64.637  21.128  0.00  0.00    +0.025 A 
ENDBRANCH  35  36
ENDBRANCH  32  35
ENDBRANCH   1  31
TORSDOF 8
ENDMDL
MODEL 6
REMARK VINA RESULT:      -6.6      5.573      7.053
REMARK  Name = pdb/CHEMBL3927344.pdb
REMARK                            x       y       z     vdW  Elec       q    Type
REMARK                         _______ _______ _______ _____ _____    ______ ____
ROOT
ATOM      1  C   LIG    1      -38.219  72.279  24.612  0.00  0.00    +0.149 A 
ATOM      2  N   LIG    1      -39.384  72.394  23.966  0.00  0.00    -0.160 NA
ATOM      3  N   LIG    1      -39.833  73.646  24.230  0.00  0.00    -0.218 N 
ATOM      4  C   LIG    1      -38.970  74.325  25.109  0.00  0.00    +0.129 A 
ATOM      5  C   LIG    1      -37.984  73.412  25.416  0.00  0.00    +0.078 A 
ENDROOT
BRANCH   3   6
ATOM      6  C   LIG    1      -41.046  74.068  23.609  0.00  0.00    +0.067 A 
ATOM      7  C   LIG    1      -41.393  75.416  23.472  0.00  0.00    +0.028 A 
ATOM      8  C   LIG    1      -42.602  75.770  22.862  0.00  0.00    +0.002 A 
ATOM      9  C   LIG    1      -43.463  74.789  22.371  0.00  0.00    +0.000 A 
ATOM     10  C   LIG    1      -43.113  73.447  22.475  0.00  0.00    +0.002 A 
ATOM     11  C   LIG    1      -41.908  73.087  23.079  0.00  0.00    +0.028 A 
ENDBRANCH   3   6
BRANCH   4  12
ATOM     12  N   LIG    1      -39.063  75.634  25.606  0.00  0.00    -0.266 N 
ATOM     13  H   LIG    1      -39.703  75.808  26.364  0.00  0.00    +0.157 HD
ATOM     14  C   LIG    1      -38.263  76.736  25.121  0.00  0.00    +0.251 C 
ATOM     15  O   LIG    1      -37.390  76.570  24.301  0.00  0.00    -0.270 OA
BRANCH  14  16
ATOM     16  C   LIG    1      -38.588  78.108  25.599  0.00  0.00    +0.056 A 
ATOM     17  C   LIG    1      -38.168  78.639  26.812  0.00  0.00    +0.054 A 
ATOM     18 CL   LIG    1      -37.081  77.825  27.877  0.00  0.00    -0.083 Cl
ATOM     19  C   LIG    1      -38.580  79.920  27.183  0.00  0.00    +0.041 A 
ATOM     20  C   LIG    1      -39.365  80.714  26.326  0.00  0.00    +0.052 A 
ATOM     21 CL   LIG    1      -39.681  82.309  26.918  0.00  0.00    -0.083 Cl
ATOM     22  C   LIG    1      -39.766  80.243  25.061  0.00  0.00    +0.022 A 
ATOM     23  C   LIG    1      -39.364  78.917  24.738  0.00  0.00    +0.026 A 
BRANCH  22  24
ATOM     24  C   LIG    1      -40.480  81.035  24.020  0.00  0.00    +0.107 A 
ATOM     25  C   LIG    1      -41.850  81.005  23.758  0.00  0.00    +0.149 A 
ATOM     26  F   LIG    1      -42.671  80.137  24.361  0.00  0.00    -0.203 F 
ATOM     27  C   LIG    1      -42.399  81.858  22.801  0.00  0.00    +0.042 A 
ATOM     28  C   LIG    1      -41.564  82.686  22.064  0.00  0.00    +0.023 A 
ATOM     29  C   LIG    1      -40.207  82.624  22.322  0.00  0.00    +0.111 A 
ATOM     30  N   LIG    1      -39.656  81.836  23.278  0.00  0.00    -0.252 NA
ENDBRANCH  22  24
ENDBRANCH  14  16
ENDBRANCH   4  12
BRANCH   1  31
ATOM     31  C   LIG    1      -37.316  71.147  24.422  0.00  0.00    +0.236 C 
ATOM     32  N   LIG    1      -37.778  70.028  23.991  0.00  0.00    -0.243 NA
BRANCH  31  33
ATOM     33  O   LIG    1      -36.050  71.388  24.823  0.00  0.00    -0.491 OA
ATOM     34  H   LIG    1      -35.712  72.237  24.481  0.00  0.00    +0.294 HD
ENDBRANCH  31  33
BRANCH  32  35
ATOM     35  C   LIG    1      -36.881  68.884  23.803  0.00  0.00    +0.200 C 
BRANCH  35  36
ATOM     36  C   LIG    1      -36.753  68.444  22.361  0.00  0.00    +0.063 A 
ATOM     37  N   LIG    1      -35.932  67.381  22.131  0.00  0.00    -0.258 NA
ATOM     38  C   LIG    1      -35.863  66.911  20.864  0.00  0.00    +0.111 A 
ATOM     39  C   LIG    1      -36.591  67.439  19.815  0.00  0.00    +0.020 A 
ATOM     40  C   LIG    1      -37.444  68.506  20.076  0.00  0.00    +0.003 A 
ATOM     41  C   LIG    1      -37.538  69.014  21.369  0.00  0.00    +0.025 A 
ENDBRANCH  35  36
ENDBRANCH  32  35
ENDBRANCH   1  31
TORSDOF 8
ENDMDL
MODEL 7
REMARK VINA RESULT:      -6.6     18.012     19.973
REMARK  Name = pdb/CHEMBL3927344.pdb
REMARK                            x       y       z     vdW  Elec       q    Type
REMARK                         _______ _______ _______ _____ _____    ______ ____
ROOT
ATOM      1  C   LIG    1      -24.518  78.575  14.500  0.00  0.00    +0.149 A 
ATOM      2  N   LIG    1      -23.413  78.056  15.047  0.00  0.00    -0.160 NA
ATOM      3  N   LIG    1      -22.431  78.966  14.832  0.00  0.00    -0.218 N 
ATOM      4  C   LIG    1      -22.900  80.059  14.083  0.00  0.00    +0.129 A 
ATOM      5  C   LIG    1      -24.216  79.761  13.802  0.00  0.00    +0.078 A 
ENDROOT
BRANCH   3   6
ATOM      6  C   LIG    1      -21.138  78.695  15.371  0.00  0.00    +0.067 A 
ATOM      7  C   LIG    1      -20.497  79.561  16.262  0.00  0.00    +0.028 A 
ATOM      8  C   LIG    1      -19.224  79.248  16.751  0.00  0.00    +0.002 A 
ATOM      9  C   LIG    1      -18.588  78.066  16.370  0.00  0.00    +0.000 A 
ATOM     10  C   LIG    1      -19.230  77.183  15.508  0.00  0.00    +0.002 A 
ATOM     11  C   LIG    1      -20.502  77.488  15.019  0.00  0.00    +0.028 A 
ENDBRANCH   3   6
BRANCH   4  12
ATOM     12  N   LIG    1      -22.212  81.211  13.672  0.00  0.00    -0.266 N 
ATOM     13  H   LIG    1      -21.890  81.257  12.719  0.00  0.00    +0.157 HD
ATOM     14  C   LIG    1      -21.975  82.353  14.527  0.00  0.00    +0.251 C 
ATOM     15  O   LIG    1      -22.442  82.415  15.641  0.00  0.00    -0.270 OA
BRANCH  14  16
ATOM     16  C   LIG    1      -21.074  83.430  14.033  0.00  0.00    +0.056 A 
ATOM     17  C   LIG    1      -19.692  83.323  13.950  0.00  0.00    +0.054 A 
ATOM     18 CL   LIG    1      -18.833  81.862  14.275  0.00  0.00    -0.083 Cl
ATOM     19  C   LIG    1      -18.941  84.420  13.523  0.00  0.00    +0.041 A 
ATOM     20  C   LIG    1      -19.558  85.617  13.116  0.00  0.00    +0.052 A 
ATOM     21 CL   LIG    1      -18.466  86.819  12.519  0.00  0.00    -0.083 Cl
ATOM     22  C   LIG    1      -20.960  85.754  13.125  0.00  0.00    +0.022 A 
ATOM     23  C   LIG    1      -21.688  84.631  13.608  0.00  0.00    +0.026 A 
BRANCH  22  24
ATOM     24  C   LIG    1      -21.728  86.915  12.594  0.00  0.00    +0.107 A 
ATOM     25  C   LIG    1      -22.492  87.810  13.346  0.00  0.00    +0.149 A 
ATOM     26  F   LIG    1      -22.714  87.632  14.654  0.00  0.00    -0.203 F 
ATOM     27  C   LIG    1      -23.101  88.901  12.729  0.00  0.00    +0.042 A 
ATOM     28  C   LIG    1      -22.999  89.052  11.353  0.00  0.00    +0.023 A 
ATOM     29  C   LIG    1      -22.285  88.099  10.653  0.00  0.00    +0.111 A 
ATOM     30  N   LIG    1      -21.647  87.054  11.237  0.00  0.00    -0.252 NA
ENDBRANCH  22  24
ENDBRANCH  14  16
ENDBRANCH   4  12
BRANCH   1  31
ATOM     31  C   LIG    1      -25.845  77.994  14.690  0.00  0.00    +0.236 C 
ATOM     32  N   LIG    1      -26.212  76.995  13.970  0.00  0.00    -0.243 NA
BRANCH  31  33
ATOM     33  O   LIG    1      -26.607  78.658  15.583  0.00  0.00    -0.491 OA
ATOM     34  H   LIG    1      -27.393  78.146  15.849  0.00  0.00    +0.294 HD
ENDBRANCH  31  33
BRANCH  32  35
ATOM     35  C   LIG    1      -27.544  76.409  14.148  0.00  0.00    +0.200 C 
BRANCH  35  36
ATOM     36  C   LIG    1      -28.448  76.582  12.948  0.00  0.00    +0.063 A 
ATOM     37  N   LIG    1      -28.720  77.867  12.585  0.00  0.00    -0.258 NA
ATOM     38  C   LIG    1      -29.457  78.055  11.466  0.00  0.00    +0.111 A 
ATOM     39  C   LIG    1      -29.922  77.020  10.677  0.00  0.00    +0.020 A 
ATOM     40  C   LIG    1      -29.611  75.717  11.050  0.00  0.00    +0.003 A 
ATOM     41  C   LIG    1      -28.854  75.489  12.196  0.00  0.00    +0.025 A 
ENDBRANCH  35  36
ENDBRANCH  32  35
ENDBRANCH   1  31
TORSDOF 8
ENDMDL
MODEL 8
REMARK VINA RESULT:      -6.6      2.843      3.907
REMARK  Name = pdb/CHEMBL3927344.pdb
REMARK                            x       y       z     vdW  Elec       q    Type
REMARK                         _______ _______ _______ _____ _____    ______ ____
ROOT
ATOM      1  C   LIG    1      -37.960  70.627  24.274  0.00  0.00    +0.149 A 
ATOM      2  N   LIG    1      -39.115  71.190  23.902  0.00  0.00    -0.160 NA
ATOM      3  N   LIG    1      -39.027  72.492  24.270  0.00  0.00    -0.218 N 
ATOM      4  C   LIG    1      -37.820  72.754  24.943  0.00  0.00    +0.129 A 
ATOM      5  C   LIG    1      -37.181  71.536  25.016  0.00  0.00    +0.078 A 
ENDROOT
BRANCH   3   6
ATOM      6  C   LIG    1      -40.112  73.357  23.937  0.00  0.00    +0.067 A 
ATOM      7  C   LIG    1      -40.050  74.743  24.108  0.00  0.00    +0.028 A 
ATOM      8  C   LIG    1      -41.150  75.541  23.772  0.00  0.00    +0.002 A 
ATOM      9  C   LIG    1      -42.310  74.968  23.251  0.00  0.00    +0.000 A 
ATOM     10  C   LIG    1      -42.370  73.593  23.047  0.00  0.00    +0.002 A 
ATOM     11  C   LIG    1      -41.276  72.792  23.378  0.00  0.00    +0.028 A 
ENDBRANCH   3   6
BRANCH   4  12
ATOM     12  N   LIG    1      -37.341  73.968  25.460  0.00  0.00    -0.266 N 
ATOM     13  H   LIG    1      -36.858  74.592  24.835  0.00  0.00    +0.157 HD
ATOM     14  C   LIG    1      -37.539  74.392  26.828  0.00  0.00    +0.251 C 
ATOM     15  O   LIG    1      -38.217  73.749  27.597  0.00  0.00    -0.270 OA
BRANCH  14  16
ATOM     16  C   LIG    1      -36.824  75.609  27.301  0.00  0.00    +0.056 A 
ATOM     17  C   LIG    1      -37.326  76.901  27.212  0.00  0.00    +0.054 A 
ATOM     18 CL   LIG    1      -38.925  77.261  26.670  0.00  0.00    -0.083 Cl
ATOM     19  C   LIG    1      -36.542  77.975  27.638  0.00  0.00    +0.041 A 
ATOM     20  C   LIG    1      -35.274  77.774  28.213  0.00  0.00    +0.052 A 
ATOM     21 CL   LIG    1      -34.506  79.219  28.775  0.00  0.00    -0.083 Cl
ATOM     22  C   LIG    1      -34.746  76.479  28.379  0.00  0.00    +0.022 A 
ATOM     23  C   LIG    1      -35.555  75.414  27.893  0.00  0.00    +0.026 A 
BRANCH  22  24
ATOM     24  C   LIG    1      -33.483  76.134  29.090  0.00  0.00    +0.107 A 
ATOM     25  C   LIG    1      -32.191  76.470  28.683  0.00  0.00    +0.149 A 
ATOM     26  F   LIG    1      -31.945  77.052  27.503  0.00  0.00    -0.203 F 
ATOM     27  C   LIG    1      -31.098  76.148  29.487  0.00  0.00    +0.042 A 
ATOM     28  C   LIG    1      -31.298  75.433  30.659  0.00  0.00    +0.023 A 
ATOM     29  C   LIG    1      -32.594  75.072  30.977  0.00  0.00    +0.111 A 
ATOM     30  N   LIG    1      -33.676  75.412  30.235  0.00  0.00    -0.252 NA
ENDBRANCH  22  24
ENDBRANCH  14  16
ENDBRANCH   4  12
BRANCH   1  31
ATOM     31  C   LIG    1      -37.575  69.274  23.878  0.00  0.00    +0.236 C 
ATOM     32  N   LIG    1      -36.791  69.103  22.874  0.00  0.00    -0.243 NA
BRANCH  31  33
ATOM     33  O   LIG    1      -38.183  68.305  24.592  0.00  0.00    -0.491 OA
ATOM     34  H   LIG    1      -38.721  67.717  24.029  0.00  0.00    +0.294 HD
ENDBRANCH  31  33
BRANCH  32  35
ATOM     35  C   LIG    1      -36.403  67.750  22.466  0.00  0.00    +0.200 C 
BRANCH  35  36
ATOM     36  C   LIG    1      -36.990  67.326  21.137  0.00  0.00    +0.063 A 
ATOM     37  N   LIG    1      -37.054  68.291  20.177  0.00  0.00    -0.258 NA
ATOM     38  C   LIG    1      -37.496  67.923  18.953  0.00  0.00    +0.111 A 
ATOM     39  C   LIG    1      -37.859  66.629  18.631  0.00  0.00    +0.020 A 
ATOM     40  C   LIG    1      -37.760  65.652  19.617  0.00  0.00    +0.003 A 
ATOM     41  C   LIG    1      -37.309  65.999  20.888  0.00  0.00    +0.025 A 
ENDBRANCH  35  36
ENDBRANCH  32  35
ENDBRANCH   1  31
TORSDOF 8
ENDMDL
MODEL 9
REMARK VINA RESULT:      -6.5     15.051     20.465
REMARK  Name = pdb/CHEMBL3927344.pdb
REMARK                            x       y       z     vdW  Elec       q    Type
REMARK                         _______ _______ _______ _____ _____    ______ ____
ROOT
ATOM      1  C   LIG    1      -24.179  82.909  37.278  0.00  0.00    +0.149 A 
ATOM      2  N   LIG    1      -23.195  83.239  38.121  0.00  0.00    -0.160 NA
ATOM      3  N   LIG    1      -22.074  82.655  37.631  0.00  0.00    -0.218 N 
ATOM      4  C   LIG    1      -22.356  81.888  36.487  0.00  0.00    +0.129 A 
ATOM      5  C   LIG    1      -23.720  81.987  36.317  0.00  0.00    +0.078 A 
ENDROOT
BRANCH   3   6
ATOM      6  C   LIG    1      -20.842  82.894  38.310  0.00  0.00    +0.067 A 
ATOM      7  C   LIG    1      -20.241  81.940  39.136  0.00  0.00    +0.028 A 
ATOM      8  C   LIG    1      -19.036  82.235  39.785  0.00  0.00    +0.002 A 
ATOM      9  C   LIG    1      -18.416  83.471  39.603  0.00  0.00    +0.000 A 
ATOM     10  C   LIG    1      -18.990  84.415  38.759  0.00  0.00    +0.002 A 
ATOM     11  C   LIG    1      -20.190  84.127  38.107  0.00  0.00    +0.028 A 
ENDBRANCH   3   6
BRANCH   4  12
ATOM     12  N   LIG    1      -21.477  81.151  35.677  0.00  0.00    -0.266 N 
ATOM     13  H   LIG    1      -21.134  81.583  34.835  0.00  0.00    +0.157 HD
ATOM     14  C   LIG    1      -21.004  79.825  36.005  0.00  0.00    +0.251 C 
ATOM     15  O   LIG    1      -21.278  79.299  37.059  0.00  0.00    -0.270 OA
BRANCH  14  16
ATOM     16  C   LIG    1      -20.227  79.078  34.978  0.00  0.00    +0.056 A 
ATOM     17  C   LIG    1      -18.850  78.893  35.014  0.00  0.00    +0.054 A 
ATOM     18 CL   LIG    1      -17.862  79.383  36.341  0.00  0.00    -0.083 Cl
ATOM     19  C   LIG    1      -18.218  78.223  33.964  0.00  0.00    +0.041 A 
ATOM     20  C   LIG    1      -18.953  77.674  32.897  0.00  0.00    +0.052 A 
ATOM     21 CL   LIG    1      -18.003  76.790  31.754  0.00  0.00    -0.083 Cl
ATOM     22  C   LIG    1      -20.356  77.784  32.846  0.00  0.00    +0.022 A 
ATOM     23  C   LIG    1      -20.960  78.512  33.909  0.00  0.00    +0.026 A 
BRANCH  22  24
ATOM     24  C   LIG    1      -21.248  77.135  31.844  0.00  0.00    +0.107 A 
ATOM     25  C   LIG    1      -21.248  77.368  30.468  0.00  0.00    +0.149 A 
ATOM     26  F   LIG    1      -20.498  78.325  29.908  0.00  0.00    -0.203 F 
ATOM     27  C   LIG    1      -22.087  76.632  29.633  0.00  0.00    +0.042 A 
ATOM     28  C   LIG    1      -22.972  75.717  30.187  0.00  0.00    +0.023 A 
ATOM     29  C   LIG    1      -22.973  75.577  31.562  0.00  0.00    +0.111 A 
ATOM     30  N   LIG    1      -22.134  76.248  32.390  0.00  0.00    -0.252 NA
ENDBRANCH  22  24
ENDBRANCH  14  16
ENDBRANCH   4  12
BRANCH   1  31
ATOM     31  C   LIG    1      -25.511  83.505  37.342  0.00  0.00    +0.236 C 
ATOM     32  N   LIG    1      -26.084  83.903  36.262  0.00  0.00    -0.243 NA
BRANCH  31  33
ATOM     33  O   LIG    1      -25.979  83.658  38.598  0.00  0.00    -0.491 OA
ATOM     34  H   LIG    1      -25.732  82.911  39.176  0.00  0.00    +0.294 HD
ENDBRANCH  31  33
BRANCH  32  35
ATOM     35  C   LIG    1      -27.418  84.507  36.316  0.00  0.00    +0.200 C 
BRANCH  35  36
ATOM     36  C   LIG    1      -27.396  86.017  36.400  0.00  0.00    +0.063 A 
ATOM     37  N   LIG    1      -26.946  86.671  35.292  0.00  0.00    -0.258 NA
ATOM     38  C   LIG    1      -26.993  88.023  35.306  0.00  0.00    +0.111 A 
ATOM     39  C   LIG    1      -27.488  88.758  36.366  0.00  0.00    +0.020 A 
ATOM     40  C   LIG    1      -27.969  88.071  37.476  0.00  0.00    +0.003 A 
ATOM     41  C   LIG    1      -27.934  86.679  37.494  0.00  0.00    +0.025 A 
ENDBRANCH  35  36
ENDBRANCH  32  35
ENDBRANCH   1  31
TORSDOF 8
ENDMDL
