MODEL 1
REMARK VINA RESULT:      -6.2      0.000      0.000
REMARK  Name = pdb/CHEMBL3673452.pdb
REMARK                            x       y       z     vdW  Elec       q    Type
REMARK                         _______ _______ _______ _____ _____    ______ ____
ROOT
ATOM      1  C   LIG    1      -36.031  78.222  28.561  0.00  0.00    +0.161 C 
ENDROOT
BRANCH   1   2
ATOM      2  N   LIG    1      -34.616  77.984  28.408  0.00  0.00    -0.293 N 
ATOM      3  C   LIG    1      -33.942  76.836  28.763  0.00  0.00    +0.162 A 
ATOM      4  N   LIG    1      -34.457  75.704  29.296  0.00  0.00    -0.235 NA
ATOM      5  C   LIG    1      -33.495  74.846  29.713  0.00  0.00    +0.121 A 
ATOM      6  C   LIG    1      -32.114  75.019  29.588  0.00  0.00    +0.005 A 
ATOM      7  C   LIG    1      -31.653  76.177  28.943  0.00  0.00    +0.041 A 
ATOM      8  C   LIG    1      -32.607  77.111  28.526  0.00  0.00    +0.110 A 
ATOM      9  N   LIG    1      -32.474  78.335  27.909  0.00  0.00    -0.213 NA
ATOM     10  C   LIG    1      -33.671  78.814  27.836  0.00  0.00    +0.195 A 
BRANCH   6  11
ATOM     11  C   LIG    1      -31.195  74.041  30.135  0.00  0.00    +0.021 A 
ATOM     12  C   LIG    1      -31.004  72.766  29.645  0.00  0.00    +0.116 A 
ATOM     13  N   LIG    1      -30.065  72.183  30.446  0.00  0.00    -0.274 N 
ATOM     14  C   LIG    1      -29.552  70.841  30.321  0.00  0.00    +0.172 C 
ATOM     15  N   LIG    1      -29.627  72.986  31.431  0.00  0.00    -0.179 NA
ATOM     16  C   LIG    1      -30.310  74.117  31.239  0.00  0.00    +0.143 A 
ENDBRANCH   6  11
BRANCH  10  17
ATOM     17  N   LIG    1      -34.003  80.003  27.268  0.00  0.00    -0.329 N 
ATOM     18  H   LIG    1      -34.319  80.689  27.949  0.00  0.00    +0.145 HD
ATOM     19  H   LIG    1      -34.560  80.023  26.434  0.00  0.00    +0.145 HD
ENDBRANCH  10  17
ENDBRANCH   1   2
BRANCH   1  23
ATOM     20  C   LIG    1      -38.560  76.941  25.238  0.00  0.00    +0.162 A 
ATOM     21  C   LIG    1      -38.802  78.153  25.905  0.00  0.00    +0.162 A 
ATOM     22  C   LIG    1      -37.914  78.515  26.940  0.00  0.00    +0.054 A 
ATOM     23  C   LIG    1      -36.855  77.722  27.394  0.00  0.00    -0.024 A 
ATOM     24  C   LIG    1      -36.625  76.529  26.733  0.00  0.00    +0.009 A 
ATOM     25  C   LIG    1      -37.461  76.162  25.671  0.00  0.00    +0.050 A 
BRANCH  21  26
ATOM     26  O   LIG    1      -39.818  79.011  25.569  0.00  0.00    -0.491 OA
ATOM     27  C   LIG    1      -39.674  79.757  24.341  0.00  0.00    +0.277 C 
ENDBRANCH  21  26
BRANCH  20  28
ATOM     28  O   LIG    1      -39.183  76.273  24.225  0.00  0.00    -0.484 OA
BRANCH  28  29
ATOM     29  C   LIG    1      -40.522  75.821  24.175  0.00  0.00    +0.264 C 
BRANCH  29  33
ATOM     30  C   LIG    1      -40.705  71.521  23.530  0.00  0.00    +0.120 A 
ATOM     31  C   LIG    1      -41.738  72.345  23.089  0.00  0.00    +0.046 A 
ATOM     32  C   LIG    1      -41.663  73.734  23.242  0.00  0.00    +0.010 A 
ATOM     33  C   LIG    1      -40.557  74.331  23.870  0.00  0.00    -0.010 A 
ATOM     34  C   LIG    1      -39.491  73.505  24.245  0.00  0.00    +0.010 A 
ATOM     35  C   LIG    1      -39.570  72.111  24.093  0.00  0.00    +0.046 A 
BRANCH  30  37
ATOM     36  C   LIG    1      -42.004  69.591  23.115  0.00  0.00    +0.277 C 
ATOM     37  O   LIG    1      -40.745  70.150  23.494  0.00  0.00    -0.495 OA
ENDBRANCH  30  37
ENDBRANCH  29  33
ENDBRANCH  28  29
ENDBRANCH  20  28
ENDBRANCH   1  23
TORSDOF 9
ENDMDL
MODEL 2
REMARK VINA RESULT:      -6.2      8.515     11.375
REMARK  Name = pdb/CHEMBL3673452.pdb
REMARK                            x       y       z     vdW  Elec       q    Type
REMARK                         _______ _______ _______ _____ _____    ______ ____
ROOT
ATOM      1  C   LIG    1      -36.440  66.133  20.618  0.00  0.00    +0.161 C 
ENDROOT
BRANCH   1   2
ATOM      2  N   LIG    1      -35.742  66.596  19.442  0.00  0.00    -0.293 N 
ATOM      3  C   LIG    1      -34.375  66.663  19.283  0.00  0.00    +0.162 A 
ATOM      4  N   LIG    1      -33.419  66.297  20.166  0.00  0.00    -0.235 NA
ATOM      5  C   LIG    1      -32.179  66.683  19.776  0.00  0.00    +0.121 A 
ATOM      6  C   LIG    1      -31.848  67.336  18.585  0.00  0.00    +0.005 A 
ATOM      7  C   LIG    1      -32.881  67.604  17.674  0.00  0.00    +0.041 A 
ATOM      8  C   LIG    1      -34.184  67.257  18.048  0.00  0.00    +0.110 A 
ATOM      9  N   LIG    1      -35.389  67.417  17.403  0.00  0.00    -0.213 NA
ATOM     10  C   LIG    1      -36.283  67.003  18.238  0.00  0.00    +0.195 A 
BRANCH   6  11
ATOM     11  C   LIG    1      -30.482  67.743  18.323  0.00  0.00    +0.021 A 
ATOM     12  C   LIG    1      -29.360  66.991  18.600  0.00  0.00    +0.116 A 
ATOM     13  N   LIG    1      -28.289  67.740  18.205  0.00  0.00    -0.274 N 
ATOM     14  C   LIG    1      -26.900  67.363  18.309  0.00  0.00    +0.172 C 
ATOM     15  N   LIG    1      -28.630  68.934  17.690  0.00  0.00    -0.179 NA
ATOM     16  C   LIG    1      -29.963  68.934  17.757  0.00  0.00    +0.143 A 
ENDBRANCH   6  11
BRANCH  10  17
ATOM     17  N   LIG    1      -37.619  66.960  17.994  0.00  0.00    -0.329 N 
ATOM     18  H   LIG    1      -37.914  66.077  17.584  0.00  0.00    +0.145 HD
ATOM     19  H   LIG    1      -38.076  67.742  17.564  0.00  0.00    +0.145 HD
ENDBRANCH  10  17
ENDBRANCH   1   2
BRANCH   1  23
ATOM     20  C   LIG    1      -37.326  69.284  23.511  0.00  0.00    +0.162 A 
ATOM     21  C   LIG    1      -36.119  68.569  23.568  0.00  0.00    +0.162 A 
ATOM     22  C   LIG    1      -35.891  67.596  22.571  0.00  0.00    +0.054 A 
ATOM     23  C   LIG    1      -36.808  67.246  21.575  0.00  0.00    -0.024 A 
ATOM     24  C   LIG    1      -37.995  67.953  21.528  0.00  0.00    +0.009 A 
ATOM     25  C   LIG    1      -38.233  68.957  22.475  0.00  0.00    +0.050 A 
BRANCH  21  26
ATOM     26  O   LIG    1      -35.145  68.802  24.506  0.00  0.00    -0.491 OA
ATOM     27  C   LIG    1      -35.332  68.216  25.812  0.00  0.00    +0.277 C 
ENDBRANCH  21  26
BRANCH  20  28
ATOM     28  O   LIG    1      -37.887  70.263  24.276  0.00  0.00    -0.484 OA
BRANCH  28  29
ATOM     29  C   LIG    1      -39.212  70.754  24.225  0.00  0.00    +0.264 C 
BRANCH  29  33
ATOM     30  C   LIG    1      -39.317  75.087  24.619  0.00  0.00    +0.120 A 
ATOM     31  C   LIG    1      -38.184  74.372  24.999  0.00  0.00    +0.046 A 
ATOM     32  C   LIG    1      -38.120  72.984  24.825  0.00  0.00    +0.010 A 
ATOM     33  C   LIG    1      -39.206  72.274  24.288  0.00  0.00    -0.010 A 
ATOM     34  C   LIG    1      -40.313  73.007  23.841  0.00  0.00    +0.010 A 
ATOM     35  C   LIG    1      -40.376  74.399  24.020  0.00  0.00    +0.046 A 
BRANCH  30  37
ATOM     36  C   LIG    1      -38.292  77.153  25.135  0.00  0.00    +0.277 C 
ATOM     37  O   LIG    1      -39.488  76.431  24.837  0.00  0.00    -0.495 OA
ENDBRANCH  30  37
ENDBRANCH  29  33
ENDBRANCH  28  29
ENDBRANCH  20  28
ENDBRANCH   1  23
TORSDOF 9
ENDMDL
MODEL 3
REMARK VINA RESULT:      -6.0     11.738     14.952
REMARK  Name = pdb/CHEMBL3673452.pdb
REMARK                            x       y       z     vdW  Elec       q    Type
REMARK                         _______ _______ _______ _____ _____    ______ ____
ROOT
ATOM      1  C   LIG    1      -23.361  77.330  30.309  0.00  0.00    +0.161 C 
ENDROOT
BRANCH   1   2
ATOM      2  N   LIG    1      -22.064  77.602  30.882  0.00  0.00    -0.293 N 
ATOM      3  C   LIG    1      -21.819  78.053  32.160  0.00  0.00    +0.162 A 
ATOM      4  N   LIG    1      -22.720  78.310  33.135  0.00  0.00    -0.235 NA
ATOM      5  C   LIG    1      -22.163  78.933  34.202  0.00  0.00    +0.121 A 
ATOM      6  C   LIG    1      -20.813  79.252  34.368  0.00  0.00    +0.005 A 
ATOM      7  C   LIG    1      -19.920  78.875  33.353  0.00  0.00    +0.041 A 
ATOM      8  C   LIG    1      -20.452  78.261  32.215  0.00  0.00    +0.110 A 
ATOM      9  N   LIG    1      -19.854  77.815  31.058  0.00  0.00    -0.213 NA
ATOM     10  C   LIG    1      -20.823  77.416  30.302  0.00  0.00    +0.195 A 
BRANCH   6  11
ATOM     11  C   LIG    1      -20.365  79.976  35.541  0.00  0.00    +0.021 A 
ATOM     12  C   LIG    1      -20.853  81.196  35.958  0.00  0.00    +0.116 A 
ATOM     13  N   LIG    1      -20.162  81.520  37.090  0.00  0.00    -0.274 N 
ATOM     14  C   LIG    1      -20.326  82.718  37.876  0.00  0.00    +0.172 C 
ATOM     15  N   LIG    1      -19.251  80.597  37.445  0.00  0.00    -0.179 NA
ATOM     16  C   LIG    1      -19.378  79.656  36.505  0.00  0.00    +0.143 A 
ENDBRANCH   6  11
BRANCH  10  17
ATOM     17  N   LIG    1      -20.677  76.871  29.067  0.00  0.00    -0.329 N 
ATOM     18  H   LIG    1      -20.107  76.028  29.075  0.00  0.00    +0.145 HD
ATOM     19  H   LIG    1      -20.462  77.457  28.281  0.00  0.00    +0.145 HD
ENDBRANCH  10  17
ENDBRANCH   1   2
BRANCH   1  23
ATOM     20  C   LIG    1      -25.183  73.579  31.605  0.00  0.00    +0.162 A 
ATOM     21  C   LIG    1      -25.874  74.795  31.719  0.00  0.00    +0.162 A 
ATOM     22  C   LIG    1      -25.233  75.956  31.238  0.00  0.00    +0.054 A 
ATOM     23  C   LIG    1      -23.933  75.992  30.722  0.00  0.00    -0.024 A 
ATOM     24  C   LIG    1      -23.258  74.790  30.616  0.00  0.00    +0.009 A 
ATOM     25  C   LIG    1      -23.885  73.612  31.042  0.00  0.00    +0.050 A 
BRANCH  21  26
ATOM     26  O   LIG    1      -27.146  74.898  32.225  0.00  0.00    -0.491 OA
ATOM     27  C   LIG    1      -27.861  76.126  31.966  0.00  0.00    +0.277 C 
ENDBRANCH  21  26
BRANCH  20  28
ATOM     28  O   LIG    1      -25.464  72.290  31.952  0.00  0.00    -0.484 OA
BRANCH  28  29
ATOM     29  C   LIG    1      -26.380  71.404  31.339  0.00  0.00    +0.264 C 
BRANCH  29  33
ATOM     30  C   LIG    1      -24.182  68.830  28.603  0.00  0.00    +0.120 A 
ATOM     31  C   LIG    1      -23.624  69.202  29.824  0.00  0.00    +0.046 A 
ATOM     32  C   LIG    1      -24.345  69.983  30.734  0.00  0.00    +0.010 A 
ATOM     33  C   LIG    1      -25.639  70.437  30.429  0.00  0.00    -0.010 A 
ATOM     34  C   LIG    1      -26.221  70.001  29.232  0.00  0.00    +0.010 A 
ATOM     35  C   LIG    1      -25.495  69.219  28.319  0.00  0.00    +0.046 A 
BRANCH  30  37
ATOM     36  C   LIG    1      -22.658  67.097  28.099  0.00  0.00    +0.277 C 
ATOM     37  O   LIG    1      -23.508  68.142  27.626  0.00  0.00    -0.495 OA
ENDBRANCH  30  37
ENDBRANCH  29  33
ENDBRANCH  28  29
ENDBRANCH  20  28
ENDBRANCH   1  23
TORSDOF 9
ENDMDL
MODEL 4
REMARK VINA RESULT:      -6.0      4.996      9.223
REMARK  Name = pdb/CHEMBL3673452.pdb
REMARK                            x       y       z     vdW  Elec       q    Type
REMARK                         _______ _______ _______ _____ _____    ______ ____
ROOT
ATOM      1  C   LIG    1      -38.120  81.419  27.817  0.00  0.00    +0.161 C 
ENDROOT
BRANCH   1   2
ATOM      2  N   LIG    1      -37.559  82.262  26.789  0.00  0.00    -0.293 N 
ATOM      3  C   LIG    1      -38.262  82.916  25.801  0.00  0.00    +0.162 A 
ATOM      4  N   LIG    1      -39.600  82.924  25.603  0.00  0.00    -0.235 NA
ATOM      5  C   LIG    1      -39.944  83.498  24.424  0.00  0.00    +0.121 A 
ATOM      6  C   LIG    1      -39.076  84.085  23.500  0.00  0.00    +0.005 A 
ATOM      7  C   LIG    1      -37.709  84.120  23.813  0.00  0.00    +0.041 A 
ATOM      8  C   LIG    1      -37.299  83.508  25.003  0.00  0.00    +0.110 A 
ATOM      9  N   LIG    1      -36.051  83.348  25.562  0.00  0.00    -0.213 NA
ATOM     10  C   LIG    1      -36.238  82.630  26.618  0.00  0.00    +0.195 A 
BRANCH   6  11
ATOM     11  C   LIG    1      -39.579  84.611  22.246  0.00  0.00    +0.021 A 
ATOM     12  C   LIG    1      -40.180  85.842  22.084  0.00  0.00    +0.116 A 
ATOM     13  N   LIG    1      -40.505  85.939  20.761  0.00  0.00    -0.274 N 
ATOM     14  C   LIG    1      -41.163  87.054  20.125  0.00  0.00    +0.172 C 
ATOM     15  N   LIG    1      -40.160  84.856  20.044  0.00  0.00    -0.179 NA
ATOM     16  C   LIG    1      -39.592  84.051  20.945  0.00  0.00    +0.143 A 
ENDBRANCH   6  11
BRANCH  10  17
ATOM     17  N   LIG    1      -35.265  82.255  27.489  0.00  0.00    -0.329 N 
ATOM     18  H   LIG    1      -35.395  82.651  28.417  0.00  0.00    +0.145 HD
ATOM     19  H   LIG    1      -34.303  82.277  27.207  0.00  0.00    +0.145 HD
ENDBRANCH  10  17
ENDBRANCH   1   2
BRANCH   1  23
ATOM     20  C   LIG    1      -38.452  77.240  26.590  0.00  0.00    +0.162 A 
ATOM     21  C   LIG    1      -39.244  78.233  25.993  0.00  0.00    +0.162 A 
ATOM     22  C   LIG    1      -39.046  79.565  26.416  0.00  0.00    +0.054 A 
ATOM     23  C   LIG    1      -38.170  79.956  27.434  0.00  0.00    -0.024 A 
ATOM     24  C   LIG    1      -37.395  78.970  28.018  0.00  0.00    +0.009 A 
ATOM     25  C   LIG    1      -37.535  77.645  27.589  0.00  0.00    +0.050 A 
BRANCH  21  26
ATOM     26  O   LIG    1      -40.154  77.979  24.998  0.00  0.00    -0.491 OA
ATOM     27  C   LIG    1      -39.673  78.023  23.637  0.00  0.00    +0.277 C 
ENDBRANCH  21  26
BRANCH  20  28
ATOM     28  O   LIG    1      -38.363  75.886  26.454  0.00  0.00    -0.484 OA
BRANCH  28  29
ATOM     29  C   LIG    1      -37.652  75.155  25.473  0.00  0.00    +0.264 C 
BRANCH  29  33
ATOM     30  C   LIG    1      -40.367  72.176  23.831  0.00  0.00    +0.120 A 
ATOM     31  C   LIG    1      -40.700  73.528  23.799  0.00  0.00    +0.046 A 
ATOM     32  C   LIG    1      -39.810  74.498  24.274  0.00  0.00    +0.010 A 
ATOM     33  C   LIG    1      -38.569  74.132  24.821  0.00  0.00    -0.010 A 
ATOM     34  C   LIG    1      -38.210  72.779  24.784  0.00  0.00    +0.010 A 
ATOM     35  C   LIG    1      -39.106  71.807  24.310  0.00  0.00    +0.046 A 
BRANCH  30  37
ATOM     36  C   LIG    1      -40.597  70.057  22.811  0.00  0.00    +0.277 C 
ATOM     37  O   LIG    1      -41.218  71.164  23.466  0.00  0.00    -0.495 OA
ENDBRANCH  30  37
ENDBRANCH  29  33
ENDBRANCH  28  29
ENDBRANCH  20  28
ENDBRANCH   1  23
TORSDOF 9
ENDMDL
MODEL 5
REMARK VINA RESULT:      -6.0     16.659     19.983
REMARK  Name = pdb/CHEMBL3673452.pdb
REMARK                            x       y       z     vdW  Elec       q    Type
REMARK                         _______ _______ _______ _____ _____    ______ ____
ROOT
ATOM      1  C   LIG    1      -29.453  77.820  10.112  0.00  0.00    +0.161 C 
ENDROOT
BRANCH   1   2
ATOM      2  N   LIG    1      -30.808  78.231  10.395  0.00  0.00    -0.293 N 
ATOM      3  C   LIG    1      -31.303  79.513  10.304  0.00  0.00    +0.162 A 
ATOM      4  N   LIG    1      -30.646  80.630   9.916  0.00  0.00    -0.235 NA
ATOM      5  C   LIG    1      -31.368  81.756  10.134  0.00  0.00    +0.121 A 
ATOM      6  C   LIG    1      -32.667  81.826  10.643  0.00  0.00    +0.005 A 
ATOM      7  C   LIG    1      -33.322  80.621  10.940  0.00  0.00    +0.041 A 
ATOM      8  C   LIG    1      -32.605  79.432  10.765  0.00  0.00    +0.110 A 
ATOM      9  N   LIG    1      -32.949  78.119  10.996  0.00  0.00    -0.213 NA
ATOM     10  C   LIG    1      -31.880  77.437  10.752  0.00  0.00    +0.195 A 
BRANCH   6  11
ATOM     11  C   LIG    1      -33.299  83.109  10.881  0.00  0.00    +0.021 A 
ATOM     12  C   LIG    1      -34.628  83.295  11.197  0.00  0.00    +0.116 A 
ATOM     13  N   LIG    1      -34.806  84.642  11.332  0.00  0.00    -0.274 N 
ATOM     14  C   LIG    1      -36.044  85.311  11.651  0.00  0.00    +0.172 C 
ATOM     15  N   LIG    1      -33.685  85.354  11.124  0.00  0.00    -0.179 NA
ATOM     16  C   LIG    1      -32.768  84.422  10.855  0.00  0.00    +0.143 A 
ENDBRANCH   6  11
BRANCH  10  17
ATOM     17  N   LIG    1      -31.783  76.084  10.829  0.00  0.00    -0.329 N 
ATOM     18  H   LIG    1      -31.516  75.658   9.945  0.00  0.00    +0.145 HD
ATOM     19  H   LIG    1      -32.497  75.555  11.296  0.00  0.00    +0.145 HD
ENDBRANCH  10  17
ENDBRANCH   1   2
BRANCH   1  23
ATOM     20  C   LIG    1      -26.716  78.052  13.508  0.00  0.00    +0.162 A 
ATOM     21  C   LIG    1      -26.637  78.974  12.452  0.00  0.00    +0.162 A 
ATOM     22  C   LIG    1      -27.585  78.856  11.413  0.00  0.00    +0.054 A 
ATOM     23  C   LIG    1      -28.550  77.847  11.326  0.00  0.00    -0.024 A 
ATOM     24  C   LIG    1      -28.619  76.942  12.369  0.00  0.00    +0.009 A 
ATOM     25  C   LIG    1      -27.722  77.059  13.438  0.00  0.00    +0.050 A 
BRANCH  21  26
ATOM     26  O   LIG    1      -25.725  79.998  12.408  0.00  0.00    -0.491 OA
ATOM     27  C   LIG    1      -25.860  80.957  11.336  0.00  0.00    +0.277 C 
ENDBRANCH  21  26
BRANCH  20  28
ATOM     28  O   LIG    1      -25.995  77.849  14.647  0.00  0.00    -0.484 OA
BRANCH  28  29
ATOM     29  C   LIG    1      -25.605  78.806  15.612  0.00  0.00    +0.264 C 
BRANCH  29  33
ATOM     30  C   LIG    1      -21.274  79.211  15.463  0.00  0.00    +0.120 A 
ATOM     31  C   LIG    1      -22.062  80.243  15.968  0.00  0.00    +0.046 A 
ATOM     32  C   LIG    1      -23.451  80.101  16.071  0.00  0.00    +0.010 A 
ATOM     33  C   LIG    1      -24.089  78.925  15.643  0.00  0.00    -0.010 A 
ATOM     34  C   LIG    1      -23.285  77.865  15.205  0.00  0.00    +0.010 A 
ATOM     35  C   LIG    1      -21.892  78.011  15.100  0.00  0.00    +0.046 A 
BRANCH  30  37
ATOM     36  C   LIG    1      -19.108  78.991  16.380  0.00  0.00    +0.277 C 
ATOM     37  O   LIG    1      -19.922  79.308  15.251  0.00  0.00    -0.495 OA
ENDBRANCH  30  37
ENDBRANCH  29  33
ENDBRANCH  28  29
ENDBRANCH  20  28
ENDBRANCH   1  23
TORSDOF 9
ENDMDL
MODEL 6
REMARK VINA RESULT:      -6.0      6.141      9.698
REMARK  Name = pdb/CHEMBL3673452.pdb
REMARK                            x       y       z     vdW  Elec       q    Type
REMARK                         _______ _______ _______ _____ _____    ______ ____
ROOT
ATOM      1  C   LIG    1      -28.440  74.460  32.983  0.00  0.00    +0.161 C 
ENDROOT
BRANCH   1   2
ATOM      2  N   LIG    1      -27.708  75.512  32.319  0.00  0.00    -0.293 N 
ATOM      3  C   LIG    1      -26.446  75.407  31.777  0.00  0.00    +0.162 A 
ATOM      4  N   LIG    1      -25.652  74.313  31.732  0.00  0.00    -0.235 NA
ATOM      5  C   LIG    1      -24.396  74.602  31.312  0.00  0.00    +0.121 A 
ATOM      6  C   LIG    1      -23.924  75.852  30.902  0.00  0.00    +0.005 A 
ATOM      7  C   LIG    1      -24.829  76.924  30.889  0.00  0.00    +0.041 A 
ATOM      8  C   LIG    1      -26.128  76.683  31.348  0.00  0.00    +0.110 A 
ATOM      9  N   LIG    1      -27.214  77.518  31.488  0.00  0.00    -0.213 NA
ATOM     10  C   LIG    1      -28.131  76.798  32.043  0.00  0.00    +0.195 A 
BRANCH   6  11
ATOM     11  C   LIG    1      -22.534  76.030  30.532  0.00  0.00    +0.021 A 
ATOM     12  C   LIG    1      -21.454  75.527  31.227  0.00  0.00    +0.116 A 
ATOM     13  N   LIG    1      -20.339  75.925  30.547  0.00  0.00    -0.274 N 
ATOM     14  C   LIG    1      -18.973  75.639  30.909  0.00  0.00    +0.172 C 
ATOM     15  N   LIG    1      -20.612  76.657  29.453  0.00  0.00    -0.179 NA
ATOM     16  C   LIG    1      -21.946  76.717  29.441  0.00  0.00    +0.143 A 
ENDBRANCH   6  11
BRANCH  10  17
ATOM     17  N   LIG    1      -29.386  77.225  32.339  0.00  0.00    -0.329 N 
ATOM     18  H   LIG    1      -29.836  77.696  31.556  0.00  0.00    +0.145 HD
ATOM     19  H   LIG    1      -29.565  77.695  33.207  0.00  0.00    +0.145 HD
ENDBRANCH  10  17
ENDBRANCH   1   2
BRANCH   1  23
ATOM     20  C   LIG    1      -30.185  71.552  30.232  0.00  0.00    +0.162 A 
ATOM     21  C   LIG    1      -28.993  71.272  30.919  0.00  0.00    +0.162 A 
ATOM     22  C   LIG    1      -28.517  72.247  31.821  0.00  0.00    +0.054 A 
ATOM     23  C   LIG    1      -29.110  73.497  32.028  0.00  0.00    -0.024 A 
ATOM     24  C   LIG    1      -30.282  73.765  31.345  0.00  0.00    +0.009 A 
ATOM     25  C   LIG    1      -30.805  72.801  30.476  0.00  0.00    +0.050 A 
BRANCH  21  26
ATOM     26  O   LIG    1      -28.305  70.091  30.790  0.00  0.00    -0.491 OA
ATOM     27  C   LIG    1      -27.168  69.893  31.658  0.00  0.00    +0.277 C 
ENDBRANCH  21  26
BRANCH  20  28
ATOM     28  O   LIG    1      -30.927  70.882  29.305  0.00  0.00    -0.484 OA
BRANCH  28  29
ATOM     29  C   LIG    1      -31.983  69.969  29.530  0.00  0.00    +0.264 C 
BRANCH  29  33
ATOM     30  C   LIG    1      -34.841  70.517  26.294  0.00  0.00    +0.120 A 
ATOM     31  C   LIG    1      -34.158  69.311  26.435  0.00  0.00    +0.046 A 
ATOM     32  C   LIG    1      -33.278  69.105  27.504  0.00  0.00    +0.010 A 
ATOM     33  C   LIG    1      -33.041  70.119  28.447  0.00  0.00    -0.010 A 
ATOM     34  C   LIG    1      -33.784  71.301  28.340  0.00  0.00    +0.010 A 
ATOM     35  C   LIG    1      -34.664  71.506  27.265  0.00  0.00    +0.046 A 
BRANCH  30  37
ATOM     36  C   LIG    1      -36.876  70.094  25.170  0.00  0.00    +0.277 C 
ATOM     37  O   LIG    1      -35.649  70.823  25.228  0.00  0.00    -0.495 OA
ENDBRANCH  30  37
ENDBRANCH  29  33
ENDBRANCH  28  29
ENDBRANCH  20  28
ENDBRANCH   1  23
TORSDOF 9
ENDMDL
MODEL 7
REMARK VINA RESULT:      -5.9      6.075      9.618
REMARK  Name = pdb/CHEMBL3673452.pdb
REMARK                            x       y       z     vdW  Elec       q    Type
REMARK                         _______ _______ _______ _____ _____    ______ ____
ROOT
ATOM      1  C   LIG    1      -41.574  71.957  24.243  0.00  0.00    +0.161 C 
ENDROOT
BRANCH   1   2
ATOM      2  N   LIG    1      -41.144  71.067  23.190  0.00  0.00    -0.293 N 
ATOM      3  C   LIG    1      -40.033  70.254  23.218  0.00  0.00    +0.162 A 
ATOM      4  N   LIG    1      -39.141  70.102  24.223  0.00  0.00    -0.235 NA
ATOM      5  C   LIG    1      -38.057  69.381  23.847  0.00  0.00    +0.121 A 
ATOM      6  C   LIG    1      -37.845  68.784  22.602  0.00  0.00    +0.005 A 
ATOM      7  C   LIG    1      -38.855  68.908  21.635  0.00  0.00    +0.041 A 
ATOM      8  C   LIG    1      -39.978  69.673  21.963  0.00  0.00    +0.110 A 
ATOM      9  N   LIG    1      -41.099  70.004  21.234  0.00  0.00    -0.213 NA
ATOM     10  C   LIG    1      -41.773  70.807  21.988  0.00  0.00    +0.195 A 
BRANCH   6  11
ATOM     11  C   LIG    1      -36.606  68.088  22.318  0.00  0.00    +0.021 A 
ATOM     12  C   LIG    1      -36.304  67.450  21.133  0.00  0.00    +0.116 A 
ATOM     13  N   LIG    1      -35.053  66.926  21.286  0.00  0.00    -0.274 N 
ATOM     14  C   LIG    1      -34.323  66.161  20.305  0.00  0.00    +0.172 C 
ATOM     15  N   LIG    1      -34.512  67.175  22.491  0.00  0.00    -0.179 NA
ATOM     16  C   LIG    1      -35.454  67.886  23.116  0.00  0.00    +0.143 A 
ENDBRANCH   6  11
BRANCH  10  17
ATOM     17  N   LIG    1      -42.973  71.357  21.665  0.00  0.00    -0.329 N 
ATOM     18  H   LIG    1      -43.752  70.900  22.132  0.00  0.00    +0.145 HD
ATOM     19  H   LIG    1      -43.186  71.572  20.709  0.00  0.00    +0.145 HD
ENDBRANCH  10  17
ENDBRANCH   1   2
BRANCH   1  23
ATOM     20  C   LIG    1      -39.999  76.013  23.859  0.00  0.00    +0.162 A 
ATOM     21  C   LIG    1      -39.231  74.991  24.442  0.00  0.00    +0.162 A 
ATOM     22  C   LIG    1      -39.796  73.699  24.490  0.00  0.00    +0.054 A 
ATOM     23  C   LIG    1      -41.090  73.379  24.063  0.00  0.00    -0.024 A 
ATOM     24  C   LIG    1      -41.839  74.391  23.493  0.00  0.00    +0.009 A 
ATOM     25  C   LIG    1      -41.290  75.675  23.389  0.00  0.00    +0.050 A 
BRANCH  21  26
ATOM     26  O   LIG    1      -37.957  75.179  24.916  0.00  0.00    -0.491 OA
ATOM     27  C   LIG    1      -37.820  75.580  26.297  0.00  0.00    +0.277 C 
ENDBRANCH  21  26
BRANCH  20  28
ATOM     28  O   LIG    1      -39.802  77.345  23.646  0.00  0.00    -0.484 OA
BRANCH  28  29
ATOM     29  C   LIG    1      -39.730  78.379  24.609  0.00  0.00    +0.264 C 
BRANCH  29  33
ATOM     30  C   LIG    1      -41.341  81.957  22.726  0.00  0.00    +0.120 A 
ATOM     31  C   LIG    1      -42.160  81.138  23.501  0.00  0.00    +0.046 A 
ATOM     32  C   LIG    1      -41.638  80.015  24.155  0.00  0.00    +0.010 A 
ATOM     33  C   LIG    1      -40.283  79.671  24.026  0.00  0.00    -0.010 A 
ATOM     34  C   LIG    1      -39.451  80.537  23.306  0.00  0.00    +0.010 A 
ATOM     35  C   LIG    1      -39.977  81.661  22.648  0.00  0.00    +0.046 A 
BRANCH  30  37
ATOM     36  C   LIG    1      -40.894  83.485  20.980  0.00  0.00    +0.277 C 
ATOM     37  O   LIG    1      -41.794  83.020  21.987  0.00  0.00    -0.495 OA
ENDBRANCH  30  37
ENDBRANCH  29  33
ENDBRANCH  28  29
ENDBRANCH  20  28
ENDBRANCH   1  23
TORSDOF 9
ENDMDL
MODEL 8
REMARK VINA RESULT:      -5.9      7.231     11.523
REMARK  Name = pdb/CHEMBL3673452.pdb
REMARK                            x       y       z     vdW  Elec       q    Type
REMARK                         _______ _______ _______ _____ _____    ______ ____
ROOT
ATOM      1  C   LIG    1      -38.127  68.244  23.617  0.00  0.00    +0.161 C 
ENDROOT
BRANCH   1   2
ATOM      2  N   LIG    1      -37.734  69.544  24.108  0.00  0.00    -0.293 N 
ATOM      3  C   LIG    1      -38.536  70.661  24.180  0.00  0.00    +0.162 A 
ATOM      4  N   LIG    1      -39.840  70.770  23.836  0.00  0.00    -0.235 NA
ATOM      5  C   LIG    1      -40.270  72.056  23.838  0.00  0.00    +0.121 A 
ATOM      6  C   LIG    1      -39.524  73.181  24.199  0.00  0.00    +0.005 A 
ATOM      7  C   LIG    1      -38.204  72.983  24.632  0.00  0.00    +0.041 A 
ATOM      8  C   LIG    1      -37.703  71.678  24.613  0.00  0.00    +0.110 A 
ATOM      9  N   LIG    1      -36.464  71.173  24.938  0.00  0.00    -0.213 NA
ATOM     10  C   LIG    1      -36.519  69.916  24.648  0.00  0.00    +0.195 A 
BRANCH   6  11
ATOM     11  C   LIG    1      -40.097  74.509  24.098  0.00  0.00    +0.021 A 
ATOM     12  C   LIG    1      -39.469  75.678  24.472  0.00  0.00    +0.116 A 
ATOM     13  N   LIG    1      -40.351  76.688  24.217  0.00  0.00    -0.274 N 
ATOM     14  C   LIG    1      -40.132  78.092  24.459  0.00  0.00    +0.172 C 
ATOM     15  N   LIG    1      -41.518  76.262  23.703  0.00  0.00    -0.179 NA
ATOM     16  C   LIG    1      -41.361  74.938  23.625  0.00  0.00    +0.143 A 
ENDBRANCH   6  11
BRANCH  10  17
ATOM     17  N   LIG    1      -35.510  69.026  24.840  0.00  0.00    -0.329 N 
ATOM     18  H   LIG    1      -35.192  68.600  23.972  0.00  0.00    +0.145 HD
ATOM     19  H   LIG    1      -35.566  68.357  25.585  0.00  0.00    +0.145 HD
ENDBRANCH  10  17
ENDBRANCH   1   2
BRANCH   1  23
ATOM     20  C   LIG    1      -36.679  67.261  19.616  0.00  0.00    +0.162 A 
ATOM     21  C   LIG    1      -36.578  66.337  20.668  0.00  0.00    +0.162 A 
ATOM     22  C   LIG    1      -37.108  66.716  21.920  0.00  0.00    +0.054 A 
ATOM     23  C   LIG    1      -37.662  67.969  22.204  0.00  0.00    -0.024 A 
ATOM     24  C   LIG    1      -37.756  68.873  21.163  0.00  0.00    +0.009 A 
ATOM     25  C   LIG    1      -37.280  68.512  19.896  0.00  0.00    +0.050 A 
BRANCH  21  26
ATOM     26  O   LIG    1      -36.039  65.083  20.525  0.00  0.00    -0.491 OA
ATOM     27  C   LIG    1      -36.935  64.021  20.134  0.00  0.00    +0.277 C 
ENDBRANCH  21  26
BRANCH  20  28
ATOM     28  O   LIG    1      -36.290  67.259  18.309  0.00  0.00    -0.484 OA
BRANCH  28  29
ATOM     29  C   LIG    1      -35.341  66.415  17.686  0.00  0.00    +0.264 C 
BRANCH  29  33
ATOM     30  C   LIG    1      -31.422  68.130  18.488  0.00  0.00    +0.120 A 
ATOM     31  C   LIG    1      -31.959  67.168  19.340  0.00  0.00    +0.046 A 
ATOM     32  C   LIG    1      -33.194  66.571  19.061  0.00  0.00    +0.010 A 
ATOM     33  C   LIG    1      -33.936  66.945  17.929  0.00  0.00    -0.010 A 
ATOM     34  C   LIG    1      -33.358  67.859  17.038  0.00  0.00    +0.010 A 
ATOM     35  C   LIG    1      -32.120  68.459  17.323  0.00  0.00    +0.046 A 
BRANCH  30  37
ATOM     36  C   LIG    1      -29.238  68.661  17.757  0.00  0.00    +0.277 C 
ATOM     37  O   LIG    1      -30.263  68.821  18.739  0.00  0.00    -0.495 OA
ENDBRANCH  30  37
ENDBRANCH  29  33
ENDBRANCH  28  29
ENDBRANCH  20  28
ENDBRANCH   1  23
TORSDOF 9
ENDMDL
MODEL 9
REMARK VINA RESULT:      -5.9      4.188      7.945
REMARK  Name = pdb/CHEMBL3673452.pdb
REMARK                            x       y       z     vdW  Elec       q    Type
REMARK                         _______ _______ _______ _____ _____    ______ ____
ROOT
ATOM      1  C   LIG    1      -37.652  79.157  28.402  0.00  0.00    +0.161 C 
ENDROOT
BRANCH   1   2
ATOM      2  N   LIG    1      -36.825  80.260  27.973  0.00  0.00    -0.293 N 
ATOM      3  C   LIG    1      -37.252  81.377  27.290  0.00  0.00    +0.162 A 
ATOM      4  N   LIG    1      -38.512  81.683  26.906  0.00  0.00    -0.235 NA
ATOM      5  C   LIG    1      -38.554  82.755  26.078  0.00  0.00    +0.121 A 
ATOM      6  C   LIG    1      -37.468  83.536  25.672  0.00  0.00    +0.005 A 
ATOM      7  C   LIG    1      -36.201  83.215  26.182  0.00  0.00    +0.041 A 
ATOM      8  C   LIG    1      -36.101  82.094  27.014  0.00  0.00    +0.110 A 
ATOM      9  N   LIG    1      -35.016  81.513  27.631  0.00  0.00    -0.213 NA
ATOM     10  C   LIG    1      -35.475  80.449  28.202  0.00  0.00    +0.195 A 
BRANCH   6  11
ATOM     11  C   LIG    1      -37.652  84.623  24.731  0.00  0.00    +0.021 A 
ATOM     12  C   LIG    1      -37.090  85.878  24.844  0.00  0.00    +0.116 A 
ATOM     13  N   LIG    1      -37.517  86.589  23.761  0.00  0.00    -0.274 N 
ATOM     14  C   LIG    1      -37.191  87.962  23.459  0.00  0.00    +0.172 C 
ATOM     15  N   LIG    1      -38.323  85.890  22.944  0.00  0.00    -0.179 NA
ATOM     16  C   LIG    1      -38.401  84.693  23.531  0.00  0.00    +0.143 A 
ENDBRANCH   6  11
BRANCH  10  17
ATOM     17  N   LIG    1      -34.741  79.586  28.952  0.00  0.00    -0.329 N 
ATOM     18  H   LIG    1      -33.740  79.720  28.836  0.00  0.00    +0.145 HD
ATOM     19  H   LIG    1      -34.986  78.614  28.981  0.00  0.00    +0.145 HD
ENDBRANCH  10  17
ENDBRANCH   1   2
BRANCH   1  23
ATOM     20  C   LIG    1      -38.158  76.020  25.406  0.00  0.00    +0.162 A 
ATOM     21  C   LIG    1      -39.106  77.047  25.544  0.00  0.00    +0.162 A 
ATOM     22  C   LIG    1      -38.847  78.045  26.507  0.00  0.00    +0.054 A 
ATOM     23  C   LIG    1      -37.753  78.047  27.379  0.00  0.00    -0.024 A 
ATOM     24  C   LIG    1      -36.826  77.031  27.237  0.00  0.00    +0.009 A 
ATOM     25  C   LIG    1      -37.030  76.049  26.260  0.00  0.00    +0.050 A 
BRANCH  21  26
ATOM     26  O   LIG    1      -40.231  77.148  24.765  0.00  0.00    -0.491 OA
ATOM     27  C   LIG    1      -40.054  77.610  23.408  0.00  0.00    +0.277 C 
ENDBRANCH  21  26
BRANCH  20  28
ATOM     28  O   LIG    1      -38.066  74.912  24.616  0.00  0.00    -0.484 OA
BRANCH  28  29
ATOM     29  C   LIG    1      -38.232  73.559  24.993  0.00  0.00    +0.264 C 
BRANCH  29  33
ATOM     30  C   LIG    1      -41.669  71.962  22.852  0.00  0.00    +0.120 A 
ATOM     31  C   LIG    1      -40.660  71.112  23.301  0.00  0.00    +0.046 A 
ATOM     32  C   LIG    1      -39.579  71.609  24.038  0.00  0.00    +0.010 A 
ATOM     33  C   LIG    1      -39.468  72.980  24.321  0.00  0.00    -0.010 A 
ATOM     34  C   LIG    1      -40.521  73.817  23.930  0.00  0.00    +0.010 A 
ATOM     35  C   LIG    1      -41.604  73.317  23.188  0.00  0.00    +0.046 A 
BRANCH  30  37
ATOM     36  C   LIG    1      -42.339  71.135  20.743  0.00  0.00    +0.277 C 
ATOM     37  O   LIG    1      -42.711  71.564  22.053  0.00  0.00    -0.495 OA
ENDBRANCH  30  37
ENDBRANCH  29  33
ENDBRANCH  28  29
ENDBRANCH  20  28
ENDBRANCH   1  23
TORSDOF 9
ENDMDL
