MODEL 1
REMARK VINA RESULT:      -7.3      0.000      0.000
REMARK  Name = pdb/CHEMBL3950400.pdb
REMARK                            x       y       z     vdW  Elec       q    Type
REMARK                         _______ _______ _______ _____ _____    ______ ____
ROOT
ATOM      1  C   LIG    1      -30.075  75.862  31.217  0.00  0.00    +0.149 A 
ATOM      2  N   LIG    1      -29.692  74.575  31.295  0.00  0.00    -0.160 NA
ATOM      3  N   LIG    1      -28.469  74.616  31.919  0.00  0.00    -0.218 N 
ATOM      4  C   LIG    1      -28.046  75.930  32.131  0.00  0.00    +0.129 A 
ATOM      5  C   LIG    1      -29.061  76.724  31.666  0.00  0.00    +0.078 A 
ENDROOT
BRANCH   3   6
ATOM      6  C   LIG    1      -27.814  73.406  32.286  0.00  0.00    +0.067 A 
ATOM      7  C   LIG    1      -26.619  73.003  31.671  0.00  0.00    +0.028 A 
ATOM      8  C   LIG    1      -25.983  71.826  32.081  0.00  0.00    +0.002 A 
ATOM      9  C   LIG    1      -26.541  71.041  33.089  0.00  0.00    +0.000 A 
ATOM     10  C   LIG    1      -27.731  71.432  33.698  0.00  0.00    +0.002 A 
ATOM     11  C   LIG    1      -28.360  72.620  33.312  0.00  0.00    +0.028 A 
ENDBRANCH   3   6
BRANCH   4  12
ATOM     12  N   LIG    1      -26.816  76.384  32.628  0.00  0.00    -0.266 N 
ATOM     13  H   LIG    1      -26.667  76.372  33.629  0.00  0.00    +0.157 HD
ATOM     14  C   LIG    1      -25.770  76.843  31.754  0.00  0.00    +0.251 C 
ATOM     15  O   LIG    1      -25.925  76.874  30.549  0.00  0.00    -0.270 OA
BRANCH  14  16
ATOM     16  C   LIG    1      -24.516  77.356  32.332  0.00  0.00    +0.056 A 
ATOM     17  C   LIG    1      -23.239  76.975  31.923  0.00  0.00    +0.056 A 
ATOM     18 CL   LIG    1      -22.946  75.776  30.718  0.00  0.00    -0.083 Cl
ATOM     19  C   LIG    1      -22.129  77.600  32.489  0.00  0.00    +0.059 A 
ATOM     20  C   LIG    1      -22.295  78.594  33.456  0.00  0.00    +0.134 A 
ATOM     21  F   LIG    1      -21.183  79.151  33.956  0.00  0.00    -0.205 F 
ATOM     22  C   LIG    1      -23.559  78.997  33.905  0.00  0.00    +0.036 A 
ATOM     23  C   LIG    1      -24.662  78.349  33.321  0.00  0.00    +0.027 A 
BRANCH  22  24
ATOM     24  C   LIG    1      -23.765  80.047  34.921  0.00  0.00    +0.074 A 
ATOM     25  N   LIG    1      -24.931  79.960  35.616  0.00  0.00    -0.255 NA
ATOM     26  C   LIG    1      -25.186  80.908  36.547  0.00  0.00    +0.111 A 
ATOM     27  C   LIG    1      -24.333  81.959  36.829  0.00  0.00    +0.020 A 
ATOM     28  C   LIG    1      -23.149  82.045  36.112  0.00  0.00    +0.004 A 
ATOM     29  C   LIG    1      -22.862  81.082  35.146  0.00  0.00    +0.028 A 
ENDBRANCH  22  24
ENDBRANCH  14  16
ENDBRANCH   4  12
BRANCH   1  30
ATOM     30  C   LIG    1      -31.369  76.279  30.681  0.00  0.00    +0.236 C 
ATOM     31  N   LIG    1      -31.549  76.323  29.410  0.00  0.00    -0.244 NA
BRANCH  30  32
ATOM     32  O   LIG    1      -32.316  76.583  31.596  0.00  0.00    -0.491 OA
ATOM     33  H   LIG    1      -32.994  77.150  31.186  0.00  0.00    +0.294 HD
ENDBRANCH  30  32
BRANCH  31  34
ATOM     34  C   LIG    1      -32.890  76.700  28.971  0.00  0.00    +0.183 C 
BRANCH  34  35
ATOM     35  C   LIG    1      -32.805  77.704  27.875  0.00  0.00    +0.011 A 
ATOM     36  C   LIG    1      -32.146  77.576  26.668  0.00  0.00    +0.110 A 
ATOM     37  N   LIG    1      -32.310  78.758  26.009  0.00  0.00    -0.284 N 
ATOM     38  H   LIG    1      -31.956  79.019  25.094  0.00  0.00    +0.188 HD
ATOM     39  N   LIG    1      -33.027  79.658  26.699  0.00  0.00    -0.182 NA
ATOM     40  C   LIG    1      -33.333  79.015  27.830  0.00  0.00    +0.139 A 
ENDBRANCH  34  35
ENDBRANCH  31  34
ENDBRANCH   1  30
TORSDOF 8
ENDMDL
MODEL 2
REMARK VINA RESULT:      -7.1      8.147     13.944
REMARK  Name = pdb/CHEMBL3950400.pdb
REMARK                            x       y       z     vdW  Elec       q    Type
REMARK                         _______ _______ _______ _____ _____    ______ ____
ROOT
ATOM      1  C   LIG    1      -31.362  87.145  30.675  0.00  0.00    +0.149 A 
ATOM      2  N   LIG    1      -32.316  87.973  30.213  0.00  0.00    -0.160 NA
ATOM      3  N   LIG    1      -33.281  87.138  29.705  0.00  0.00    -0.218 N 
ATOM      4  C   LIG    1      -32.881  85.802  29.755  0.00  0.00    +0.129 A 
ATOM      5  C   LIG    1      -31.649  85.807  30.355  0.00  0.00    +0.078 A 
ENDROOT
BRANCH   3   6
ATOM      6  C   LIG    1      -34.516  87.675  29.238  0.00  0.00    +0.067 A 
ATOM      7  C   LIG    1      -35.744  87.267  29.780  0.00  0.00    +0.028 A 
ATOM      8  C   LIG    1      -36.935  87.840  29.322  0.00  0.00    +0.002 A 
ATOM      9  C   LIG    1      -36.909  88.805  28.316  0.00  0.00    +0.000 A 
ATOM     10  C   LIG    1      -35.693  89.208  27.769  0.00  0.00    +0.002 A 
ATOM     11  C   LIG    1      -34.496  88.659  28.239  0.00  0.00    +0.028 A 
ENDBRANCH   3   6
BRANCH   4  12
ATOM     12  N   LIG    1      -33.530  84.674  29.234  0.00  0.00    -0.266 N 
ATOM     13  H   LIG    1      -33.377  84.435  28.262  0.00  0.00    +0.157 HD
ATOM     14  C   LIG    1      -34.383  83.849  30.047  0.00  0.00    +0.251 C 
ATOM     15  O   LIG    1      -34.589  84.116  31.215  0.00  0.00    -0.270 OA
BRANCH  14  16
ATOM     16  C   LIG    1      -35.080  82.703  29.437  0.00  0.00    +0.056 A 
ATOM     17  C   LIG    1      -36.449  82.649  29.186  0.00  0.00    +0.056 A 
ATOM     18 CL   LIG    1      -37.546  83.904  29.630  0.00  0.00    -0.083 Cl
ATOM     19  C   LIG    1      -36.976  81.543  28.521  0.00  0.00    +0.059 A 
ATOM     20  C   LIG    1      -36.140  80.499  28.115  0.00  0.00    +0.134 A 
ATOM     21  F   LIG    1      -36.716  79.468  27.482  0.00  0.00    -0.205 F 
ATOM     22  C   LIG    1      -34.762  80.508  28.360  0.00  0.00    +0.036 A 
ATOM     23  C   LIG    1      -34.255  81.633  29.035  0.00  0.00    +0.027 A 
BRANCH  22  24
ATOM     24  C   LIG    1      -33.854  79.423  27.939  0.00  0.00    +0.074 A 
ATOM     25  N   LIG    1      -33.241  79.612  26.740  0.00  0.00    -0.255 NA
ATOM     26  C   LIG    1      -32.413  78.639  26.291  0.00  0.00    +0.111 A 
ATOM     27  C   LIG    1      -32.159  77.467  26.980  0.00  0.00    +0.020 A 
ATOM     28  C   LIG    1      -32.792  77.279  28.198  0.00  0.00    +0.004 A 
ATOM     29  C   LIG    1      -33.651  78.263  28.683  0.00  0.00    +0.028 A 
ENDBRANCH  22  24
ENDBRANCH  14  16
ENDBRANCH   4  12
BRANCH   1  30
ATOM     30  C   LIG    1      -30.167  87.614  31.372  0.00  0.00    +0.236 C 
ATOM     31  N   LIG    1      -30.121  87.579  32.655  0.00  0.00    -0.244 NA
BRANCH  30  32
ATOM     32  O   LIG    1      -29.159  88.051  30.585  0.00  0.00    -0.491 OA
ATOM     33  H   LIG    1      -28.886  88.943  30.871  0.00  0.00    +0.294 HD
ENDBRANCH  30  32
BRANCH  31  34
ATOM     34  C   LIG    1      -28.866  88.019  33.258  0.00  0.00    +0.183 C 
BRANCH  34  35
ATOM     35  C   LIG    1      -28.354  86.977  34.191  0.00  0.00    +0.011 A 
ATOM     36  C   LIG    1      -28.961  85.785  34.533  0.00  0.00    +0.110 A 
ATOM     37  N   LIG    1      -28.146  85.181  35.444  0.00  0.00    -0.284 N 
ATOM     38  H   LIG    1      -28.281  84.291  35.913  0.00  0.00    +0.188 HD
ATOM     39  N   LIG    1      -27.046  85.894  35.729  0.00  0.00    -0.182 NA
ATOM     40  C   LIG    1      -27.170  86.983  34.964  0.00  0.00    +0.139 A 
ENDBRANCH  34  35
ENDBRANCH  31  34
ENDBRANCH   1  30
TORSDOF 8
ENDMDL
MODEL 3
REMARK VINA RESULT:      -7.0      8.224     14.052
REMARK  Name = pdb/CHEMBL3950400.pdb
REMARK                            x       y       z     vdW  Elec       q    Type
REMARK                         _______ _______ _______ _____ _____    ______ ____
ROOT
ATOM      1  C   LIG    1      -33.034  76.080  28.621  0.00  0.00    +0.149 A 
ATOM      2  N   LIG    1      -33.299  77.374  28.874  0.00  0.00    -0.160 NA
ATOM      3  N   LIG    1      -34.424  77.648  28.134  0.00  0.00    -0.218 N 
ATOM      4  C   LIG    1      -34.792  76.559  27.342  0.00  0.00    +0.129 A 
ATOM      5  C   LIG    1      -33.895  75.566  27.637  0.00  0.00    +0.078 A 
ENDROOT
BRANCH   3   6
ATOM      6  C   LIG    1      -35.072  78.910  28.259  0.00  0.00    +0.067 A 
ATOM      7  C   LIG    1      -36.350  79.026  28.825  0.00  0.00    +0.028 A 
ATOM      8  C   LIG    1      -36.942  80.286  28.964  0.00  0.00    +0.002 A 
ATOM      9  C   LIG    1      -36.274  81.428  28.526  0.00  0.00    +0.000 A 
ATOM     10  C   LIG    1      -35.008  81.318  27.955  0.00  0.00    +0.002 A 
ATOM     11  C   LIG    1      -34.398  80.066  27.836  0.00  0.00    +0.028 A 
ENDBRANCH   3   6
BRANCH   4  12
ATOM     12  N   LIG    1      -35.803  76.483  26.373  0.00  0.00    -0.266 N 
ATOM     13  H   LIG    1      -35.585  76.766  25.426  0.00  0.00    +0.157 HD
ATOM     14  C   LIG    1      -37.121  76.002  26.690  0.00  0.00    +0.251 C 
ATOM     15  O   LIG    1      -37.412  75.664  27.821  0.00  0.00    -0.270 OA
BRANCH  14  16
ATOM     16  C   LIG    1      -38.160  75.991  25.646  0.00  0.00    +0.056 A 
ATOM     17  C   LIG    1      -38.707  74.839  25.083  0.00  0.00    +0.056 A 
ATOM     18 CL   LIG    1      -38.182  73.246  25.483  0.00  0.00    -0.083 Cl
ATOM     19  C   LIG    1      -39.749  74.961  24.164  0.00  0.00    +0.059 A 
ATOM     20  C   LIG    1      -40.235  76.221  23.811  0.00  0.00    +0.134 A 
ATOM     21  F   LIG    1      -41.238  76.261  22.922  0.00  0.00    -0.205 F 
ATOM     22  C   LIG    1      -39.706  77.403  24.342  0.00  0.00    +0.036 A 
ATOM     23  C   LIG    1      -38.653  77.255  25.264  0.00  0.00    +0.027 A 
BRANCH  22  24
ATOM     24  C   LIG    1      -40.202  78.748  23.991  0.00  0.00    +0.074 A 
ATOM     25  N   LIG    1      -39.275  79.587  23.457  0.00  0.00    -0.255 NA
ATOM     26  C   LIG    1      -39.667  80.842  23.136  0.00  0.00    +0.111 A 
ATOM     27  C   LIG    1      -40.952  81.318  23.322  0.00  0.00    +0.020 A 
ATOM     28  C   LIG    1      -41.890  80.459  23.873  0.00  0.00    +0.004 A 
ATOM     29  C   LIG    1      -41.513  79.162  24.214  0.00  0.00    +0.028 A 
ENDBRANCH  22  24
ENDBRANCH  14  16
ENDBRANCH   4  12
BRANCH   1  30
ATOM     30  C   LIG    1      -31.948  75.347  29.267  0.00  0.00    +0.236 C 
ATOM     31  N   LIG    1      -32.057  74.081  29.456  0.00  0.00    -0.244 NA
BRANCH  30  32
ATOM     32  O   LIG    1      -30.868  76.079  29.615  0.00  0.00    -0.491 OA
ATOM     33  H   LIG    1      -30.062  75.539  29.515  0.00  0.00    +0.294 HD
ENDBRANCH  30  32
BRANCH  31  34
ATOM     34  C   LIG    1      -30.899  73.428  30.060  0.00  0.00    +0.183 C 
BRANCH  34  35
ATOM     35  C   LIG    1      -30.990  71.953  29.874  0.00  0.00    +0.011 A 
ATOM     36  C   LIG    1      -29.976  71.025  30.006  0.00  0.00    +0.110 A 
ATOM     37  N   LIG    1      -30.517  69.812  29.702  0.00  0.00    -0.284 N 
ATOM     38  H   LIG    1      -30.059  68.906  29.691  0.00  0.00    +0.188 HD
ATOM     39  N   LIG    1      -31.817  69.875  29.375  0.00  0.00    -0.182 NA
ATOM     40  C   LIG    1      -32.105  71.175  29.486  0.00  0.00    +0.139 A 
ENDBRANCH  34  35
ENDBRANCH  31  34
ENDBRANCH   1  30
TORSDOF 8
ENDMDL
MODEL 4
REMARK VINA RESULT:      -6.9     10.370     16.615
REMARK  Name = pdb/CHEMBL3950400.pdb
REMARK                            x       y       z     vdW  Elec       q    Type
REMARK                         _______ _______ _______ _____ _____    ______ ____
ROOT
ATOM      1  C   LIG    1      -37.735  76.640  26.263  0.00  0.00    +0.149 A 
ATOM      2  N   LIG    1      -38.936  77.152  25.944  0.00  0.00    -0.160 NA
ATOM      3  N   LIG    1      -39.558  76.155  25.232  0.00  0.00    -0.218 N 
ATOM      4  C   LIG    1      -38.705  75.070  25.019  0.00  0.00    +0.129 A 
ATOM      5  C   LIG    1      -37.536  75.387  25.660  0.00  0.00    +0.078 A 
ENDROOT
BRANCH   3   6
ATOM      6  C   LIG    1      -40.918  76.301  24.835  0.00  0.00    +0.067 A 
ATOM      7  C   LIG    1      -41.971  76.131  25.746  0.00  0.00    +0.028 A 
ATOM      8  C   LIG    1      -43.294  76.317  25.330  0.00  0.00    +0.002 A 
ATOM      9  C   LIG    1      -43.573  76.657  24.007  0.00  0.00    +0.000 A 
ATOM     10  C   LIG    1      -42.531  76.820  23.096  0.00  0.00    +0.002 A 
ATOM     11  C   LIG    1      -41.205  76.660  23.510  0.00  0.00    +0.028 A 
ENDBRANCH   3   6
BRANCH   4  12
ATOM     12  N   LIG    1      -38.927  73.921  24.247  0.00  0.00    -0.266 N 
ATOM     13  H   LIG    1      -38.504  73.868  23.329  0.00  0.00    +0.157 HD
ATOM     14  C   LIG    1      -39.719  72.823  24.734  0.00  0.00    +0.251 C 
ATOM     15  O   LIG    1      -40.244  72.863  25.829  0.00  0.00    -0.270 OA
BRANCH  14  16
ATOM     16  C   LIG    1      -39.961  71.661  23.862  0.00  0.00    +0.056 A 
ATOM     17  C   LIG    1      -41.037  71.536  22.986  0.00  0.00    +0.056 A 
ATOM     18 CL   LIG    1      -42.294  72.709  22.854  0.00  0.00    -0.083 Cl
ATOM     19  C   LIG    1      -41.106  70.424  22.147  0.00  0.00    +0.059 A 
ATOM     20  C   LIG    1      -40.111  69.446  22.188  0.00  0.00    +0.134 A 
ATOM     21  F   LIG    1      -40.243  68.405  21.354  0.00  0.00    -0.205 F 
ATOM     22  C   LIG    1      -39.020  69.525  23.063  0.00  0.00    +0.036 A 
ATOM     23  C   LIG    1      -38.975  70.654  23.900  0.00  0.00    +0.027 A 
BRANCH  22  24
ATOM     24  C   LIG    1      -37.951  68.510  23.125  0.00  0.00    +0.074 A 
ATOM     25  N   LIG    1      -36.802  68.836  22.475  0.00  0.00    -0.255 NA
ATOM     26  C   LIG    1      -35.793  67.934  22.479  0.00  0.00    +0.111 A 
ATOM     27  C   LIG    1      -35.866  66.702  23.102  0.00  0.00    +0.020 A 
ATOM     28  C   LIG    1      -37.042  66.373  23.758  0.00  0.00    +0.004 A 
ATOM     29  C   LIG    1      -38.097  67.283  23.768  0.00  0.00    +0.028 A 
ENDBRANCH  22  24
ENDBRANCH  14  16
ENDBRANCH   4  12
BRANCH   1  30
ATOM     30  C   LIG    1      -36.762  77.346  27.094  0.00  0.00    +0.236 C 
ATOM     31  N   LIG    1      -35.795  76.697  27.636  0.00  0.00    -0.244 NA
BRANCH  30  32
ATOM     32  O   LIG    1      -36.951  78.678  27.220  0.00  0.00    -0.491 OA
ATOM     33  H   LIG    1      -36.891  78.928  28.160  0.00  0.00    +0.294 HD
ENDBRANCH  30  32
BRANCH  31  34
ATOM     34  C   LIG    1      -34.845  77.498  28.404  0.00  0.00    +0.183 C 
BRANCH  34  35
ATOM     35  C   LIG    1      -33.704  77.905  27.538  0.00  0.00    +0.011 A 
ATOM     36  C   LIG    1      -33.299  79.189  27.231  0.00  0.00    +0.110 A 
ATOM     37  N   LIG    1      -32.243  79.070  26.377  0.00  0.00    -0.284 N 
ATOM     38  H   LIG    1      -31.700  79.811  25.946  0.00  0.00    +0.188 HD
ATOM     39  N   LIG    1      -31.927  77.797  26.096  0.00  0.00    -0.182 NA
ATOM     40  C   LIG    1      -32.811  77.090  26.806  0.00  0.00    +0.139 A 
ENDBRANCH  34  35
ENDBRANCH  31  34
ENDBRANCH   1  30
TORSDOF 8
ENDMDL
MODEL 5
REMARK VINA RESULT:      -6.9      9.148     13.933
REMARK  Name = pdb/CHEMBL3950400.pdb
REMARK                            x       y       z     vdW  Elec       q    Type
REMARK                         _______ _______ _______ _____ _____    ______ ____
ROOT
ATOM      1  C   LIG    1      -35.163  81.553  29.865  0.00  0.00    +0.149 A 
ATOM      2  N   LIG    1      -34.535  80.377  30.048  0.00  0.00    -0.160 NA
ATOM      3  N   LIG    1      -34.959  79.593  29.003  0.00  0.00    -0.218 N 
ATOM      4  C   LIG    1      -35.928  80.243  28.235  0.00  0.00    +0.129 A 
ATOM      5  C   LIG    1      -36.072  81.485  28.797  0.00  0.00    +0.078 A 
ENDROOT
BRANCH   3   6
ATOM      6  C   LIG    1      -34.391  78.303  28.802  0.00  0.00    +0.067 A 
ATOM      7  C   LIG    1      -33.338  78.097  27.899  0.00  0.00    +0.028 A 
ATOM      8  C   LIG    1      -32.780  76.822  27.752  0.00  0.00    +0.002 A 
ATOM      9  C   LIG    1      -33.278  75.748  28.490  0.00  0.00    +0.000 A 
ATOM     10  C   LIG    1      -34.329  75.946  29.383  0.00  0.00    +0.002 A 
ATOM     11  C   LIG    1      -34.875  77.221  29.553  0.00  0.00    +0.028 A 
ENDBRANCH   3   6
BRANCH   4  12
ATOM     12  N   LIG    1      -36.680  79.738  27.166  0.00  0.00    -0.266 N 
ATOM     13  H   LIG    1      -36.360  79.918  26.223  0.00  0.00    +0.157 HD
ATOM     14  C   LIG    1      -37.874  78.963  27.380  0.00  0.00    +0.251 C 
ATOM     15  O   LIG    1      -38.285  78.738  28.501  0.00  0.00    -0.270 OA
BRANCH  14  16
ATOM     16  C   LIG    1      -38.654  78.499  26.221  0.00  0.00    +0.056 A 
ATOM     17  C   LIG    1      -39.307  79.334  25.317  0.00  0.00    +0.056 A 
ATOM     18 CL   LIG    1      -39.355  81.051  25.475  0.00  0.00    -0.083 Cl
ATOM     19  C   LIG    1      -39.940  78.774  24.207  0.00  0.00    +0.059 A 
ATOM     20  C   LIG    1      -39.922  77.392  24.008  0.00  0.00    +0.134 A 
ATOM     21  F   LIG    1      -40.550  76.925  22.920  0.00  0.00    -0.205 F 
ATOM     22  C   LIG    1      -39.289  76.516  24.898  0.00  0.00    +0.036 A 
ATOM     23  C   LIG    1      -38.662  77.105  26.010  0.00  0.00    +0.027 A 
BRANCH  22  24
ATOM     24  C   LIG    1      -39.250  75.053  24.710  0.00  0.00    +0.074 A 
ATOM     25  N   LIG    1      -38.107  74.445  25.126  0.00  0.00    -0.255 NA
ATOM     26  C   LIG    1      -38.004  73.106  24.959  0.00  0.00    +0.111 A 
ATOM     27  C   LIG    1      -38.991  72.324  24.389  0.00  0.00    +0.020 A 
ATOM     28  C   LIG    1      -40.151  72.950  23.962  0.00  0.00    +0.004 A 
ATOM     29  C   LIG    1      -40.283  74.329  24.120  0.00  0.00    +0.028 A 
ENDBRANCH  22  24
ENDBRANCH  14  16
ENDBRANCH   4  12
BRANCH   1  30
ATOM     30  C   LIG    1      -34.942  82.717  30.720  0.00  0.00    +0.236 C 
ATOM     31  N   LIG    1      -33.783  83.270  30.758  0.00  0.00    -0.244 NA
BRANCH  30  32
ATOM     32  O   LIG    1      -36.015  83.148  31.418  0.00  0.00    -0.491 OA
ATOM     33  H   LIG    1      -36.766  83.283  30.811  0.00  0.00    +0.294 HD
ENDBRANCH  30  32
BRANCH  31  34
ATOM     34  C   LIG    1      -33.674  84.458  31.600  0.00  0.00    +0.183 C 
BRANCH  34  35
ATOM     35  C   LIG    1      -32.403  85.176  31.309  0.00  0.00    +0.011 A 
ATOM     36  C   LIG    1      -31.482  85.658  32.218  0.00  0.00    +0.110 A 
ATOM     37  N   LIG    1      -30.506  86.274  31.493  0.00  0.00    -0.284 N 
ATOM     38  H   LIG    1      -29.673  86.743  31.835  0.00  0.00    +0.188 HD
ATOM     39  N   LIG    1      -30.720  86.236  30.169  0.00  0.00    -0.182 NA
ATOM     40  C   LIG    1      -31.870  85.564  30.057  0.00  0.00    +0.139 A 
ENDBRANCH  34  35
ENDBRANCH  31  34
ENDBRANCH   1  30
TORSDOF 8
ENDMDL
MODEL 6
REMARK VINA RESULT:      -6.8      7.468     13.640
REMARK  Name = pdb/CHEMBL3950400.pdb
REMARK                            x       y       z     vdW  Elec       q    Type
REMARK                         _______ _______ _______ _____ _____    ______ ____
ROOT
ATOM      1  C   LIG    1      -32.141  74.084  29.816  0.00  0.00    +0.149 A 
ATOM      2  N   LIG    1      -31.872  75.365  29.504  0.00  0.00    -0.160 NA
ATOM      3  N   LIG    1      -32.875  75.728  28.639  0.00  0.00    -0.218 N 
ATOM      4  C   LIG    1      -33.702  74.646  28.330  0.00  0.00    +0.129 A 
ATOM      5  C   LIG    1      -33.223  73.593  29.065  0.00  0.00    +0.078 A 
ENDROOT
BRANCH   3   6
ATOM      6  C   LIG    1      -32.982  77.077  28.195  0.00  0.00    +0.067 A 
ATOM      7  C   LIG    1      -32.241  77.551  27.103  0.00  0.00    +0.028 A 
ATOM      8  C   LIG    1      -32.397  78.873  26.672  0.00  0.00    +0.002 A 
ATOM      9  C   LIG    1      -33.276  79.729  27.335  0.00  0.00    +0.000 A 
ATOM     10  C   LIG    1      -34.009  79.266  28.425  0.00  0.00    +0.002 A 
ATOM     11  C   LIG    1      -33.877  77.939  28.846  0.00  0.00    +0.028 A 
ENDBRANCH   3   6
BRANCH   4  12
ATOM     12  N   LIG    1      -34.753  74.584  27.405  0.00  0.00    -0.266 N 
ATOM     13  H   LIG    1      -34.544  74.303  26.456  0.00  0.00    +0.157 HD
ATOM     14  C   LIG    1      -36.109  74.890  27.779  0.00  0.00    +0.251 C 
ATOM     15  O   LIG    1      -36.386  75.237  28.910  0.00  0.00    -0.270 OA
BRANCH  14  16
ATOM     16  C   LIG    1      -37.167  74.857  26.755  0.00  0.00    +0.056 A 
ATOM     17  C   LIG    1      -37.862  75.974  26.295  0.00  0.00    +0.056 A 
ATOM     18 CL   LIG    1      -37.626  77.563  26.922  0.00  0.00    -0.083 Cl
ATOM     19  C   LIG    1      -38.781  75.824  25.257  0.00  0.00    +0.059 A 
ATOM     20  C   LIG    1      -39.005  74.568  24.690  0.00  0.00    +0.134 A 
ATOM     21  F   LIG    1      -39.903  74.499  23.697  0.00  0.00    -0.205 F 
ATOM     22  C   LIG    1      -38.340  73.418  25.131  0.00  0.00    +0.036 A 
ATOM     23  C   LIG    1      -37.420  73.595  26.181  0.00  0.00    +0.027 A 
BRANCH  22  24
ATOM     24  C   LIG    1      -38.553  72.079  24.548  0.00  0.00    +0.074 A 
ATOM     25  N   LIG    1      -37.424  71.350  24.341  0.00  0.00    -0.255 NA
ATOM     26  C   LIG    1      -37.555  70.122  23.788  0.00  0.00    +0.111 A 
ATOM     27  C   LIG    1      -38.768  69.570  23.419  0.00  0.00    +0.020 A 
ATOM     28  C   LIG    1      -39.914  70.321  23.627  0.00  0.00    +0.004 A 
ATOM     29  C   LIG    1      -39.808  71.590  24.194  0.00  0.00    +0.028 A 
ENDBRANCH  22  24
ENDBRANCH  14  16
ENDBRANCH   4  12
BRANCH   1  30
ATOM     30  C   LIG    1      -31.357  73.315  30.779  0.00  0.00    +0.236 C 
ATOM     31  N   LIG    1      -30.075  73.301  30.691  0.00  0.00    -0.244 NA
BRANCH  30  32
ATOM     32  O   LIG    1      -32.063  72.667  31.730  0.00  0.00    -0.491 OA
ATOM     33  H   LIG    1      -32.995  72.595  31.453  0.00  0.00    +0.294 HD
ENDBRANCH  30  32
BRANCH  31  34
ATOM     34  C   LIG    1      -29.377  72.547  31.730  0.00  0.00    +0.183 C 
BRANCH  34  35
ATOM     35  C   LIG    1      -28.614  71.423  31.119  0.00  0.00    +0.011 A 
ATOM     36  C   LIG    1      -29.121  70.350  30.414  0.00  0.00    +0.110 A 
ATOM     37  N   LIG    1      -28.058  69.562  30.087  0.00  0.00    -0.284 N 
ATOM     38  H   LIG    1      -28.060  68.688  29.572  0.00  0.00    +0.188 HD
ATOM     39  N   LIG    1      -26.885  70.039  30.533  0.00  0.00    -0.182 NA
ATOM     40  C   LIG    1      -27.223  71.172  31.155  0.00  0.00    +0.139 A 
ENDBRANCH  34  35
ENDBRANCH  31  34
ENDBRANCH   1  30
TORSDOF 8
ENDMDL
MODEL 7
REMARK VINA RESULT:      -6.8     16.931     19.545
REMARK  Name = pdb/CHEMBL3950400.pdb
REMARK                            x       y       z     vdW  Elec       q    Type
REMARK                         _______ _______ _______ _____ _____    ______ ____
ROOT
ATOM      1  C   LIG    1      -22.693  83.083  15.362  0.00  0.00    +0.149 A 
ATOM      2  N   LIG    1      -23.675  82.500  14.652  0.00  0.00    -0.160 NA
ATOM      3  N   LIG    1      -23.491  81.153  14.847  0.00  0.00    -0.218 N 
ATOM      4  C   LIG    1      -22.334  80.897  15.587  0.00  0.00    +0.129 A 
ATOM      5  C   LIG    1      -21.815  82.126  15.899  0.00  0.00    +0.078 A 
ENDROOT
BRANCH   3   6
ATOM      6  C   LIG    1      -24.439  80.221  14.337  0.00  0.00    +0.067 A 
ATOM      7  C   LIG    1      -25.242  79.450  15.191  0.00  0.00    +0.028 A 
ATOM      8  C   LIG    1      -26.188  78.569  14.656  0.00  0.00    +0.002 A 
ATOM      9  C   LIG    1      -26.327  78.441  13.275  0.00  0.00    +0.000 A 
ATOM     10  C   LIG    1      -25.527  79.198  12.422  0.00  0.00    +0.002 A 
ATOM     11  C   LIG    1      -24.596  80.099  12.948  0.00  0.00    +0.028 A 
ENDBRANCH   3   6
BRANCH   4  12
ATOM     12  N   LIG    1      -21.747  79.661  15.892  0.00  0.00    -0.266 N 
ATOM     13  H   LIG    1      -21.859  79.291  16.827  0.00  0.00    +0.157 HD
ATOM     14  C   LIG    1      -21.012  78.909  14.909  0.00  0.00    +0.251 C 
ATOM     15  O   LIG    1      -20.856  79.333  13.781  0.00  0.00    -0.270 OA
BRANCH  14  16
ATOM     16  C   LIG    1      -20.373  77.640  15.296  0.00  0.00    +0.056 A 
ATOM     17  C   LIG    1      -19.018  77.489  15.586  0.00  0.00    +0.056 A 
ATOM     18 CL   LIG    1      -17.872  78.771  15.456  0.00  0.00    -0.083 Cl
ATOM     19  C   LIG    1      -18.551  76.252  16.028  0.00  0.00    +0.059 A 
ATOM     20  C   LIG    1      -19.430  75.177  16.174  0.00  0.00    +0.134 A 
ATOM     21  F   LIG    1      -18.910  74.018  16.603  0.00  0.00    -0.205 F 
ATOM     22  C   LIG    1      -20.795  75.282  15.882  0.00  0.00    +0.036 A 
ATOM     23  C   LIG    1      -21.241  76.539  15.435  0.00  0.00    +0.027 A 
BRANCH  22  24
ATOM     24  C   LIG    1      -21.748  74.165  16.032  0.00  0.00    +0.074 A 
ATOM     25  N   LIG    1      -22.041  73.494  14.886  0.00  0.00    -0.255 NA
ATOM     26  C   LIG    1      -22.926  72.473  14.957  0.00  0.00    +0.111 A 
ATOM     27  C   LIG    1      -23.550  72.077  16.125  0.00  0.00    +0.020 A 
ATOM     28  C   LIG    1      -23.252  72.768  17.289  0.00  0.00    +0.004 A 
ATOM     29  C   LIG    1      -22.344  73.825  17.243  0.00  0.00    +0.028 A 
ENDBRANCH  22  24
ENDBRANCH  14  16
ENDBRANCH   4  12
BRANCH   1  30
ATOM     30  C   LIG    1      -22.555  84.531  15.496  0.00  0.00    +0.236 C 
ATOM     31  N   LIG    1      -22.362  85.253  14.451  0.00  0.00    -0.244 NA
BRANCH  30  32
ATOM     32  O   LIG    1      -22.661  85.020  16.751  0.00  0.00    -0.491 OA
ATOM     33  H   LIG    1      -22.423  84.325  17.393  0.00  0.00    +0.294 HD
ENDBRANCH  30  32
BRANCH  31  34
ATOM     34  C   LIG    1      -22.290  86.693  14.679  0.00  0.00    +0.183 C 
BRANCH  34  35
ATOM     35  C   LIG    1      -21.071  87.253  14.032  0.00  0.00    +0.011 A 
ATOM     36  C   LIG    1      -20.972  88.411  13.287  0.00  0.00    +0.110 A 
ATOM     37  N   LIG    1      -19.678  88.494  12.867  0.00  0.00    -0.284 N 
ATOM     38  H   LIG    1      -19.249  89.214  12.295  0.00  0.00    +0.188 HD
ATOM     39  N   LIG    1      -18.917  87.468  13.279  0.00  0.00    -0.182 NA
ATOM     40  C   LIG    1      -19.763  86.717  13.992  0.00  0.00    +0.139 A 
ENDBRANCH  34  35
ENDBRANCH  31  34
ENDBRANCH   1  30
TORSDOF 8
ENDMDL
MODEL 8
REMARK VINA RESULT:      -6.7      2.641      4.561
REMARK  Name = pdb/CHEMBL3950400.pdb
REMARK                            x       y       z     vdW  Elec       q    Type
REMARK                         _______ _______ _______ _____ _____    ______ ____
ROOT
ATOM      1  C   LIG    1      -26.716  76.044  32.000  0.00  0.00    +0.149 A 
ATOM      2  N   LIG    1      -25.665  75.730  31.223  0.00  0.00    -0.160 NA
ATOM      3  N   LIG    1      -24.654  76.551  31.660  0.00  0.00    -0.218 N 
ATOM      4  C   LIG    1      -25.106  77.446  32.632  0.00  0.00    +0.129 A 
ATOM      5  C   LIG    1      -26.426  77.136  32.835  0.00  0.00    +0.078 A 
ENDROOT
BRANCH   3   6
ATOM      6  C   LIG    1      -23.337  76.402  31.140  0.00  0.00    +0.067 A 
ATOM      7  C   LIG    1      -22.985  76.907  29.879  0.00  0.00    +0.028 A 
ATOM      8  C   LIG    1      -21.672  76.774  29.414  0.00  0.00    +0.002 A 
ATOM      9  C   LIG    1      -20.713  76.126  30.191  0.00  0.00    +0.000 A 
ATOM     10  C   LIG    1      -21.059  75.616  31.441  0.00  0.00    +0.002 A 
ATOM     11  C   LIG    1      -22.362  75.767  31.924  0.00  0.00    +0.028 A 
ENDBRANCH   3   6
BRANCH   4  12
ATOM     12  N   LIG    1      -24.415  78.508  33.233  0.00  0.00    -0.266 N 
ATOM     13  H   LIG    1      -24.484  79.426  32.814  0.00  0.00    +0.157 HD
ATOM     14  C   LIG    1      -23.635  78.323  34.428  0.00  0.00    +0.251 C 
ATOM     15  O   LIG    1      -23.530  77.229  34.947  0.00  0.00    -0.270 OA
BRANCH  14  16
ATOM     16  C   LIG    1      -22.889  79.461  34.990  0.00  0.00    +0.056 A 
ATOM     17  C   LIG    1      -21.561  79.763  34.696  0.00  0.00    +0.056 A 
ATOM     18 CL   LIG    1      -20.570  78.788  33.675  0.00  0.00    -0.083 Cl
ATOM     19  C   LIG    1      -20.994  80.922  35.224  0.00  0.00    +0.059 A 
ATOM     20  C   LIG    1      -21.747  81.767  36.042  0.00  0.00    +0.134 A 
ATOM     21  F   LIG    1      -21.136  82.863  36.514  0.00  0.00    -0.205 F 
ATOM     22  C   LIG    1      -23.079  81.495  36.373  0.00  0.00    +0.036 A 
ATOM     23  C   LIG    1      -23.628  80.318  35.830  0.00  0.00    +0.027 A 
BRANCH  22  24
ATOM     24  C   LIG    1      -23.901  82.371  37.230  0.00  0.00    +0.074 A 
ATOM     25  N   LIG    1      -23.393  82.613  38.468  0.00  0.00    -0.255 NA
ATOM     26  C   LIG    1      -24.114  83.393  39.308  0.00  0.00    +0.111 A 
ATOM     27  C   LIG    1      -25.335  83.952  38.980  0.00  0.00    +0.020 A 
ATOM     28  C   LIG    1      -25.850  83.696  37.719  0.00  0.00    +0.004 A 
ATOM     29  C   LIG    1      -25.129  82.895  36.835  0.00  0.00    +0.028 A 
ENDBRANCH  22  24
ENDBRANCH  14  16
ENDBRANCH   4  12
BRANCH   1  30
ATOM     30  C   LIG    1      -28.000  75.352  31.925  0.00  0.00    +0.236 C 
ATOM     31  N   LIG    1      -28.995  75.912  31.334  0.00  0.00    -0.244 NA
BRANCH  30  32
ATOM     32  O   LIG    1      -28.042  74.124  32.488  0.00  0.00    -0.491 OA
ATOM     33  H   LIG    1      -28.740  73.593  32.060  0.00  0.00    +0.294 HD
ENDBRANCH  30  32
BRANCH  31  34
ATOM     34  C   LIG    1      -30.219  75.120  31.264  0.00  0.00    +0.183 C 
BRANCH  34  35
ATOM     35  C   LIG    1      -31.277  75.879  30.540  0.00  0.00    +0.011 A 
ATOM     36  C   LIG    1      -32.498  76.295  31.033  0.00  0.00    +0.110 A 
ATOM     37  N   LIG    1      -33.142  76.913  30.003  0.00  0.00    -0.284 N 
ATOM     38  H   LIG    1      -34.064  77.338  30.005  0.00  0.00    +0.188 HD
ATOM     39  N   LIG    1      -32.433  76.930  28.864  0.00  0.00    -0.182 NA
ATOM     40  C   LIG    1      -31.297  76.307  29.193  0.00  0.00    +0.139 A 
ENDBRANCH  34  35
ENDBRANCH  31  34
ENDBRANCH   1  30
TORSDOF 8
ENDMDL
MODEL 9
REMARK VINA RESULT:      -6.7     10.192     14.288
REMARK  Name = pdb/CHEMBL3950400.pdb
REMARK                            x       y       z     vdW  Elec       q    Type
REMARK                         _______ _______ _______ _____ _____    ______ ____
ROOT
ATOM      1  C   LIG    1      -37.313  80.141  27.649  0.00  0.00    +0.149 A 
ATOM      2  N   LIG    1      -36.302  79.393  28.126  0.00  0.00    -0.160 NA
ATOM      3  N   LIG    1      -36.573  78.122  27.681  0.00  0.00    -0.218 N 
ATOM      4  C   LIG    1      -37.803  78.061  27.022  0.00  0.00    +0.129 A 
ATOM      5  C   LIG    1      -38.284  79.345  27.019  0.00  0.00    +0.078 A 
ENDROOT
BRANCH   3   6
ATOM      6  C   LIG    1      -35.631  77.075  27.894  0.00  0.00    +0.067 A 
ATOM      7  C   LIG    1      -34.347  77.117  27.332  0.00  0.00    +0.028 A 
ATOM      8  C   LIG    1      -33.435  76.088  27.591  0.00  0.00    +0.002 A 
ATOM      9  C   LIG    1      -33.803  75.009  28.394  0.00  0.00    +0.000 A 
ATOM     10  C   LIG    1      -35.080  74.958  28.948  0.00  0.00    +0.002 A 
ATOM     11  C   LIG    1      -35.989  75.995  28.715  0.00  0.00    +0.028 A 
ENDBRANCH   3   6
BRANCH   4  12
ATOM     12  N   LIG    1      -38.478  76.935  26.532  0.00  0.00    -0.266 N 
ATOM     13  H   LIG    1      -39.265  76.577  27.059  0.00  0.00    +0.157 HD
ATOM     14  C   LIG    1      -38.092  76.297  25.302  0.00  0.00    +0.251 C 
ATOM     15  O   LIG    1      -37.147  76.701  24.653  0.00  0.00    -0.270 OA
BRANCH  14  16
ATOM     16  C   LIG    1      -38.804  75.087  24.858  0.00  0.00    +0.056 A 
ATOM     17  C   LIG    1      -40.051  75.083  24.236  0.00  0.00    +0.056 A 
ATOM     18 CL   LIG    1      -40.980  76.510  23.963  0.00  0.00    -0.083 Cl
ATOM     19  C   LIG    1      -40.581  73.875  23.782  0.00  0.00    +0.059 A 
ATOM     20  C   LIG    1      -39.872  72.684  23.953  0.00  0.00    +0.134 A 
ATOM     21  F   LIG    1      -40.443  71.562  23.492  0.00  0.00    -0.205 F 
ATOM     22  C   LIG    1      -38.623  72.642  24.584  0.00  0.00    +0.036 A 
ATOM     23  C   LIG    1      -38.111  73.872  25.036  0.00  0.00    +0.027 A 
BRANCH  22  24
ATOM     24  C   LIG    1      -37.849  71.400  24.775  0.00  0.00    +0.074 A 
ATOM     25  N   LIG    1      -37.207  71.294  25.969  0.00  0.00    -0.255 NA
ATOM     26  C   LIG    1      -36.462  70.186  26.192  0.00  0.00    +0.111 A 
ATOM     27  C   LIG    1      -36.315  69.161  25.276  0.00  0.00    +0.020 A 
ATOM     28  C   LIG    1      -36.967  69.278  24.059  0.00  0.00    +0.004 A 
ATOM     29  C   LIG    1      -37.739  70.410  23.802  0.00  0.00    +0.028 A 
ENDBRANCH  22  24
ENDBRANCH  14  16
ENDBRANCH   4  12
BRANCH   1  30
ATOM     30  C   LIG    1      -37.387  81.589  27.826  0.00  0.00    +0.236 C 
ATOM     31  N   LIG    1      -36.445  82.206  28.445  0.00  0.00    -0.244 NA
BRANCH  30  32
ATOM     32  O   LIG    1      -38.472  82.194  27.294  0.00  0.00    -0.491 OA
ATOM     33  H   LIG    1      -38.250  82.542  26.411  0.00  0.00    +0.294 HD
ENDBRANCH  30  32
BRANCH  31  34
ATOM     34  C   LIG    1      -36.582  83.657  28.526  0.00  0.00    +0.183 C 
BRANCH  34  35
ATOM     35  C   LIG    1      -35.266  84.278  28.841  0.00  0.00    +0.011 A 
ATOM     36  C   LIG    1      -34.715  85.411  28.278  0.00  0.00    +0.110 A 
ATOM     37  N   LIG    1      -33.486  85.571  28.847  0.00  0.00    -0.284 N 
ATOM     38  H   LIG    1      -32.802  86.299  28.666  0.00  0.00    +0.188 HD
ATOM     39  N   LIG    1      -33.187  84.619  29.743  0.00  0.00    -0.182 NA
ATOM     40  C   LIG    1      -34.271  83.837  29.744  0.00  0.00    +0.139 A 
ENDBRANCH  34  35
ENDBRANCH  31  34
ENDBRANCH   1  30
TORSDOF 8
ENDMDL
