MODEL 1
REMARK VINA RESULT:      -6.4      0.000      0.000
REMARK  Name = pdb/CHEMBL1794057.pdb
REMARK                            x       y       z     vdW  Elec       q    Type
REMARK                         _______ _______ _______ _____ _____    ______ ____
ROOT
ATOM      1  N   LIG    1      -38.067  69.358  24.116  0.00  0.00    -0.320 N 
ATOM      2  H   LIG    1      -37.268  69.611  24.714  0.00  0.00    +0.152 HD
ENDROOT
BRANCH   1   9
ATOM      3  O   LIG    1      -36.913  67.353  17.346  0.00  0.00    -0.247 OA
ATOM      4  C   LIG    1      -36.934  67.541  18.549  0.00  0.00    +0.325 A 
ATOM      5  N   LIG    1      -37.864  68.314  19.258  0.00  0.00    -0.306 N 
ATOM      6  H   LIG    1      -38.626  68.810  18.827  0.00  0.00    +0.170 HD
ATOM      7  C   LIG    1      -37.533  68.282  20.609  0.00  0.00    +0.069 A 
ATOM      8  C   LIG    1      -38.141  68.901  21.676  0.00  0.00    +0.051 A 
ATOM      9  C   LIG    1      -37.549  68.736  22.939  0.00  0.00    +0.033 A 
ATOM     10  C   LIG    1      -36.419  67.882  23.079  0.00  0.00    +0.025 A 
ATOM     11  C   LIG    1      -35.822  67.258  21.977  0.00  0.00    +0.029 A 
ATOM     12  C   LIG    1      -36.399  67.487  20.754  0.00  0.00    +0.067 A 
ATOM     13  N   LIG    1      -36.032  67.031  19.494  0.00  0.00    -0.306 N 
ATOM     14  H   LIG    1      -35.251  66.440  19.261  0.00  0.00    +0.170 HD
ENDBRANCH   1   9
BRANCH   1  15
ATOM     15  C   LIG    1      -38.946  70.423  24.017  0.00  0.00    +0.085 C 
ATOM     16  C   LIG    1      -38.750  71.674  24.453  0.00  0.00    +0.060 C 
ATOM     17  C   LIG    1      -39.587  72.846  24.226  0.00  0.00    +0.010 A 
ATOM     18  C   LIG    1      -40.845  73.027  23.686  0.00  0.00    +0.010 A 
ATOM     19  C   LIG    1      -41.327  74.335  23.579  0.00  0.00    +0.001 A 
ATOM     20  C   LIG    1      -40.549  75.431  24.002  0.00  0.00    +0.002 A 
ATOM     21  C   LIG    1      -39.280  75.238  24.557  0.00  0.00    +0.024 A 
ATOM     22  C   LIG    1      -38.829  73.940  24.664  0.00  0.00    +0.042 A 
ATOM     23  N   LIG    1      -37.609  73.514  25.190  0.00  0.00    -0.281 N 
ATOM     24  H   LIG    1      -36.893  74.109  25.577  0.00  0.00    +0.155 HD
ATOM     25  C   LIG    1      -37.489  72.136  25.124  0.00  0.00    +0.250 C 
ATOM     26  O   LIG    1      -36.565  71.441  25.512  0.00  0.00    -0.270 OA
ENDBRANCH   1  15
TORSDOF 2
ENDMDL
MODEL 2
REMARK VINA RESULT:      -6.4     21.315     22.101
REMARK  Name = pdb/CHEMBL1794057.pdb
REMARK                            x       y       z     vdW  Elec       q    Type
REMARK                         _______ _______ _______ _____ _____    ______ ____
ROOT
ATOM      1  N   LIG    1      -22.035  84.005  15.145  0.00  0.00    -0.320 N 
ATOM      2  H   LIG    1      -21.008  83.944  15.183  0.00  0.00    +0.152 HD
ENDROOT
BRANCH   1   9
ATOM      3  O   LIG    1      -25.873  77.972  14.905  0.00  0.00    -0.247 OA
ATOM      4  C   LIG    1      -25.111  78.894  15.131  0.00  0.00    +0.325 A 
ATOM      5  N   LIG    1      -25.119  80.155  14.517  0.00  0.00    -0.306 N 
ATOM      6  H   LIG    1      -25.773  80.427  13.802  0.00  0.00    +0.170 HD
ATOM      7  C   LIG    1      -24.082  80.916  15.047  0.00  0.00    +0.069 A 
ATOM      8  C   LIG    1      -23.692  82.199  14.742  0.00  0.00    +0.051 A 
ATOM      9  C   LIG    1      -22.559  82.702  15.403  0.00  0.00    +0.033 A 
ATOM     10  C   LIG    1      -21.925  81.915  16.406  0.00  0.00    +0.025 A 
ATOM     11  C   LIG    1      -22.345  80.613  16.702  0.00  0.00    +0.029 A 
ATOM     12  C   LIG    1      -23.423  80.140  15.997  0.00  0.00    +0.067 A 
ATOM     13  N   LIG    1      -24.052  78.903  16.051  0.00  0.00    -0.306 N 
ATOM     14  H   LIG    1      -23.810  78.119  16.633  0.00  0.00    +0.170 HD
ENDBRANCH   1   9
BRANCH   1  15
ATOM     15  C   LIG    1      -22.431  84.710  14.021  0.00  0.00    +0.085 C 
ATOM     16  C   LIG    1      -22.614  86.032  13.921  0.00  0.00    +0.060 C 
ATOM     17  C   LIG    1      -22.876  86.815  12.718  0.00  0.00    +0.010 A 
ATOM     18  C   LIG    1      -23.177  86.480  11.412  0.00  0.00    +0.010 A 
ATOM     19  C   LIG    1      -23.321  87.521  10.489  0.00  0.00    +0.001 A 
ATOM     20  C   LIG    1      -23.156  88.864  10.881  0.00  0.00    +0.002 A 
ATOM     21  C   LIG    1      -22.862  89.195  12.207  0.00  0.00    +0.024 A 
ATOM     22  C   LIG    1      -22.735  88.154  13.103  0.00  0.00    +0.042 A 
ATOM     23  N   LIG    1      -22.456  88.247  14.467  0.00  0.00    -0.281 N 
ATOM     24  H   LIG    1      -22.321  89.102  14.984  0.00  0.00    +0.155 HD
ATOM     25  C   LIG    1      -22.391  86.994  15.051  0.00  0.00    +0.250 C 
ATOM     26  O   LIG    1      -22.186  86.718  16.222  0.00  0.00    -0.270 OA
ENDBRANCH   1  15
TORSDOF 2
ENDMDL
MODEL 3
REMARK VINA RESULT:      -6.4      6.625      9.167
REMARK  Name = pdb/CHEMBL1794057.pdb
REMARK                            x       y       z     vdW  Elec       q    Type
REMARK                         _______ _______ _______ _____ _____    ______ ____
ROOT
ATOM      1  N   LIG    1      -36.090  76.785  26.490  0.00  0.00    -0.320 N 
ATOM      2  H   LIG    1      -35.701  77.367  25.734  0.00  0.00    +0.152 HD
ENDROOT
BRANCH   1   9
ATOM      3  O   LIG    1      -30.047  76.407  30.301  0.00  0.00    -0.247 OA
ATOM      4  C   LIG    1      -31.093  76.239  29.701  0.00  0.00    +0.325 A 
ATOM      5  N   LIG    1      -31.758  77.177  28.900  0.00  0.00    -0.306 N 
ATOM      6  H   LIG    1      -31.428  78.116  28.744  0.00  0.00    +0.170 HD
ATOM      7  C   LIG    1      -32.920  76.597  28.402  0.00  0.00    +0.069 A 
ATOM      8  C   LIG    1      -33.892  77.136  27.593  0.00  0.00    +0.051 A 
ATOM      9  C   LIG    1      -35.000  76.326  27.290  0.00  0.00    +0.033 A 
ATOM     10  C   LIG    1      -35.031  74.980  27.750  0.00  0.00    +0.025 A 
ATOM     11  C   LIG    1      -34.025  74.453  28.569  0.00  0.00    +0.029 A 
ATOM     12  C   LIG    1      -32.987  75.292  28.884  0.00  0.00    +0.067 A 
ATOM     13  N   LIG    1      -31.869  75.070  29.677  0.00  0.00    -0.306 N 
ATOM     14  H   LIG    1      -31.629  74.228  30.174  0.00  0.00    +0.170 HD
ENDBRANCH   1   9
BRANCH   1  15
ATOM     15  C   LIG    1      -37.010  75.887  25.976  0.00  0.00    +0.085 C 
ATOM     16  C   LIG    1      -38.251  76.157  25.554  0.00  0.00    +0.060 C 
ATOM     17  C   LIG    1      -39.181  75.267  24.868  0.00  0.00    +0.010 A 
ATOM     18  C   LIG    1      -39.177  73.912  24.598  0.00  0.00    +0.010 A 
ATOM     19  C   LIG    1      -40.241  73.393  23.854  0.00  0.00    +0.001 A 
ATOM     20  C   LIG    1      -41.278  74.228  23.392  0.00  0.00    +0.002 A 
ATOM     21  C   LIG    1      -41.279  75.596  23.679  0.00  0.00    +0.024 A 
ATOM     22  C   LIG    1      -40.226  76.086  24.423  0.00  0.00    +0.042 A 
ATOM     23  N   LIG    1      -40.027  77.404  24.833  0.00  0.00    -0.281 N 
ATOM     24  H   LIG    1      -40.644  78.180  24.645  0.00  0.00    +0.155 HD
ATOM     25  C   LIG    1      -38.853  77.532  25.555  0.00  0.00    +0.250 C 
ATOM     26  O   LIG    1      -38.393  78.536  26.073  0.00  0.00    -0.270 OA
ENDBRANCH   1  15
TORSDOF 2
ENDMDL
MODEL 4
REMARK VINA RESULT:      -6.2      5.677     10.360
REMARK  Name = pdb/CHEMBL1794057.pdb
REMARK                            x       y       z     vdW  Elec       q    Type
REMARK                         _______ _______ _______ _____ _____    ______ ____
ROOT
ATOM      1  N   LIG    1      -39.604  78.309  24.802  0.00  0.00    -0.320 N 
ATOM      2  H   LIG    1      -39.717  78.423  25.820  0.00  0.00    +0.152 HD
ENDROOT
BRANCH   1   9
ATOM      3  O   LIG    1      -40.515  84.188  20.828  0.00  0.00    -0.247 OA
ATOM      4  C   LIG    1      -40.584  83.229  21.575  0.00  0.00    +0.325 A 
ATOM      5  N   LIG    1      -39.538  82.362  21.921  0.00  0.00    -0.306 N 
ATOM      6  H   LIG    1      -38.599  82.447  21.570  0.00  0.00    +0.170 HD
ATOM      7  C   LIG    1      -40.031  81.392  22.788  0.00  0.00    +0.069 A 
ATOM      8  C   LIG    1      -39.384  80.329  23.374  0.00  0.00    +0.051 A 
ATOM      9  C   LIG    1      -40.154  79.466  24.171  0.00  0.00    +0.033 A 
ATOM     10  C   LIG    1      -41.525  79.768  24.410  0.00  0.00    +0.025 A 
ATOM     11  C   LIG    1      -42.159  80.861  23.806  0.00  0.00    +0.029 A 
ATOM     12  C   LIG    1      -41.384  81.648  22.993  0.00  0.00    +0.067 A 
ATOM     13  N   LIG    1      -41.724  82.773  22.253  0.00  0.00    -0.306 N 
ATOM     14  H   LIG    1      -42.629  83.209  22.184  0.00  0.00    +0.170 HD
ENDBRANCH   1   9
BRANCH   1  15
ATOM     15  C   LIG    1      -40.006  77.042  24.416  0.00  0.00    +0.085 C 
ATOM     16  C   LIG    1      -39.282  75.917  24.463  0.00  0.00    +0.060 C 
ATOM     17  C   LIG    1      -39.726  74.551  24.211  0.00  0.00    +0.010 A 
ATOM     18  C   LIG    1      -40.894  74.007  23.712  0.00  0.00    +0.010 A 
ATOM     19  C   LIG    1      -40.991  72.613  23.654  0.00  0.00    +0.001 A 
ATOM     20  C   LIG    1      -39.934  71.794  24.099  0.00  0.00    +0.002 A 
ATOM     21  C   LIG    1      -38.752  72.353  24.594  0.00  0.00    +0.024 A 
ATOM     22  C   LIG    1      -38.673  73.730  24.632  0.00  0.00    +0.042 A 
ATOM     23  N   LIG    1      -37.596  74.498  25.074  0.00  0.00    -0.281 N 
ATOM     24  H   LIG    1      -36.717  74.141  25.417  0.00  0.00    +0.155 HD
ATOM     25  C   LIG    1      -37.874  75.852  24.979  0.00  0.00    +0.250 C 
ATOM     26  O   LIG    1      -37.150  76.791  25.260  0.00  0.00    -0.270 OA
ENDBRANCH   1  15
TORSDOF 2
ENDMDL
MODEL 5
REMARK VINA RESULT:      -6.2      2.306      7.509
REMARK  Name = pdb/CHEMBL1794057.pdb
REMARK                            x       y       z     vdW  Elec       q    Type
REMARK                         _______ _______ _______ _____ _____    ______ ____
ROOT
ATOM      1  N   LIG    1      -39.372  70.495  24.039  0.00  0.00    -0.320 N 
ATOM      2  H   LIG    1      -40.338  70.195  24.232  0.00  0.00    +0.152 HD
ENDROOT
BRANCH   1   9
ATOM      3  O   LIG    1      -37.200  77.106  25.701  0.00  0.00    -0.247 OA
ATOM      4  C   LIG    1      -37.774  76.088  25.360  0.00  0.00    +0.325 A 
ATOM      5  N   LIG    1      -37.299  74.776  25.490  0.00  0.00    -0.306 N 
ATOM      6  H   LIG    1      -36.404  74.540  25.885  0.00  0.00    +0.170 HD
ATOM      7  C   LIG    1      -38.250  73.903  24.972  0.00  0.00    +0.069 A 
ATOM      8  C   LIG    1      -38.217  72.532  24.866  0.00  0.00    +0.051 A 
ATOM      9  C   LIG    1      -39.308  71.908  24.239  0.00  0.00    +0.033 A 
ATOM     10  C   LIG    1      -40.422  72.691  23.825  0.00  0.00    +0.025 A 
ATOM     11  C   LIG    1      -40.433  74.086  23.949  0.00  0.00    +0.029 A 
ATOM     12  C   LIG    1      -39.326  74.661  24.519  0.00  0.00    +0.067 A 
ATOM     13  N   LIG    1      -39.038  75.999  24.757  0.00  0.00    -0.306 N 
ATOM     14  H   LIG    1      -39.612  76.796  24.539  0.00  0.00    +0.170 HD
ENDBRANCH   1   9
BRANCH   1  15
ATOM     15  C   LIG    1      -38.926  69.934  22.854  0.00  0.00    +0.085 C 
ATOM     16  C   LIG    1      -37.785  69.260  22.661  0.00  0.00    +0.060 C 
ATOM     17  C   LIG    1      -37.365  68.528  21.471  0.00  0.00    +0.010 A 
ATOM     18  C   LIG    1      -37.865  68.431  20.187  0.00  0.00    +0.010 A 
ATOM     19  C   LIG    1      -37.213  67.573  19.297  0.00  0.00    +0.001 A 
ATOM     20  C   LIG    1      -36.087  66.829  19.701  0.00  0.00    +0.002 A 
ATOM     21  C   LIG    1      -35.581  66.941  21.000  0.00  0.00    +0.024 A 
ATOM     22  C   LIG    1      -36.233  67.801  21.858  0.00  0.00    +0.042 A 
ATOM     23  N   LIG    1      -35.901  68.076  23.185  0.00  0.00    -0.281 N 
ATOM     24  H   LIG    1      -35.122  67.684  23.692  0.00  0.00    +0.155 HD
ATOM     25  C   LIG    1      -36.786  68.982  23.745  0.00  0.00    +0.250 C 
ATOM     26  O   LIG    1      -36.774  69.449  24.871  0.00  0.00    -0.270 OA
ENDBRANCH   1  15
TORSDOF 2
ENDMDL
MODEL 6
REMARK VINA RESULT:      -6.2      5.496      8.805
REMARK  Name = pdb/CHEMBL1794057.pdb
REMARK                            x       y       z     vdW  Elec       q    Type
REMARK                         _______ _______ _______ _____ _____    ______ ____
ROOT
ATOM      1  N   LIG    1      -36.302  76.959  26.644  0.00  0.00    -0.320 N 
ATOM      2  H   LIG    1      -36.669  77.581  27.378  0.00  0.00    +0.152 HD
ENDROOT
BRANCH   1   9
ATOM      3  O   LIG    1      -41.064  72.759  23.347  0.00  0.00    -0.247 OA
ATOM      4  C   LIG    1      -40.383  73.652  23.817  0.00  0.00    +0.325 A 
ATOM      5  N   LIG    1      -39.170  73.505  24.504  0.00  0.00    -0.306 N 
ATOM      6  H   LIG    1      -38.733  72.617  24.687  0.00  0.00    +0.170 HD
ATOM      7  C   LIG    1      -38.718  74.764  24.886  0.00  0.00    +0.069 A 
ATOM      8  C   LIG    1      -37.591  75.115  25.592  0.00  0.00    +0.051 A 
ATOM      9  C   LIG    1      -37.414  76.477  25.887  0.00  0.00    +0.033 A 
ATOM     10  C   LIG    1      -38.340  77.431  25.381  0.00  0.00    +0.025 A 
ATOM     11  C   LIG    1      -39.478  77.049  24.660  0.00  0.00    +0.029 A 
ATOM     12  C   LIG    1      -39.641  75.705  24.437  0.00  0.00    +0.067 A 
ATOM     13  N   LIG    1      -40.660  75.026  23.782  0.00  0.00    -0.306 N 
ATOM     14  H   LIG    1      -41.479  75.422  23.350  0.00  0.00    +0.170 HD
ENDBRANCH   1   9
BRANCH   1  15
ATOM     15  C   LIG    1      -35.383  76.074  27.182  0.00  0.00    +0.085 C 
ATOM     16  C   LIG    1      -34.171  76.368  27.669  0.00  0.00    +0.060 C 
ATOM     17  C   LIG    1      -33.251  75.487  28.379  0.00  0.00    +0.010 A 
ATOM     18  C   LIG    1      -33.230  74.127  28.620  0.00  0.00    +0.010 A 
ATOM     19  C   LIG    1      -32.188  73.620  29.402  0.00  0.00    +0.001 A 
ATOM     20  C   LIG    1      -31.198  74.472  29.931  0.00  0.00    +0.002 A 
ATOM     21  C   LIG    1      -31.222  75.846  29.675  0.00  0.00    +0.024 A 
ATOM     22  C   LIG    1      -32.251  76.324  28.892  0.00  0.00    +0.042 A 
ATOM     23  N   LIG    1      -32.468  77.645  28.502  0.00  0.00    -0.281 N 
ATOM     24  H   LIG    1      -31.882  78.433  28.736  0.00  0.00    +0.155 HD
ATOM     25  C   LIG    1      -33.609  77.758  27.727  0.00  0.00    +0.250 C 
ATOM     26  O   LIG    1      -34.072  78.761  27.209  0.00  0.00    -0.270 OA
ENDBRANCH   1  15
TORSDOF 2
ENDMDL
MODEL 7
REMARK VINA RESULT:      -6.1      2.149      7.797
REMARK  Name = pdb/CHEMBL1794057.pdb
REMARK                            x       y       z     vdW  Elec       q    Type
REMARK                         _______ _______ _______ _____ _____    ______ ____
ROOT
ATOM      1  N   LIG    1      -39.790  70.998  23.890  0.00  0.00    -0.320 N 
ATOM      2  H   LIG    1      -40.449  70.983  23.098  0.00  0.00    +0.152 HD
ENDROOT
BRANCH   1   9
ATOM      3  O   LIG    1      -36.667  77.048  26.089  0.00  0.00    -0.247 OA
ATOM      4  C   LIG    1      -37.382  76.160  25.662  0.00  0.00    +0.325 A 
ATOM      5  N   LIG    1      -37.119  74.784  25.697  0.00  0.00    -0.306 N 
ATOM      6  H   LIG    1      -36.281  74.383  26.084  0.00  0.00    +0.170 HD
ATOM      7  C   LIG    1      -38.179  74.111  25.099  0.00  0.00    +0.069 A 
ATOM      8  C   LIG    1      -38.355  72.763  24.888  0.00  0.00    +0.051 A 
ATOM      9  C   LIG    1      -39.514  72.365  24.200  0.00  0.00    +0.033 A 
ATOM     10  C   LIG    1      -40.482  73.341  23.833  0.00  0.00    +0.025 A 
ATOM     11  C   LIG    1      -40.282  74.707  24.064  0.00  0.00    +0.029 A 
ATOM     12  C   LIG    1      -39.114  75.059  24.692  0.00  0.00    +0.067 A 
ATOM     13  N   LIG    1      -38.629  76.314  25.038  0.00  0.00    -0.306 N 
ATOM     14  H   LIG    1      -39.068  77.205  24.874  0.00  0.00    +0.170 HD
ENDBRANCH   1   9
BRANCH   1  15
ATOM     15  C   LIG    1      -38.754  70.107  23.666  0.00  0.00    +0.085 C 
ATOM     16  C   LIG    1      -38.586  69.318  22.597  0.00  0.00    +0.060 C 
ATOM     17  C   LIG    1      -37.433  68.489  22.264  0.00  0.00    +0.010 A 
ATOM     18  C   LIG    1      -36.294  68.123  22.954  0.00  0.00    +0.010 A 
ATOM     19  C   LIG    1      -35.352  67.334  22.286  0.00  0.00    +0.001 A 
ATOM     20  C   LIG    1      -35.560  66.934  20.951  0.00  0.00    +0.002 A 
ATOM     21  C   LIG    1      -36.721  67.301  20.263  0.00  0.00    +0.024 A 
ATOM     22  C   LIG    1      -37.641  68.069  20.945  0.00  0.00    +0.042 A 
ATOM     23  N   LIG    1      -38.863  68.539  20.465  0.00  0.00    -0.281 N 
ATOM     24  H   LIG    1      -39.244  68.365  19.548  0.00  0.00    +0.155 HD
ATOM     25  C   LIG    1      -39.521  69.292  21.424  0.00  0.00    +0.250 C 
ATOM     26  O   LIG    1      -40.613  69.829  21.341  0.00  0.00    -0.270 OA
ENDBRANCH   1  15
TORSDOF 2
ENDMDL
MODEL 8
REMARK VINA RESULT:      -6.1      1.596      2.553
REMARK  Name = pdb/CHEMBL1794057.pdb
REMARK                            x       y       z     vdW  Elec       q    Type
REMARK                         _______ _______ _______ _____ _____    ______ ____
ROOT
ATOM      1  N   LIG    1      -39.649  71.110  24.670  0.00  0.00    -0.320 N 
ATOM      2  H   LIG    1      -38.949  71.122  25.425  0.00  0.00    +0.152 HD
ENDROOT
BRANCH   1   9
ATOM      3  O   LIG    1      -35.520  66.877  20.644  0.00  0.00    -0.247 OA
ATOM      4  C   LIG    1      -36.376  67.581  21.147  0.00  0.00    +0.325 A 
ATOM      5  N   LIG    1      -36.265  68.310  22.340  0.00  0.00    -0.306 N 
ATOM      6  H   LIG    1      -35.441  68.316  22.918  0.00  0.00    +0.170 HD
ATOM      7  C   LIG    1      -37.465  68.974  22.571  0.00  0.00    +0.069 A 
ATOM      8  C   LIG    1      -37.829  69.789  23.617  0.00  0.00    +0.051 A 
ATOM      9  C   LIG    1      -39.143  70.285  23.621  0.00  0.00    +0.033 A 
ATOM     10  C   LIG    1      -40.002  70.005  22.520  0.00  0.00    +0.025 A 
ATOM     11  C   LIG    1      -39.605  69.177  21.463  0.00  0.00    +0.029 A 
ATOM     12  C   LIG    1      -38.332  68.670  21.524  0.00  0.00    +0.067 A 
ATOM     13  N   LIG    1      -37.667  67.819  20.651  0.00  0.00    -0.306 N 
ATOM     14  H   LIG    1      -38.023  67.415  19.801  0.00  0.00    +0.170 HD
ENDBRANCH   1   9
BRANCH   1  15
ATOM     15  C   LIG    1      -40.085  72.397  24.403  0.00  0.00    +0.085 C 
ATOM     16  C   LIG    1      -39.426  73.538  24.643  0.00  0.00    +0.060 C 
ATOM     17  C   LIG    1      -39.789  74.889  24.232  0.00  0.00    +0.010 A 
ATOM     18  C   LIG    1      -40.921  75.438  23.661  0.00  0.00    +0.010 A 
ATOM     19  C   LIG    1      -40.898  76.801  23.351  0.00  0.00    +0.001 A 
ATOM     20  C   LIG    1      -39.755  77.584  23.606  0.00  0.00    +0.002 A 
ATOM     21  C   LIG    1      -38.617  77.022  24.193  0.00  0.00    +0.024 A 
ATOM     22  C   LIG    1      -38.665  75.679  24.502  0.00  0.00    +0.042 A 
ATOM     23  N   LIG    1      -37.659  74.917  25.096  0.00  0.00    -0.281 N 
ATOM     24  H   LIG    1      -36.757  75.258  25.392  0.00  0.00    +0.155 HD
ATOM     25  C   LIG    1      -38.052  73.597  25.244  0.00  0.00    +0.250 C 
ATOM     26  O   LIG    1      -37.426  72.676  25.741  0.00  0.00    -0.270 OA
ENDBRANCH   1  15
TORSDOF 2
ENDMDL
MODEL 9
REMARK VINA RESULT:      -5.9     18.069     19.535
REMARK  Name = pdb/CHEMBL1794057.pdb
REMARK                            x       y       z     vdW  Elec       q    Type
REMARK                         _______ _______ _______ _____ _____    ______ ____
ROOT
ATOM      1  N   LIG    1      -23.481  78.823  13.655  0.00  0.00    -0.320 N 
ATOM      2  H   LIG    1      -23.691  78.002  14.240  0.00  0.00    +0.152 HD
ENDROOT
BRANCH   1   9
ATOM      3  O   LIG    1      -22.771  85.327  16.550  0.00  0.00    -0.247 OA
ATOM      4  C   LIG    1      -22.776  84.146  16.252  0.00  0.00    +0.325 A 
ATOM      5  N   LIG    1      -23.213  83.591  15.042  0.00  0.00    -0.306 N 
ATOM      6  H   LIG    1      -23.584  84.132  14.278  0.00  0.00    +0.170 HD
ATOM      7  C   LIG    1      -23.063  82.209  15.104  0.00  0.00    +0.069 A 
ATOM      8  C   LIG    1      -23.372  81.251  14.168  0.00  0.00    +0.051 A 
ATOM      9  C   LIG    1      -23.164  79.908  14.527  0.00  0.00    +0.033 A 
ATOM     10  C   LIG    1      -22.572  79.603  15.785  0.00  0.00    +0.025 A 
ATOM     11  C   LIG    1      -22.261  80.598  16.719  0.00  0.00    +0.029 A 
ATOM     12  C   LIG    1      -22.528  81.892  16.349  0.00  0.00    +0.067 A 
ATOM     13  N   LIG    1      -22.350  83.076  17.053  0.00  0.00    -0.306 N 
ATOM     14  H   LIG    1      -21.987  83.184  17.986  0.00  0.00    +0.170 HD
ENDBRANCH   1   9
BRANCH   1  15
ATOM     15  C   LIG    1      -24.446  78.970  12.673  0.00  0.00    +0.085 C 
ATOM     16  C   LIG    1      -25.709  78.527  12.711  0.00  0.00    +0.060 C 
ATOM     17  C   LIG    1      -26.786  78.800  11.766  0.00  0.00    +0.010 A 
ATOM     18  C   LIG    1      -26.832  79.407  10.526  0.00  0.00    +0.010 A 
ATOM     19  C   LIG    1      -28.082  79.542   9.913  0.00  0.00    +0.001 A 
ATOM     20  C   LIG    1      -29.253  79.080  10.546  0.00  0.00    +0.002 A 
ATOM     21  C   LIG    1      -29.195  78.459  11.797  0.00  0.00    +0.024 A 
ATOM     22  C   LIG    1      -27.952  78.326  12.378  0.00  0.00    +0.042 A 
ATOM     23  N   LIG    1      -27.657  77.735  13.607  0.00  0.00    -0.281 N 
ATOM     24  H   LIG    1      -28.325  77.311  14.234  0.00  0.00    +0.155 HD
ATOM     25  C   LIG    1      -26.300  77.791  13.877  0.00  0.00    +0.250 C 
ATOM     26  O   LIG    1      -25.706  77.353  14.848  0.00  0.00    -0.270 OA
ENDBRANCH   1  15
TORSDOF 2
ENDMDL
