MODEL 1
REMARK VINA RESULT:      -5.8      0.000      0.000
REMARK  Name = pdb/CHEMBL3675914.pdb
REMARK                            x       y       z     vdW  Elec       q    Type
REMARK                         _______ _______ _______ _____ _____    ______ ____
ROOT
ATOM      1  C   LIG    1      -24.664  77.503  32.255  0.00  0.00    +0.100 A 
ATOM      2  C   LIG    1      -23.406  77.267  31.728  0.00  0.00    +0.170 A 
ATOM      3  N   LIG    1      -22.155  77.220  32.302  0.00  0.00    -0.212 NA
ATOM      4  C   LIG    1      -21.115  77.033  31.515  0.00  0.00    +0.126 A 
ATOM      5  C   LIG    1      -21.281  76.794  30.029  0.00  0.00    +0.063 A 
ATOM      6  C   LIG    1      -22.517  76.838  29.526  0.00  0.00    +0.118 A 
ATOM      7  N   LIG    1      -23.594  77.088  30.356  0.00  0.00    -0.221 N 
ATOM      8  N   LIG    1      -24.893  77.185  29.994  0.00  0.00    -0.173 NA
ATOM      9  C   LIG    1      -25.528  77.447  31.137  0.00  0.00    +0.150 A 
ENDROOT
BRANCH   4  10
ATOM     10  N   LIG    1      -19.827  77.049  32.039  0.00  0.00    -0.308 N 
ATOM     11  C   LIG    1      -19.059  78.293  32.233  0.00  0.00    +0.105 C 
ATOM     12  C   LIG    1      -17.603  77.875  31.955  0.00  0.00    +0.029 C 
ATOM     13  C   LIG    1      -17.558  76.413  32.361  0.00  0.00    +0.021 C 
ATOM     14  C   LIG    1      -18.916  75.907  31.901  0.00  0.00    +0.107 C 
BRANCH  11  15
ATOM     15  C   LIG    1      -19.241  78.872  33.631  0.00  0.00    -0.024 A 
ATOM     16  C   LIG    1      -20.349  79.655  33.995  0.00  0.00    +0.043 A 
ATOM     17  C   LIG    1      -20.481  80.132  35.298  0.00  0.00    +0.124 A 
ATOM     18  F   LIG    1      -21.550  80.872  35.621  0.00  0.00    -0.205 F 
ATOM     19  C   LIG    1      -19.530  79.849  36.268  0.00  0.00    +0.038 A 
ATOM     20  C   LIG    1      -18.423  79.077  35.929  0.00  0.00    +0.003 A 
ATOM     21  C   LIG    1      -18.281  78.591  34.623  0.00  0.00    +0.005 A 
ENDBRANCH  11  15
ENDBRANCH   4  10
BRANCH   1  24
ATOM     22  N   LIG    1      -24.006  77.693  34.533  0.00  0.00    -0.306 N 
ATOM     23  H   LIG    1      -23.077  77.628  34.117  0.00  0.00    +0.150 HD
ATOM     24  C   LIG    1      -25.049  77.764  33.631  0.00  0.00    +0.250 C 
ATOM     25  O   LIG    1      -26.214  77.958  33.934  0.00  0.00    -0.270 OA
BRANCH  22  27
ATOM     26  C   LIG    1      -22.706  77.578  36.589  0.00  0.00    +0.031 C 
ATOM     27  C   LIG    1      -24.081  77.920  35.987  0.00  0.00    +0.026 C 
ATOM     28  C   LIG    1      -24.391  79.395  36.282  0.00  0.00    +0.031 C 
ATOM     29  C   LIG    1      -25.128  77.031  36.682  0.00  0.00    +0.031 C 
ENDBRANCH  22  27
ENDBRANCH   1  24
TORSDOF 4
ENDMDL
MODEL 2
REMARK VINA RESULT:      -5.7      2.049      4.485
REMARK  Name = pdb/CHEMBL3675914.pdb
REMARK                            x       y       z     vdW  Elec       q    Type
REMARK                         _______ _______ _______ _____ _____    ______ ____
ROOT
ATOM      1  C   LIG    1      -22.835  76.856  30.562  0.00  0.00    +0.100 A 
ATOM      2  C   LIG    1      -21.879  77.413  31.393  0.00  0.00    +0.170 A 
ATOM      3  N   LIG    1      -21.952  77.959  32.655  0.00  0.00    -0.212 NA
ATOM      4  C   LIG    1      -20.858  78.478  33.174  0.00  0.00    +0.126 A 
ATOM      5  C   LIG    1      -19.531  78.411  32.450  0.00  0.00    +0.063 A 
ATOM      6  C   LIG    1      -19.513  77.860  31.233  0.00  0.00    +0.118 A 
ATOM      7  N   LIG    1      -20.679  77.367  30.679  0.00  0.00    -0.221 N 
ATOM      8  N   LIG    1      -20.824  76.804  29.458  0.00  0.00    -0.173 NA
ATOM      9  C   LIG    1      -22.123  76.513  29.390  0.00  0.00    +0.150 A 
ENDROOT
BRANCH   4  10
ATOM     10  N   LIG    1      -20.899  79.104  34.415  0.00  0.00    -0.308 N 
ATOM     11  C   LIG    1      -21.938  80.084  34.782  0.00  0.00    +0.105 C 
ATOM     12  C   LIG    1      -21.199  81.084  35.690  0.00  0.00    +0.029 C 
ATOM     13  C   LIG    1      -20.114  80.249  36.345  0.00  0.00    +0.021 C 
ATOM     14  C   LIG    1      -19.690  79.324  35.217  0.00  0.00    +0.107 C 
BRANCH  11  15
ATOM     15  C   LIG    1      -23.126  79.433  35.481  0.00  0.00    -0.024 A 
ATOM     16  C   LIG    1      -23.047  78.184  36.119  0.00  0.00    +0.043 A 
ATOM     17  C   LIG    1      -24.157  77.650  36.771  0.00  0.00    +0.124 A 
ATOM     18  F   LIG    1      -24.054  76.460  37.376  0.00  0.00    -0.205 F 
ATOM     19  C   LIG    1      -25.365  78.332  36.811  0.00  0.00    +0.038 A 
ATOM     20  C   LIG    1      -25.467  79.570  36.184  0.00  0.00    +0.003 A 
ATOM     21  C   LIG    1      -24.357  80.116  35.527  0.00  0.00    +0.005 A 
ENDBRANCH  11  15
ENDBRANCH   4  10
BRANCH   1  24
ATOM     22  N   LIG    1      -24.554  76.111  32.028  0.00  0.00    -0.306 N 
ATOM     23  H   LIG    1      -23.773  76.056  32.679  0.00  0.00    +0.150 HD
ATOM     24  C   LIG    1      -24.256  76.662  30.798  0.00  0.00    +0.250 C 
ATOM     25  O   LIG    1      -25.078  76.913  29.934  0.00  0.00    -0.270 OA
BRANCH  22  27
ATOM     26  C   LIG    1      -26.367  74.488  31.921  0.00  0.00    +0.031 C 
ATOM     27  C   LIG    1      -25.897  75.810  32.555  0.00  0.00    +0.026 C 
ATOM     28  C   LIG    1      -25.845  75.629  34.079  0.00  0.00    +0.031 C 
ATOM     29  C   LIG    1      -26.937  76.890  32.205  0.00  0.00    +0.031 C 
ENDBRANCH  22  27
ENDBRANCH   1  24
TORSDOF 4
ENDMDL
MODEL 3
REMARK VINA RESULT:      -5.6     17.111     21.111
REMARK  Name = pdb/CHEMBL3675914.pdb
REMARK                            x       y       z     vdW  Elec       q    Type
REMARK                         _______ _______ _______ _____ _____    ______ ____
ROOT
ATOM      1  C   LIG    1      -35.327  67.543  23.008  0.00  0.00    +0.100 A 
ATOM      2  C   LIG    1      -36.428  67.914  22.256  0.00  0.00    +0.170 A 
ATOM      3  N   LIG    1      -37.616  68.523  22.591  0.00  0.00    -0.212 NA
ATOM      4  C   LIG    1      -38.517  68.692  21.645  0.00  0.00    +0.126 A 
ATOM      5  C   LIG    1      -38.238  68.306  20.208  0.00  0.00    +0.063 A 
ATOM      6  C   LIG    1      -37.065  67.729  19.935  0.00  0.00    +0.118 A 
ATOM      7  N   LIG    1      -36.150  67.510  20.948  0.00  0.00    -0.221 N 
ATOM      8  N   LIG    1      -34.938  66.922  20.834  0.00  0.00    -0.173 NA
ATOM      9  C   LIG    1      -34.455  66.933  22.077  0.00  0.00    +0.150 A 
ENDROOT
BRANCH   4  10
ATOM     10  N   LIG    1      -39.760  69.238  21.950  0.00  0.00    -0.308 N 
ATOM     11  C   LIG    1      -40.189  69.528  23.329  0.00  0.00    +0.105 C 
ATOM     12  C   LIG    1      -41.703  69.247  23.313  0.00  0.00    +0.029 C 
ATOM     13  C   LIG    1      -42.116  69.554  21.885  0.00  0.00    +0.021 C 
ATOM     14  C   LIG    1      -40.930  69.039  21.086  0.00  0.00    +0.107 C 
BRANCH  11  15
ATOM     15  C   LIG    1      -39.868  70.959  23.746  0.00  0.00    -0.024 A 
ATOM     16  C   LIG    1      -38.668  71.318  24.381  0.00  0.00    +0.043 A 
ATOM     17  C   LIG    1      -38.411  72.648  24.711  0.00  0.00    +0.124 A 
ATOM     18  F   LIG    1      -37.257  72.965  25.312  0.00  0.00    -0.205 F 
ATOM     19  C   LIG    1      -39.326  73.650  24.421  0.00  0.00    +0.038 A 
ATOM     20  C   LIG    1      -40.522  73.317  23.793  0.00  0.00    +0.003 A 
ATOM     21  C   LIG    1      -40.790  71.984  23.457  0.00  0.00    +0.005 A 
ENDBRANCH  11  15
ENDBRANCH   4  10
BRANCH   1  24
ATOM     22  N   LIG    1      -35.225  69.013  24.876  0.00  0.00    -0.306 N 
ATOM     23  H   LIG    1      -35.629  69.661  24.201  0.00  0.00    +0.150 HD
ATOM     24  C   LIG    1      -35.088  67.713  24.431  0.00  0.00    +0.250 C 
ATOM     25  O   LIG    1      -34.732  66.777  25.127  0.00  0.00    -0.270 OA
BRANCH  22  27
ATOM     26  C   LIG    1      -34.817  71.012  26.205  0.00  0.00    +0.031 C 
ATOM     27  C   LIG    1      -35.060  69.492  26.259  0.00  0.00    +0.026 C 
ATOM     28  C   LIG    1      -36.336  69.230  27.073  0.00  0.00    +0.031 C 
ATOM     29  C   LIG    1      -33.857  68.855  26.978  0.00  0.00    +0.031 C 
ENDBRANCH  22  27
ENDBRANCH   1  24
TORSDOF 4
ENDMDL
MODEL 4
REMARK VINA RESULT:      -5.5     15.199     19.364
REMARK  Name = pdb/CHEMBL3675914.pdb
REMARK                            x       y       z     vdW  Elec       q    Type
REMARK                         _______ _______ _______ _____ _____    ______ ____
ROOT
ATOM      1  C   LIG    1      -37.560  76.244  25.992  0.00  0.00    +0.100 A 
ATOM      2  C   LIG    1      -38.003  75.011  25.545  0.00  0.00    +0.170 A 
ATOM      3  N   LIG    1      -37.500  73.738  25.691  0.00  0.00    -0.212 NA
ATOM      4  C   LIG    1      -38.122  72.749  25.083  0.00  0.00    +0.126 A 
ATOM      5  C   LIG    1      -39.402  72.977  24.308  0.00  0.00    +0.063 A 
ATOM      6  C   LIG    1      -39.853  74.230  24.206  0.00  0.00    +0.118 A 
ATOM      7  N   LIG    1      -39.160  75.265  24.805  0.00  0.00    -0.221 N 
ATOM      8  N   LIG    1      -39.476  76.580  24.774  0.00  0.00    -0.173 NA
ATOM      9  C   LIG    1      -38.504  77.162  25.476  0.00  0.00    +0.150 A 
ENDROOT
BRANCH   4  10
ATOM     10  N   LIG    1      -37.612  71.456  25.143  0.00  0.00    -0.308 N 
ATOM     11  C   LIG    1      -38.456  70.256  25.007  0.00  0.00    +0.105 C 
ATOM     12  C   LIG    1      -37.792  69.228  25.942  0.00  0.00    +0.029 C 
ATOM     13  C   LIG    1      -36.324  69.617  25.927  0.00  0.00    +0.021 C 
ATOM     14  C   LIG    1      -36.391  71.135  25.892  0.00  0.00    +0.107 C 
BRANCH  11  15
ATOM     15  C   LIG    1      -38.537  69.765  23.566  0.00  0.00    -0.024 A 
ATOM     16  C   LIG    1      -39.739  69.716  22.842  0.00  0.00    +0.043 A 
ATOM     17  C   LIG    1      -39.750  69.289  21.516  0.00  0.00    +0.124 A 
ATOM     18  F   LIG    1      -40.909  69.256  20.845  0.00  0.00    -0.205 F 
ATOM     19  C   LIG    1      -38.581  68.905  20.874  0.00  0.00    +0.038 A 
ATOM     20  C   LIG    1      -37.378  68.945  21.572  0.00  0.00    +0.003 A 
ATOM     21  C   LIG    1      -37.356  69.372  22.906  0.00  0.00    +0.005 A 
ENDBRANCH  11  15
ENDBRANCH   4  10
BRANCH   1  24
ATOM     22  N   LIG    1      -35.624  75.470  27.137  0.00  0.00    -0.306 N 
ATOM     23  H   LIG    1      -35.867  74.604  26.658  0.00  0.00    +0.150 HD
ATOM     24  C   LIG    1      -36.394  76.565  26.796  0.00  0.00    +0.250 C 
ATOM     25  O   LIG    1      -36.184  77.704  27.176  0.00  0.00    -0.270 OA
BRANCH  22  27
ATOM     26  C   LIG    1      -33.839  74.040  27.970  0.00  0.00    +0.031 C 
ATOM     27  C   LIG    1      -34.382  75.480  27.929  0.00  0.00    +0.026 C 
ATOM     28  C   LIG    1      -33.330  76.381  27.265  0.00  0.00    +0.031 C 
ATOM     29  C   LIG    1      -34.599  75.936  29.383  0.00  0.00    +0.031 C 
ENDBRANCH  22  27
ENDBRANCH   1  24
TORSDOF 4
ENDMDL
MODEL 5
REMARK VINA RESULT:      -5.5     17.478     20.308
REMARK  Name = pdb/CHEMBL3675914.pdb
REMARK                            x       y       z     vdW  Elec       q    Type
REMARK                         _______ _______ _______ _____ _____    ______ ____
ROOT
ATOM      1  C   LIG    1      -18.792  85.204  13.326  0.00  0.00    +0.100 A 
ATOM      2  C   LIG    1      -18.939  83.865  13.647  0.00  0.00    +0.170 A 
ATOM      3  N   LIG    1      -19.901  83.184  14.358  0.00  0.00    -0.212 NA
ATOM      4  C   LIG    1      -19.732  81.892  14.554  0.00  0.00    +0.126 A 
ATOM      5  C   LIG    1      -18.560  81.147  13.952  0.00  0.00    +0.063 A 
ATOM      6  C   LIG    1      -17.662  81.854  13.261  0.00  0.00    +0.118 A 
ATOM      7  N   LIG    1      -17.825  83.218  13.108  0.00  0.00    -0.221 N 
ATOM      8  N   LIG    1      -16.996  84.068  12.459  0.00  0.00    -0.173 NA
ATOM      9  C   LIG    1      -17.576  85.259  12.606  0.00  0.00    +0.150 A 
ENDROOT
BRANCH   4  10
ATOM     10  N   LIG    1      -20.640  81.175  15.327  0.00  0.00    -0.308 N 
ATOM     11  C   LIG    1      -21.167  79.858  14.925  0.00  0.00    +0.105 C 
ATOM     12  C   LIG    1      -22.611  79.858  15.460  0.00  0.00    +0.029 C 
ATOM     13  C   LIG    1      -22.545  80.753  16.685  0.00  0.00    +0.021 C 
ATOM     14  C   LIG    1      -21.575  81.836  16.244  0.00  0.00    +0.107 C 
BRANCH  11  15
ATOM     15  C   LIG    1      -20.339  78.708  15.486  0.00  0.00    -0.024 A 
ATOM     16  C   LIG    1      -20.459  77.386  15.029  0.00  0.00    +0.043 A 
ATOM     17  C   LIG    1      -19.653  76.378  15.555  0.00  0.00    +0.124 A 
ATOM     18  F   LIG    1      -19.784  75.125  15.098  0.00  0.00    -0.205 F 
ATOM     19  C   LIG    1      -18.712  76.649  16.538  0.00  0.00    +0.038 A 
ATOM     20  C   LIG    1      -18.576  77.952  17.007  0.00  0.00    +0.003 A 
ATOM     21  C   LIG    1      -19.381  78.972  16.485  0.00  0.00    +0.005 A 
ENDBRANCH  11  15
ENDBRANCH   4  10
BRANCH   1  24
ATOM     22  N   LIG    1      -20.962  86.172  13.222  0.00  0.00    -0.306 N 
ATOM     23  H   LIG    1      -21.201  85.241  12.885  0.00  0.00    +0.150 HD
ATOM     24  C   LIG    1      -19.657  86.326  13.648  0.00  0.00    +0.250 C 
ATOM     25  O   LIG    1      -19.218  87.327  14.186  0.00  0.00    -0.270 OA
BRANCH  22  27
ATOM     26  C   LIG    1      -23.353  86.472  12.875  0.00  0.00    +0.031 C 
ATOM     27  C   LIG    1      -22.067  87.128  13.412  0.00  0.00    +0.026 C 
ATOM     28  C   LIG    1      -22.262  87.432  14.905  0.00  0.00    +0.031 C 
ATOM     29  C   LIG    1      -21.862  88.446  12.645  0.00  0.00    +0.031 C 
ENDBRANCH  22  27
ENDBRANCH   1  24
TORSDOF 4
ENDMDL
MODEL 6
REMARK VINA RESULT:      -5.4     20.275     23.059
REMARK  Name = pdb/CHEMBL3675914.pdb
REMARK                            x       y       z     vdW  Elec       q    Type
REMARK                         _______ _______ _______ _____ _____    ______ ____
ROOT
ATOM      1  C   LIG    1      -32.294  94.094  22.809  0.00  0.00    +0.100 A 
ATOM      2  C   LIG    1      -32.626  93.525  21.592  0.00  0.00    +0.170 A 
ATOM      3  N   LIG    1      -33.719  92.798  21.176  0.00  0.00    -0.212 NA
ATOM      4  C   LIG    1      -33.722  92.326  19.947  0.00  0.00    +0.126 A 
ATOM      5  C   LIG    1      -32.599  92.633  18.979  0.00  0.00    +0.063 A 
ATOM      6  C   LIG    1      -31.568  93.353  19.430  0.00  0.00    +0.118 A 
ATOM      7  N   LIG    1      -31.554  93.797  20.738  0.00  0.00    -0.221 N 
ATOM      8  N   LIG    1      -30.579  94.512  21.343  0.00  0.00    -0.173 NA
ATOM      9  C   LIG    1      -31.024  94.674  22.590  0.00  0.00    +0.150 A 
ENDROOT
BRANCH   4  10
ATOM     10  N   LIG    1      -34.771  91.526  19.505  0.00  0.00    -0.308 N 
ATOM     11  C   LIG    1      -35.176  91.449  18.089  0.00  0.00    +0.105 C 
ATOM     12  C   LIG    1      -36.703  91.262  18.152  0.00  0.00    +0.029 C 
ATOM     13  C   LIG    1      -36.928  90.526  19.460  0.00  0.00    +0.021 C 
ATOM     14  C   LIG    1      -35.897  91.168  20.374  0.00  0.00    +0.107 C 
BRANCH  11  15
ATOM     15  C   LIG    1      -34.481  90.313  17.349  0.00  0.00    -0.024 A 
ATOM     16  C   LIG    1      -34.299  90.307  15.957  0.00  0.00    +0.043 A 
ATOM     17  C   LIG    1      -33.626  89.256  15.335  0.00  0.00    +0.124 A 
ATOM     18  F   LIG    1      -33.461  89.276  14.006  0.00  0.00    -0.205 F 
ATOM     19  C   LIG    1      -33.117  88.194  16.068  0.00  0.00    +0.038 A 
ATOM     20  C   LIG    1      -33.287  88.178  17.449  0.00  0.00    +0.003 A 
ATOM     21  C   LIG    1      -33.961  89.229  18.084  0.00  0.00    +0.005 A 
ENDBRANCH  11  15
ENDBRANCH   4  10
BRANCH   1  24
ATOM     22  N   LIG    1      -32.980  92.921  24.762  0.00  0.00    -0.306 N 
ATOM     23  H   LIG    1      -32.295  92.248  24.419  0.00  0.00    +0.150 HD
ATOM     24  C   LIG    1      -33.045  94.104  24.053  0.00  0.00    +0.250 C 
ATOM     25  O   LIG    1      -33.717  95.068  24.377  0.00  0.00    -0.270 OA
BRANCH  22  27
ATOM     26  C   LIG    1      -33.188  91.222  26.494  0.00  0.00    +0.031 C 
ATOM     27  C   LIG    1      -33.621  92.634  26.057  0.00  0.00    +0.026 C 
ATOM     28  C   LIG    1      -33.155  93.639  27.120  0.00  0.00    +0.031 C 
ATOM     29  C   LIG    1      -35.158  92.646  25.983  0.00  0.00    +0.031 C 
ENDBRANCH  22  27
ENDBRANCH   1  24
TORSDOF 4
ENDMDL
MODEL 7
REMARK VINA RESULT:      -5.3     13.562     16.640
REMARK  Name = pdb/CHEMBL3675914.pdb
REMARK                            x       y       z     vdW  Elec       q    Type
REMARK                         _______ _______ _______ _____ _____    ______ ____
ROOT
ATOM      1  C   LIG    1      -37.530  71.427  24.747  0.00  0.00    +0.100 A 
ATOM      2  C   LIG    1      -36.519  71.164  25.656  0.00  0.00    +0.170 A 
ATOM      3  N   LIG    1      -36.048  71.862  26.745  0.00  0.00    -0.212 NA
ATOM      4  C   LIG    1      -35.008  71.378  27.393  0.00  0.00    +0.126 A 
ATOM      5  C   LIG    1      -34.386  70.052  27.011  0.00  0.00    +0.063 A 
ATOM      6  C   LIG    1      -34.888  69.410  25.953  0.00  0.00    +0.118 A 
ATOM      7  N   LIG    1      -35.946  69.956  25.251  0.00  0.00    -0.221 N 
ATOM      8  N   LIG    1      -36.546  69.441  24.154  0.00  0.00    -0.173 NA
ATOM      9  C   LIG    1      -37.486  70.336  23.849  0.00  0.00    +0.150 A 
ENDROOT
BRANCH   4  10
ATOM     10  N   LIG    1      -34.452  72.084  28.455  0.00  0.00    -0.308 N 
ATOM     11  C   LIG    1      -33.465  73.162  28.270  0.00  0.00    +0.105 C 
ATOM     12  C   LIG    1      -32.541  73.033  29.495  0.00  0.00    +0.029 C 
ATOM     13  C   LIG    1      -33.444  72.465  30.575  0.00  0.00    +0.021 C 
ATOM     14  C   LIG    1      -34.315  71.496  29.793  0.00  0.00    +0.107 C 
BRANCH  11  15
ATOM     15  C   LIG    1      -34.119  74.536  28.177  0.00  0.00    -0.024 A 
ATOM     16  C   LIG    1      -33.477  75.652  27.616  0.00  0.00    +0.043 A 
ATOM     17  C   LIG    1      -34.135  76.877  27.527  0.00  0.00    +0.124 A 
ATOM     18  F   LIG    1      -33.503  77.925  26.983  0.00  0.00    -0.205 F 
ATOM     19  C   LIG    1      -35.436  77.030  27.985  0.00  0.00    +0.038 A 
ATOM     20  C   LIG    1      -36.092  75.938  28.547  0.00  0.00    +0.003 A 
ATOM     21  C   LIG    1      -35.440  74.702  28.640  0.00  0.00    +0.005 A 
ENDBRANCH  11  15
ENDBRANCH   4  10
BRANCH   1  24
ATOM     22  N   LIG    1      -37.897  73.745  25.139  0.00  0.00    -0.306 N 
ATOM     23  H   LIG    1      -36.891  73.726  25.304  0.00  0.00    +0.150 HD
ATOM     24  C   LIG    1      -38.440  72.558  24.688  0.00  0.00    +0.250 C 
ATOM     25  O   LIG    1      -39.597  72.418  24.330  0.00  0.00    -0.270 OA
BRANCH  22  27
ATOM     26  C   LIG    1      -39.114  75.252  26.614  0.00  0.00    +0.031 C 
ATOM     27  C   LIG    1      -38.566  75.056  25.188  0.00  0.00    +0.026 C 
ATOM     28  C   LIG    1      -37.562  76.181  24.893  0.00  0.00    +0.031 C 
ATOM     29  C   LIG    1      -39.753  75.164  24.214  0.00  0.00    +0.031 C 
ENDBRANCH  22  27
ENDBRANCH   1  24
TORSDOF 4
ENDMDL
MODEL 8
REMARK VINA RESULT:      -5.2     19.636     22.379
REMARK  Name = pdb/CHEMBL3675914.pdb
REMARK                            x       y       z     vdW  Elec       q    Type
REMARK                         _______ _______ _______ _____ _____    ______ ____
ROOT
ATOM      1  C   LIG    1      -36.046  67.320  21.874  0.00  0.00    +0.100 A 
ATOM      2  C   LIG    1      -36.889  68.214  22.512  0.00  0.00    +0.170 A 
ATOM      3  N   LIG    1      -38.144  68.687  22.201  0.00  0.00    -0.212 NA
ATOM      4  C   LIG    1      -38.678  69.601  22.985  0.00  0.00    +0.126 A 
ATOM      5  C   LIG    1      -37.978  70.069  24.243  0.00  0.00    +0.063 A 
ATOM      6  C   LIG    1      -36.767  69.569  24.505  0.00  0.00    +0.118 A 
ATOM      7  N   LIG    1      -36.197  68.650  23.644  0.00  0.00    -0.221 N 
ATOM      8  N   LIG    1      -34.979  68.074  23.761  0.00  0.00    -0.173 NA
ATOM      9  C   LIG    1      -34.890  67.288  22.688  0.00  0.00    +0.150 A 
ENDROOT
BRANCH   4  10
ATOM     10  N   LIG    1      -39.912  70.161  22.672  0.00  0.00    -0.308 N 
ATOM     11  C   LIG    1      -40.795  70.766  23.685  0.00  0.00    +0.105 C 
ATOM     12  C   LIG    1      -42.214  70.437  23.183  0.00  0.00    +0.029 C 
ATOM     13  C   LIG    1      -42.060  70.371  21.674  0.00  0.00    +0.021 C 
ATOM     14  C   LIG    1      -40.697  69.716  21.515  0.00  0.00    +0.107 C 
BRANCH  11  15
ATOM     15  C   LIG    1      -40.563  72.265  23.834  0.00  0.00    -0.024 A 
ATOM     16  C   LIG    1      -39.377  72.806  24.356  0.00  0.00    +0.043 A 
ATOM     17  C   LIG    1      -39.206  74.187  24.439  0.00  0.00    +0.124 A 
ATOM     18  F   LIG    1      -38.062  74.678  24.936  0.00  0.00    -0.205 F 
ATOM     19  C   LIG    1      -40.193  75.062  24.009  0.00  0.00    +0.038 A 
ATOM     20  C   LIG    1      -41.377  74.548  23.490  0.00  0.00    +0.003 A 
ATOM     21  C   LIG    1      -41.560  73.162  23.401  0.00  0.00    +0.005 A 
ENDBRANCH  11  15
ENDBRANCH   4  10
BRANCH   1  24
ATOM     22  N   LIG    1      -35.535  67.046  19.568  0.00  0.00    -0.306 N 
ATOM     23  H   LIG    1      -34.828  67.744  19.793  0.00  0.00    +0.150 HD
ATOM     24  C   LIG    1      -36.258  66.575  20.645  0.00  0.00    +0.250 C 
ATOM     25  O   LIG    1      -37.064  65.662  20.592  0.00  0.00    -0.270 OA
BRANCH  22  27
ATOM     26  C   LIG    1      -34.460  67.249  17.392  0.00  0.00    +0.031 C 
ATOM     27  C   LIG    1      -35.530  66.493  18.202  0.00  0.00    +0.026 C 
ATOM     28  C   LIG    1      -35.160  65.003  18.228  0.00  0.00    +0.031 C 
ATOM     29  C   LIG    1      -36.875  66.672  17.475  0.00  0.00    +0.031 C 
ENDBRANCH  22  27
ENDBRANCH   1  24
TORSDOF 4
ENDMDL
MODEL 9
REMARK VINA RESULT:      -5.2     16.127     19.581
REMARK  Name = pdb/CHEMBL3675914.pdb
REMARK                            x       y       z     vdW  Elec       q    Type
REMARK                         _______ _______ _______ _____ _____    ______ ____
ROOT
ATOM      1  C   LIG    1      -37.795  83.446  24.620  0.00  0.00    +0.100 A 
ATOM      2  C   LIG    1      -38.854  82.662  24.196  0.00  0.00    +0.170 A 
ATOM      3  N   LIG    1      -39.300  81.419  24.585  0.00  0.00    -0.212 NA
ATOM      4  C   LIG    1      -40.320  80.893  23.939  0.00  0.00    +0.126 A 
ATOM      5  C   LIG    1      -41.043  81.654  22.849  0.00  0.00    +0.063 A 
ATOM      6  C   LIG    1      -40.577  82.861  22.518  0.00  0.00    +0.118 A 
ATOM      7  N   LIG    1      -39.473  83.379  23.170  0.00  0.00    -0.221 N 
ATOM      8  N   LIG    1      -38.874  84.568  22.934  0.00  0.00    -0.173 NA
ATOM      9  C   LIG    1      -37.860  84.596  23.799  0.00  0.00    +0.150 A 
ENDROOT
BRANCH   4  10
ATOM     10  N   LIG    1      -40.760  79.610  24.248  0.00  0.00    -0.308 N 
ATOM     11  C   LIG    1      -40.098  78.394  23.742  0.00  0.00    +0.105 C 
ATOM     12  C   LIG    1      -41.257  77.399  23.540  0.00  0.00    +0.029 C 
ATOM     13  C   LIG    1      -42.277  77.811  24.586  0.00  0.00    +0.021 C 
ATOM     14  C   LIG    1      -42.163  79.326  24.573  0.00  0.00    +0.107 C 
BRANCH  11  15
ATOM     15  C   LIG    1      -39.041  77.868  24.706  0.00  0.00    -0.024 A 
ATOM     16  C   LIG    1      -38.840  78.406  25.987  0.00  0.00    +0.043 A 
ATOM     17  C   LIG    1      -37.880  77.864  26.840  0.00  0.00    +0.124 A 
ATOM     18  F   LIG    1      -37.711  78.392  28.060  0.00  0.00    -0.205 F 
ATOM     19  C   LIG    1      -37.102  76.782  26.453  0.00  0.00    +0.038 A 
ATOM     20  C   LIG    1      -37.283  76.234  25.187  0.00  0.00    +0.003 A 
ATOM     21  C   LIG    1      -38.245  76.770  24.322  0.00  0.00    +0.005 A 
ENDBRANCH  11  15
ENDBRANCH   4  10
BRANCH   1  24
ATOM     22  N   LIG    1      -37.330  82.570  26.782  0.00  0.00    -0.306 N 
ATOM     23  H   LIG    1      -38.288  82.235  26.691  0.00  0.00    +0.150 HD
ATOM     24  C   LIG    1      -36.813  83.180  25.657  0.00  0.00    +0.250 C 
ATOM     25  O   LIG    1      -35.654  83.541  25.536  0.00  0.00    -0.270 OA
BRANCH  22  27
ATOM     26  C   LIG    1      -37.599  81.624  29.009  0.00  0.00    +0.031 C 
ATOM     27  C   LIG    1      -36.584  82.166  27.986  0.00  0.00    +0.026 C 
ATOM     28  C   LIG    1      -35.586  81.048  27.648  0.00  0.00    +0.031 C 
ATOM     29  C   LIG    1      -35.834  83.335  28.650  0.00  0.00    +0.031 C 
ENDBRANCH  22  27
ENDBRANCH   1  24
TORSDOF 4
ENDMDL
