MODEL 1
REMARK VINA RESULT:      -6.2      0.000      0.000
REMARK  Name = pdb/CHEMBL3675910.pdb
REMARK                            x       y       z     vdW  Elec       q    Type
REMARK                         _______ _______ _______ _____ _____    ______ ____
ROOT
ATOM      1  C   LIG    1      -23.707  77.025  30.390  0.00  0.00    +0.101 A 
ATOM      2  C   LIG    1      -24.428  75.995  30.964  0.00  0.00    +0.170 A 
ATOM      3  N   LIG    1      -24.087  74.717  31.295  0.00  0.00    -0.212 NA
ATOM      4  C   LIG    1      -24.975  73.942  31.876  0.00  0.00    +0.126 A 
ATOM      5  C   LIG    1      -26.374  74.432  32.162  0.00  0.00    +0.063 A 
ATOM      6  C   LIG    1      -26.660  75.697  31.827  0.00  0.00    +0.118 A 
ATOM      7  N   LIG    1      -25.698  76.502  31.235  0.00  0.00    -0.221 N 
ATOM      8  N   LIG    1      -25.816  77.799  30.861  0.00  0.00    -0.173 NA
ATOM      9  C   LIG    1      -24.607  78.111  30.389  0.00  0.00    +0.150 A 
ENDROOT
BRANCH   1  14
ATOM     10  C   LIG    1      -18.782  76.948  32.804  0.00  0.00    +0.044 C 
ATOM     11  C   LIG    1      -19.814  77.848  32.140  0.00  0.00    +0.095 C 
ATOM     12  C   LIG    1      -21.269  77.340  32.261  0.00  0.00    +0.144 C 
ATOM     13  N   LIG    1      -21.404  77.614  30.827  0.00  0.00    -0.292 N 
ATOM     14  C   LIG    1      -22.320  77.042  29.967  0.00  0.00    +0.252 C 
ATOM     15  O   LIG    1      -21.981  76.560  28.889  0.00  0.00    -0.270 OA
ATOM     16  C   LIG    1      -19.959  77.644  30.612  0.00  0.00    +0.144 C 
BRANCH  11  17
ATOM     17  O   LIG    1      -19.597  79.215  32.588  0.00  0.00    -0.386 OA
ATOM     18  H   LIG    1      -20.445  79.667  32.440  0.00  0.00    +0.210 HD
ENDBRANCH  11  17
ENDBRANCH   1  14
BRANCH   4  19
ATOM     19  N   LIG    1      -24.582  72.654  32.209  0.00  0.00    -0.308 N 
ATOM     20  C   LIG    1      -25.456  71.478  32.137  0.00  0.00    +0.108 C 
ATOM     21  C   LIG    1      -25.005  70.603  33.316  0.00  0.00    +0.029 C 
ATOM     22  C   LIG    1      -23.533  70.940  33.472  0.00  0.00    +0.021 C 
ATOM     23  C   LIG    1      -23.502  72.435  33.185  0.00  0.00    +0.107 C 
BRANCH  20  24
ATOM     24  C   LIG    1      -25.336  70.760  30.809  0.00  0.00    +0.011 A 
ATOM     25  C   LIG    1      -26.280  69.775  30.485  0.00  0.00    +0.129 A 
ATOM     26  F   LIG    1      -27.276  69.506  31.340  0.00  0.00    -0.205 F 
ATOM     27  C   LIG    1      -26.217  69.063  29.288  0.00  0.00    +0.041 A 
ATOM     28  C   LIG    1      -25.186  69.323  28.388  0.00  0.00    +0.041 A 
ATOM     29  C   LIG    1      -24.238  70.290  28.698  0.00  0.00    +0.124 A 
ATOM     30  F   LIG    1      -23.242  70.534  27.837  0.00  0.00    -0.205 F 
ATOM     31  C   LIG    1      -24.303  71.007  29.890  0.00  0.00    +0.046 A 
ENDBRANCH  20  24
ENDBRANCH   4  19
TORSDOF 4
ENDMDL
MODEL 2
REMARK VINA RESULT:      -6.1      4.839      8.849
REMARK  Name = pdb/CHEMBL3675910.pdb
REMARK                            x       y       z     vdW  Elec       q    Type
REMARK                         _______ _______ _______ _____ _____    ______ ____
ROOT
ATOM      1  C   LIG    1      -22.790  76.040  31.026  0.00  0.00    +0.101 A 
ATOM      2  C   LIG    1      -21.885  76.878  31.650  0.00  0.00    +0.170 A 
ATOM      3  N   LIG    1      -21.739  77.256  32.952  0.00  0.00    -0.212 NA
ATOM      4  C   LIG    1      -20.749  78.053  33.285  0.00  0.00    +0.126 A 
ATOM      5  C   LIG    1      -19.783  78.578  32.251  0.00  0.00    +0.063 A 
ATOM      6  C   LIG    1      -19.961  78.172  30.986  0.00  0.00    +0.118 A 
ATOM      7  N   LIG    1      -21.001  77.313  30.664  0.00  0.00    -0.221 N 
ATOM      8  N   LIG    1      -21.301  76.792  29.449  0.00  0.00    -0.173 NA
ATOM      9  C   LIG    1      -22.353  76.005  29.685  0.00  0.00    +0.150 A 
ENDROOT
BRANCH   1  14
ATOM     10  C   LIG    1      -28.149  76.793  31.920  0.00  0.00    +0.044 C 
ATOM     11  C   LIG    1      -26.776  76.814  32.577  0.00  0.00    +0.095 C 
ATOM     12  C   LIG    1      -25.616  77.142  31.609  0.00  0.00    +0.144 C 
ATOM     13  N   LIG    1      -24.905  76.003  32.195  0.00  0.00    -0.292 N 
ATOM     14  C   LIG    1      -23.883  75.285  31.607  0.00  0.00    +0.252 C 
ATOM     15  O   LIG    1      -23.895  74.057  31.568  0.00  0.00    -0.270 OA
ATOM     16  C   LIG    1      -26.124  75.421  32.751  0.00  0.00    +0.144 C 
BRANCH  11  17
ATOM     17  O   LIG    1      -26.842  77.647  33.768  0.00  0.00    -0.386 OA
ATOM     18  H   LIG    1      -25.918  77.759  34.049  0.00  0.00    +0.210 HD
ENDBRANCH  11  17
ENDBRANCH   1  14
BRANCH   4  19
ATOM     19  N   LIG    1      -20.629  78.401  34.623  0.00  0.00    -0.308 N 
ATOM     20  C   LIG    1      -20.457  79.774  35.108  0.00  0.00    +0.108 C 
ATOM     21  C   LIG    1      -19.541  79.628  36.333  0.00  0.00    +0.029 C 
ATOM     22  C   LIG    1      -19.876  78.247  36.869  0.00  0.00    +0.021 C 
ATOM     23  C   LIG    1      -20.087  77.439  35.596  0.00  0.00    +0.107 C 
BRANCH  20  24
ATOM     24  C   LIG    1      -21.779  80.426  35.453  0.00  0.00    +0.011 A 
ATOM     25  C   LIG    1      -21.781  81.753  35.909  0.00  0.00    +0.129 A 
ATOM     26  F   LIG    1      -20.623  82.420  36.009  0.00  0.00    -0.205 F 
ATOM     27  C   LIG    1      -22.960  82.406  36.262  0.00  0.00    +0.041 A 
ATOM     28  C   LIG    1      -24.175  81.730  36.172  0.00  0.00    +0.041 A 
ATOM     29  C   LIG    1      -24.188  80.412  35.730  0.00  0.00    +0.124 A 
ATOM     30  F   LIG    1      -25.354  79.758  35.650  0.00  0.00    -0.205 F 
ATOM     31  C   LIG    1      -23.012  79.759  35.370  0.00  0.00    +0.046 A 
ENDBRANCH  20  24
ENDBRANCH   4  19
TORSDOF 4
ENDMDL
MODEL 3
REMARK VINA RESULT:      -6.0     16.947     19.266
REMARK  Name = pdb/CHEMBL3675910.pdb
REMARK                            x       y       z     vdW  Elec       q    Type
REMARK                         _______ _______ _______ _____ _____    ______ ____
ROOT
ATOM      1  C   LIG    1      -19.813  84.190  12.908  0.00  0.00    +0.101 A 
ATOM      2  C   LIG    1      -19.068  83.063  13.203  0.00  0.00    +0.170 A 
ATOM      3  N   LIG    1      -19.354  81.947  13.931  0.00  0.00    -0.212 NA
ATOM      4  C   LIG    1      -18.458  80.989  14.023  0.00  0.00    +0.126 A 
ATOM      5  C   LIG    1      -17.109  81.113  13.356  0.00  0.00    +0.063 A 
ATOM      6  C   LIG    1      -16.877  82.224  12.645  0.00  0.00    +0.118 A 
ATOM      7  N   LIG    1      -17.848  83.210  12.546  0.00  0.00    -0.221 N 
ATOM      8  N   LIG    1      -17.783  84.372  11.851  0.00  0.00    -0.173 NA
ATOM      9  C   LIG    1      -18.978  84.933  12.047  0.00  0.00    +0.150 A 
ENDROOT
BRANCH   1  14
ATOM     10  C   LIG    1      -22.509  88.597  14.751  0.00  0.00    +0.044 C 
ATOM     11  C   LIG    1      -21.866  87.283  15.170  0.00  0.00    +0.095 C 
ATOM     12  C   LIG    1      -20.710  86.823  14.252  0.00  0.00    +0.144 C 
ATOM     13  N   LIG    1      -21.337  85.498  14.253  0.00  0.00    -0.292 N 
ATOM     14  C   LIG    1      -21.171  84.513  13.299  0.00  0.00    +0.252 C 
ATOM     15  O   LIG    1      -22.130  83.935  12.794  0.00  0.00    -0.270 OA
ATOM     16  C   LIG    1      -22.625  86.016  14.705  0.00  0.00    +0.144 C 
BRANCH  11  17
ATOM     17  O   LIG    1      -21.540  87.354  16.586  0.00  0.00    -0.386 OA
ATOM     18  H   LIG    1      -21.695  88.281  16.835  0.00  0.00    +0.210 HD
ENDBRANCH  11  17
ENDBRANCH   1  14
BRANCH   4  19
ATOM     19  N   LIG    1      -18.795  79.864  14.761  0.00  0.00    -0.308 N 
ATOM     20  C   LIG    1      -19.527  79.898  16.032  0.00  0.00    +0.108 C 
ATOM     21  C   LIG    1      -18.924  78.741  16.843  0.00  0.00    +0.029 C 
ATOM     22  C   LIG    1      -18.498  77.742  15.781  0.00  0.00    +0.021 C 
ATOM     23  C   LIG    1      -17.982  78.641  14.667  0.00  0.00    +0.107 C 
BRANCH  20  24
ATOM     24  C   LIG    1      -21.020  79.745  15.834  0.00  0.00    +0.011 A 
ATOM     25  C   LIG    1      -21.860  80.820  16.159  0.00  0.00    +0.129 A 
ATOM     26  F   LIG    1      -21.326  81.962  16.614  0.00  0.00    -0.205 F 
ATOM     27  C   LIG    1      -23.244  80.739  16.018  0.00  0.00    +0.041 A 
ATOM     28  C   LIG    1      -23.820  79.560  15.552  0.00  0.00    +0.041 A 
ATOM     29  C   LIG    1      -23.002  78.482  15.234  0.00  0.00    +0.124 A 
ATOM     30  F   LIG    1      -23.555  77.345  14.793  0.00  0.00    -0.205 F 
ATOM     31  C   LIG    1      -21.618  78.563  15.367  0.00  0.00    +0.046 A 
ENDBRANCH  20  24
ENDBRANCH   4  19
TORSDOF 4
ENDMDL
MODEL 4
REMARK VINA RESULT:      -5.9     13.952     16.723
REMARK  Name = pdb/CHEMBL3675910.pdb
REMARK                            x       y       z     vdW  Elec       q    Type
REMARK                         _______ _______ _______ _____ _____    ______ ____
ROOT
ATOM      1  C   LIG    1      -30.925  66.885  18.004  0.00  0.00    +0.101 A 
ATOM      2  C   LIG    1      -32.109  66.353  18.479  0.00  0.00    +0.170 A 
ATOM      3  N   LIG    1      -33.297  66.930  18.815  0.00  0.00    -0.212 NA
ATOM      4  C   LIG    1      -34.293  66.171  19.213  0.00  0.00    +0.126 A 
ATOM      5  C   LIG    1      -34.139  64.674  19.330  0.00  0.00    +0.063 A 
ATOM      6  C   LIG    1      -32.955  64.152  18.980  0.00  0.00    +0.118 A 
ATOM      7  N   LIG    1      -31.927  64.973  18.542  0.00  0.00    -0.221 N 
ATOM      8  N   LIG    1      -30.689  64.606  18.131  0.00  0.00    -0.173 NA
ATOM      9  C   LIG    1      -30.110  65.755  17.778  0.00  0.00    +0.150 A 
ENDROOT
BRANCH   1  14
ATOM     10  C   LIG    1      -26.772  70.329  18.996  0.00  0.00    +0.044 C 
ATOM     11  C   LIG    1      -28.174  69.932  19.436  0.00  0.00    +0.095 C 
ATOM     12  C   LIG    1      -28.527  68.452  19.163  0.00  0.00    +0.144 C 
ATOM     13  N   LIG    1      -29.793  68.935  18.605  0.00  0.00    -0.292 N 
ATOM     14  C   LIG    1      -30.600  68.267  17.706  0.00  0.00    +0.252 C 
ATOM     15  O   LIG    1      -31.025  68.812  16.690  0.00  0.00    -0.270 OA
ATOM     16  C   LIG    1      -29.293  70.296  18.429  0.00  0.00    +0.144 C 
BRANCH  11  17
ATOM     17  O   LIG    1      -28.375  70.372  20.807  0.00  0.00    -0.386 OA
ATOM     18  H   LIG    1      -27.489  70.617  21.127  0.00  0.00    +0.210 HD
ENDBRANCH  11  17
ENDBRANCH   1  14
BRANCH   4  19
ATOM     19  N   LIG    1      -35.489  66.797  19.531  0.00  0.00    -0.308 N 
ATOM     20  C   LIG    1      -36.398  66.354  20.594  0.00  0.00    +0.108 C 
ATOM     21  C   LIG    1      -37.798  66.667  20.046  0.00  0.00    +0.029 C 
ATOM     22  C   LIG    1      -37.572  67.870  19.147  0.00  0.00    +0.021 C 
ATOM     23  C   LIG    1      -36.225  67.559  18.509  0.00  0.00    +0.107 C 
BRANCH  20  24
ATOM     24  C   LIG    1      -36.124  67.057  21.907  0.00  0.00    +0.011 A 
ATOM     25  C   LIG    1      -35.144  66.534  22.763  0.00  0.00    +0.129 A 
ATOM     26  F   LIG    1      -34.458  65.442  22.396  0.00  0.00    -0.205 F 
ATOM     27  C   LIG    1      -34.856  67.120  23.994  0.00  0.00    +0.041 A 
ATOM     28  C   LIG    1      -35.561  68.251  24.399  0.00  0.00    +0.041 A 
ATOM     29  C   LIG    1      -36.541  68.777  23.565  0.00  0.00    +0.124 A 
ATOM     30  F   LIG    1      -37.224  69.860  23.956  0.00  0.00    -0.205 F 
ATOM     31  C   LIG    1      -36.826  68.196  22.332  0.00  0.00    +0.046 A 
ENDBRANCH  20  24
ENDBRANCH   4  19
TORSDOF 4
ENDMDL
MODEL 5
REMARK VINA RESULT:      -5.8     12.978     15.248
REMARK  Name = pdb/CHEMBL3675910.pdb
REMARK                            x       y       z     vdW  Elec       q    Type
REMARK                         _______ _______ _______ _____ _____    ______ ____
ROOT
ATOM      1  C   LIG    1      -36.388  80.139  28.740  0.00  0.00    +0.101 A 
ATOM      2  C   LIG    1      -37.631  79.653  28.380  0.00  0.00    +0.170 A 
ATOM      3  N   LIG    1      -38.150  79.280  27.176  0.00  0.00    -0.212 NA
ATOM      4  C   LIG    1      -39.375  78.808  27.120  0.00  0.00    +0.126 A 
ATOM      5  C   LIG    1      -40.227  78.693  28.360  0.00  0.00    +0.063 A 
ATOM      6  C   LIG    1      -39.671  79.063  29.522  0.00  0.00    +0.118 A 
ATOM      7  N   LIG    1      -38.368  79.538  29.557  0.00  0.00    -0.221 N 
ATOM      8  N   LIG    1      -37.655  79.926  30.642  0.00  0.00    -0.173 NA
ATOM      9  C   LIG    1      -36.460  80.251  30.144  0.00  0.00    +0.150 A 
ENDROOT
BRANCH   1  14
ATOM     10  C   LIG    1      -32.353  77.187  26.483  0.00  0.00    +0.044 C 
ATOM     11  C   LIG    1      -32.702  78.114  27.638  0.00  0.00    +0.095 C 
ATOM     12  C   LIG    1      -34.192  78.078  28.051  0.00  0.00    +0.144 C 
ATOM     13  N   LIG    1      -34.151  79.543  28.045  0.00  0.00    -0.292 N 
ATOM     14  C   LIG    1      -35.230  80.392  27.904  0.00  0.00    +0.252 C 
ATOM     15  O   LIG    1      -35.221  81.323  27.101  0.00  0.00    -0.270 OA
ATOM     16  C   LIG    1      -32.939  79.589  27.231  0.00  0.00    +0.144 C 
BRANCH  11  17
ATOM     17  O   LIG    1      -31.756  77.889  28.719  0.00  0.00    -0.386 OA
ATOM     18  H   LIG    1      -31.492  78.777  29.013  0.00  0.00    +0.210 HD
ENDBRANCH  11  17
ENDBRANCH   1  14
BRANCH   4  19
ATOM     19  N   LIG    1      -39.859  78.426  25.877  0.00  0.00    -0.308 N 
ATOM     20  C   LIG    1      -39.022  77.913  24.786  0.00  0.00    +0.108 C 
ATOM     21  C   LIG    1      -39.691  78.456  23.514  0.00  0.00    +0.029 C 
ATOM     22  C   LIG    1      -41.157  78.560  23.894  0.00  0.00    +0.021 C 
ATOM     23  C   LIG    1      -41.092  79.026  25.343  0.00  0.00    +0.107 C 
BRANCH  20  24
ATOM     24  C   LIG    1      -38.942  76.401  24.793  0.00  0.00    +0.011 A 
ATOM     25  C   LIG    1      -37.849  75.784  25.419  0.00  0.00    +0.129 A 
ATOM     26  F   LIG    1      -36.915  76.539  26.013  0.00  0.00    -0.205 F 
ATOM     27  C   LIG    1      -37.704  74.398  25.445  0.00  0.00    +0.041 A 
ATOM     28  C   LIG    1      -38.661  73.595  24.828  0.00  0.00    +0.041 A 
ATOM     29  C   LIG    1      -39.746  74.192  24.197  0.00  0.00    +0.124 A 
ATOM     30  F   LIG    1      -40.662  73.422  23.596  0.00  0.00    -0.205 F 
ATOM     31  C   LIG    1      -39.896  75.576  24.175  0.00  0.00    +0.046 A 
ENDBRANCH  20  24
ENDBRANCH   4  19
TORSDOF 4
ENDMDL
MODEL 6
REMARK VINA RESULT:      -5.8     12.131     14.690
REMARK  Name = pdb/CHEMBL3675910.pdb
REMARK                            x       y       z     vdW  Elec       q    Type
REMARK                         _______ _______ _______ _____ _____    ______ ____
ROOT
ATOM      1  C   LIG    1      -36.263  83.025  27.369  0.00  0.00    +0.101 A 
ATOM      2  C   LIG    1      -35.622  81.956  27.967  0.00  0.00    +0.170 A 
ATOM      3  N   LIG    1      -34.996  80.862  27.448  0.00  0.00    -0.212 NA
ATOM      4  C   LIG    1      -34.426  79.999  28.259  0.00  0.00    +0.126 A 
ATOM      5  C   LIG    1      -34.472  80.184  29.757  0.00  0.00    +0.063 A 
ATOM      6  C   LIG    1      -35.090  81.279  30.220  0.00  0.00    +0.118 A 
ATOM      7  N   LIG    1      -35.665  82.186  29.341  0.00  0.00    -0.221 N 
ATOM      8  N   LIG    1      -36.300  83.344  29.642  0.00  0.00    -0.173 NA
ATOM      9  C   LIG    1      -36.623  83.855  28.452  0.00  0.00    +0.150 A 
ENDROOT
BRANCH   1  14
ATOM     10  C   LIG    1      -40.475  84.103  24.025  0.00  0.00    +0.044 C 
ATOM     11  C   LIG    1      -39.518  83.014  24.488  0.00  0.00    +0.095 C 
ATOM     12  C   LIG    1      -38.990  83.206  25.928  0.00  0.00    +0.144 C 
ATOM     13  N   LIG    1      -37.654  82.925  25.395  0.00  0.00    -0.292 N 
ATOM     14  C   LIG    1      -36.451  83.302  25.958  0.00  0.00    +0.252 C 
ATOM     15  O   LIG    1      -35.574  83.855  25.299  0.00  0.00    -0.270 OA
ATOM     16  C   LIG    1      -38.055  83.199  24.017  0.00  0.00    +0.144 C 
BRANCH  11  17
ATOM     17  O   LIG    1      -40.121  81.718  24.218  0.00  0.00    -0.386 OA
ATOM     18  H   LIG    1      -40.971  81.731  24.691  0.00  0.00    +0.210 HD
ENDBRANCH  11  17
ENDBRANCH   1  14
BRANCH   4  19
ATOM     19  N   LIG    1      -33.788  78.908  27.689  0.00  0.00    -0.308 N 
ATOM     20  C   LIG    1      -33.613  77.612  28.353  0.00  0.00    +0.108 C 
ATOM     21  C   LIG    1      -32.247  77.116  27.856  0.00  0.00    +0.029 C 
ATOM     22  C   LIG    1      -32.123  77.731  26.473  0.00  0.00    +0.021 C 
ATOM     23  C   LIG    1      -32.750  79.105  26.663  0.00  0.00    +0.107 C 
BRANCH  20  24
ATOM     24  C   LIG    1      -34.731  76.646  28.021  0.00  0.00    +0.011 A 
ATOM     25  C   LIG    1      -34.852  75.467  28.769  0.00  0.00    +0.129 A 
ATOM     26  F   LIG    1      -33.996  75.229  29.772  0.00  0.00    -0.205 F 
ATOM     27  C   LIG    1      -35.846  74.527  28.503  0.00  0.00    +0.041 A 
ATOM     28  C   LIG    1      -36.743  74.751  27.462  0.00  0.00    +0.041 A 
ATOM     29  C   LIG    1      -36.632  75.911  26.705  0.00  0.00    +0.124 A 
ATOM     30  F   LIG    1      -37.488  76.124  25.698  0.00  0.00    -0.205 F 
ATOM     31  C   LIG    1      -35.643  76.855  26.973  0.00  0.00    +0.046 A 
ENDBRANCH  20  24
ENDBRANCH   4  19
TORSDOF 4
ENDMDL
MODEL 7
REMARK VINA RESULT:      -5.8     17.676     19.574
REMARK  Name = pdb/CHEMBL3675910.pdb
REMARK                            x       y       z     vdW  Elec       q    Type
REMARK                         _______ _______ _______ _____ _____    ______ ____
ROOT
ATOM      1  C   LIG    1      -21.678  86.216  13.955  0.00  0.00    +0.101 A 
ATOM      2  C   LIG    1      -21.969  85.018  14.579  0.00  0.00    +0.170 A 
ATOM      3  N   LIG    1      -21.832  83.723  14.175  0.00  0.00    -0.212 NA
ATOM      4  C   LIG    1      -22.159  82.752  14.998  0.00  0.00    +0.126 A 
ATOM      5  C   LIG    1      -22.707  83.043  16.374  0.00  0.00    +0.063 A 
ATOM      6  C   LIG    1      -22.815  84.331  16.730  0.00  0.00    +0.118 A 
ATOM      7  N   LIG    1      -22.443  85.336  15.850  0.00  0.00    -0.221 N 
ATOM      8  N   LIG    1      -22.466  86.675  16.062  0.00  0.00    -0.173 NA
ATOM      9  C   LIG    1      -21.973  87.189  14.933  0.00  0.00    +0.150 A 
ENDROOT
BRANCH   1  14
ATOM     10  C   LIG    1      -16.875  85.339  11.456  0.00  0.00    +0.044 C 
ATOM     11  C   LIG    1      -17.736  86.396  12.132  0.00  0.00    +0.095 C 
ATOM     12  C   LIG    1      -18.708  85.835  13.195  0.00  0.00    +0.144 C 
ATOM     13  N   LIG    1      -19.748  86.655  12.568  0.00  0.00    -0.292 N 
ATOM     14  C   LIG    1      -21.111  86.446  12.640  0.00  0.00    +0.252 C 
ATOM     15  O   LIG    1      -21.820  86.447  11.637  0.00  0.00    -0.270 OA
ATOM     16  C   LIG    1      -18.991  86.815  11.329  0.00  0.00    +0.144 C 
BRANCH  11  17
ATOM     17  O   LIG    1      -16.875  87.475  12.590  0.00  0.00    -0.386 OA
ATOM     18  H   LIG    1      -16.040  87.044  12.842  0.00  0.00    +0.210 HD
ENDBRANCH  11  17
ENDBRANCH   1  14
BRANCH   4  19
ATOM     19  N   LIG    1      -21.990  81.449  14.552  0.00  0.00    -0.308 N 
ATOM     20  C   LIG    1      -22.622  80.277  15.167  0.00  0.00    +0.108 C 
ATOM     21  C   LIG    1      -21.576  79.162  15.012  0.00  0.00    +0.029 C 
ATOM     22  C   LIG    1      -20.831  79.542  13.745  0.00  0.00    +0.021 C 
ATOM     23  C   LIG    1      -20.761  81.060  13.842  0.00  0.00    +0.107 C 
BRANCH  20  24
ATOM     24  C   LIG    1      -23.937  79.926  14.504  0.00  0.00    +0.011 A 
ATOM     25  C   LIG    1      -24.872  79.162  15.218  0.00  0.00    +0.129 A 
ATOM     26  F   LIG    1      -24.595  78.779  16.472  0.00  0.00    -0.205 F 
ATOM     27  C   LIG    1      -26.094  78.789  14.660  0.00  0.00    +0.041 A 
ATOM     28  C   LIG    1      -26.400  79.171  13.356  0.00  0.00    +0.041 A 
ATOM     29  C   LIG    1      -25.481  79.921  12.633  0.00  0.00    +0.124 A 
ATOM     30  F   LIG    1      -25.770  80.283  11.377  0.00  0.00    -0.205 F 
ATOM     31  C   LIG    1      -24.262  80.301  13.190  0.00  0.00    +0.046 A 
ENDBRANCH  20  24
ENDBRANCH   4  19
TORSDOF 4
ENDMDL
MODEL 8
REMARK VINA RESULT:      -5.7      4.429      8.281
REMARK  Name = pdb/CHEMBL3675910.pdb
REMARK                            x       y       z     vdW  Elec       q    Type
REMARK                         _______ _______ _______ _____ _____    ______ ____
ROOT
ATOM      1  C   LIG    1      -22.546  77.376  30.470  0.00  0.00    +0.101 A 
ATOM      2  C   LIG    1      -21.527  77.693  31.349  0.00  0.00    +0.170 A 
ATOM      3  N   LIG    1      -21.539  78.227  32.603  0.00  0.00    -0.212 NA
ATOM      4  C   LIG    1      -20.403  78.395  33.243  0.00  0.00    +0.126 A 
ATOM      5  C   LIG    1      -19.084  78.030  32.607  0.00  0.00    +0.063 A 
ATOM      6  C   LIG    1      -19.124  77.500  31.377  0.00  0.00    +0.118 A 
ATOM      7  N   LIG    1      -20.337  77.313  30.731  0.00  0.00    -0.221 N 
ATOM      8  N   LIG    1      -20.552  76.771  29.507  0.00  0.00    -0.173 NA
ATOM      9  C   LIG    1      -21.880  76.782  29.377  0.00  0.00    +0.150 A 
ENDROOT
BRANCH   1  14
ATOM     10  C   LIG    1      -26.361  75.526  33.950  0.00  0.00    +0.044 C 
ATOM     11  C   LIG    1      -25.757  75.329  32.567  0.00  0.00    +0.095 C 
ATOM     12  C   LIG    1      -24.277  75.761  32.455  0.00  0.00    +0.144 C 
ATOM     13  N   LIG    1      -24.653  76.462  31.224  0.00  0.00    -0.292 N 
ATOM     14  C   LIG    1      -23.979  77.518  30.645  0.00  0.00    +0.252 C 
ATOM     15  O   LIG    1      -24.560  78.542  30.294  0.00  0.00    -0.270 OA
ATOM     16  C   LIG    1      -26.075  76.460  31.558  0.00  0.00    +0.144 C 
BRANCH  11  17
ATOM     17  O   LIG    1      -26.040  73.973  32.123  0.00  0.00    -0.386 OA
ATOM     18  H   LIG    1      -25.637  73.397  32.796  0.00  0.00    +0.210 HD
ENDBRANCH  11  17
ENDBRANCH   1  14
BRANCH   4  19
ATOM     19  N   LIG    1      -20.462  78.928  34.522  0.00  0.00    -0.308 N 
ATOM     20  C   LIG    1      -21.355  80.020  34.923  0.00  0.00    +0.108 C 
ATOM     21  C   LIG    1      -20.541  80.812  35.957  0.00  0.00    +0.029 C 
ATOM     22  C   LIG    1      -19.644  79.761  36.589  0.00  0.00    +0.021 C 
ATOM     23  C   LIG    1      -19.285  78.875  35.405  0.00  0.00    +0.107 C 
BRANCH  20  24
ATOM     24  C   LIG    1      -22.662  79.507  35.491  0.00  0.00    +0.011 A 
ATOM     25  C   LIG    1      -23.681  80.426  35.780  0.00  0.00    +0.129 A 
ATOM     26  F   LIG    1      -23.490  81.728  35.529  0.00  0.00    -0.205 F 
ATOM     27  C   LIG    1      -24.901  80.023  36.322  0.00  0.00    +0.041 A 
ATOM     28  C   LIG    1      -25.119  78.675  36.597  0.00  0.00    +0.041 A 
ATOM     29  C   LIG    1      -24.115  77.753  36.324  0.00  0.00    +0.124 A 
ATOM     30  F   LIG    1      -24.321  76.458  36.595  0.00  0.00    -0.205 F 
ATOM     31  C   LIG    1      -22.899  78.153  35.776  0.00  0.00    +0.046 A 
ENDBRANCH  20  24
ENDBRANCH   4  19
TORSDOF 4
ENDMDL
MODEL 9
REMARK VINA RESULT:      -5.7     11.627     14.812
REMARK  Name = pdb/CHEMBL3675910.pdb
REMARK                            x       y       z     vdW  Elec       q    Type
REMARK                         _______ _______ _______ _____ _____    ______ ____
ROOT
ATOM      1  C   LIG    1      -38.369  72.159  25.671  0.00  0.00    +0.101 A 
ATOM      2  C   LIG    1      -37.842  73.387  26.025  0.00  0.00    +0.170 A 
ATOM      3  N   LIG    1      -36.922  73.748  26.964  0.00  0.00    -0.212 NA
ATOM      4  C   LIG    1      -36.566  75.009  27.068  0.00  0.00    +0.126 A 
ATOM      5  C   LIG    1      -37.174  76.070  26.183  0.00  0.00    +0.063 A 
ATOM      6  C   LIG    1      -38.067  75.666  25.269  0.00  0.00    +0.118 A 
ATOM      7  N   LIG    1      -38.409  74.326  25.165  0.00  0.00    -0.221 N 
ATOM      8  N   LIG    1      -39.268  73.754  24.286  0.00  0.00    -0.173 NA
ATOM      9  C   LIG    1      -39.209  72.453  24.576  0.00  0.00    +0.150 A 
ENDROOT
BRANCH   1  14
ATOM     10  C   LIG    1      -33.904  69.086  26.512  0.00  0.00    +0.044 C 
ATOM     11  C   LIG    1      -35.096  69.299  25.591  0.00  0.00    +0.095 C 
ATOM     12  C   LIG    1      -35.620  70.753  25.560  0.00  0.00    +0.144 C 
ATOM     13  N   LIG    1      -36.965  70.193  25.718  0.00  0.00    -0.292 N 
ATOM     14  C   LIG    1      -38.073  70.849  26.217  0.00  0.00    +0.252 C 
ATOM     15  O   LIG    1      -38.780  70.352  27.090  0.00  0.00    -0.270 OA
ATOM     16  C   LIG    1      -36.463  68.910  26.205  0.00  0.00    +0.144 C 
BRANCH  11  17
ATOM     17  O   LIG    1      -34.788  68.725  24.290  0.00  0.00    -0.386 OA
ATOM     18  H   LIG    1      -34.242  67.944  24.481  0.00  0.00    +0.210 HD
ENDBRANCH  11  17
ENDBRANCH   1  14
BRANCH   4  19
ATOM     19  N   LIG    1      -35.616  75.330  28.027  0.00  0.00    -0.308 N 
ATOM     20  C   LIG    1      -34.254  75.782  27.722  0.00  0.00    +0.108 C 
ATOM     21  C   LIG    1      -33.398  75.180  28.847  0.00  0.00    +0.029 C 
ATOM     22  C   LIG    1      -34.354  75.104  30.025  0.00  0.00    +0.021 C 
ATOM     23  C   LIG    1      -35.667  74.712  29.362  0.00  0.00    +0.107 C 
BRANCH  20  24
ATOM     24  C   LIG    1      -34.154  77.292  27.669  0.00  0.00    +0.011 A 
ATOM     25  C   LIG    1      -33.032  77.875  27.064  0.00  0.00    +0.129 A 
ATOM     26  F   LIG    1      -32.087  77.091  26.528  0.00  0.00    -0.205 F 
ATOM     27  C   LIG    1      -32.868  79.258  26.998  0.00  0.00    +0.041 A 
ATOM     28  C   LIG    1      -33.835  80.092  27.554  0.00  0.00    +0.041 A 
ATOM     29  C   LIG    1      -34.949  79.529  28.165  0.00  0.00    +0.124 A 
ATOM     30  F   LIG    1      -35.876  80.330  28.707  0.00  0.00    -0.205 F 
ATOM     31  C   LIG    1      -35.118  78.148  28.226  0.00  0.00    +0.046 A 
ENDBRANCH  20  24
ENDBRANCH   4  19
TORSDOF 4
ENDMDL
