MODEL 1
REMARK VINA RESULT:      -6.1      0.000      0.000
REMARK  Name = pdb/CHEMBL3676047.pdb
REMARK                            x       y       z     vdW  Elec       q    Type
REMARK                         _______ _______ _______ _____ _____    ______ ____
ROOT
ATOM      1  C   UNK A  0      -20.533  77.139  30.658  0.00  0.00    +0.100 A 
ATOM      2  C   UNK A  0      -20.117  77.697  31.869  0.00  0.00    +0.170 A 
ATOM      3  N   UNK A  0      -20.789  78.254  32.933  0.00  0.00    -0.212 NA
ATOM      4  C   UNK A  0      -20.073  78.704  33.946  0.00  0.00    +0.126 A 
ATOM      5  C   UNK A  0      -18.578  78.519  34.022  0.00  0.00    +0.063 A 
ATOM      6  C   UNK A  0      -17.973  77.989  32.956  0.00  0.00    +0.118 A 
ATOM      7  N   UNK A  0      -18.718  77.604  31.856  0.00  0.00    -0.221 N 
ATOM      8  N   UNK A  0      -18.240  77.093  30.699  0.00  0.00    -0.173 NA
ATOM      9  C   UNK A  0      -19.330  76.832  29.987  0.00  0.00    +0.150 A 
ENDROOT
BRANCH   4  10
ATOM     10  N   UNK A  0      -20.665  79.379  35.007  0.00  0.00    -0.308 N 
ATOM     11  C   UNK A  0      -21.704  80.404  34.800  0.00  0.00    +0.108 C 
ATOM     12  C   UNK A  0      -21.159  81.616  35.568  0.00  0.00    +0.029 C 
ATOM     13  C   UNK A  0      -20.468  80.992  36.769  0.00  0.00    +0.021 C 
ATOM     14  C   UNK A  0      -19.840  79.730  36.183  0.00  0.00    +0.107 C 
BRANCH  11  15
ATOM     15  C   UNK A  0      -23.047  79.913  35.324  0.00  0.00    +0.011 A 
ATOM     16  C   UNK A  0      -23.981  79.356  34.440  0.00  0.00    +0.129 A 
ATOM     17  F   UNK A  0      -23.685  79.251  33.137  0.00  0.00    -0.205 F 
ATOM     18  C   UNK A  0      -25.227  78.895  34.878  0.00  0.00    +0.041 A 
ATOM     19  C   UNK A  0      -25.570  78.995  36.225  0.00  0.00    +0.041 A 
ATOM     20  C   UNK A  0      -24.661  79.552  37.113  0.00  0.00    +0.124 A 
ATOM     21  F   UNK A  0      -24.981  79.661  38.408  0.00  0.00    -0.205 F 
ATOM     22  C   UNK A  0      -23.417  80.003  36.679  0.00  0.00    +0.046 A 
ENDBRANCH  11  15
ENDBRANCH   4  10
BRANCH   1  25
ATOM     23  N   VAL A  1      -22.880  76.974  31.032  0.00  0.00    -0.306 N 
ATOM     24  H   VAL A  1      -22.631  77.214  31.997  0.00  0.00    +0.149 HD
ATOM     25  C   UNK A  0      -21.860  76.885  30.127  0.00  0.00    +0.249 C 
ATOM     26  O   UNK A  0      -22.028  76.544  28.948  0.00  0.00    -0.270 OA
BRANCH  23  27
ATOM     27  CA  VAL A  1      -24.277  76.626  30.710  0.00  0.00    +0.101 C 
BRANCH  27  29
ATOM     28  CG1 VAL A  1      -24.881  74.182  31.295  0.00  0.00    +0.009 C 
ATOM     29  CB  VAL A  1      -24.884  75.641  31.763  0.00  0.00    +0.005 C 
ATOM     30  CG2 VAL A  1      -24.201  75.718  33.140  0.00  0.00    +0.009 C 
ENDBRANCH  27  29
BRANCH  27  31
ATOM     31  C   VAL A  1      -25.094  77.914  30.520  0.00  0.00    +0.178 C 
BRANCH  31  32
ATOM     32  O   VAL A  1      -26.398  77.791  31.093  0.00  0.00    -0.393 OA
ATOM     33  H   VAL A  1      -26.397  76.968  31.618  0.00  0.00    +0.209 HD
ENDBRANCH  31  32
ENDBRANCH  27  31
ENDBRANCH  23  27
ENDBRANCH   1  25
TORSDOF 7
ENDMDL
MODEL 2
REMARK VINA RESULT:      -6.1      1.893      2.613
REMARK  Name = pdb/CHEMBL3676047.pdb
REMARK                            x       y       z     vdW  Elec       q    Type
REMARK                         _______ _______ _______ _____ _____    ______ ____
ROOT
ATOM      1  C   UNK A  0      -22.907  76.955  30.468  0.00  0.00    +0.100 A 
ATOM      2  C   UNK A  0      -21.976  77.319  31.442  0.00  0.00    +0.170 A 
ATOM      3  N   UNK A  0      -22.088  77.695  32.762  0.00  0.00    -0.212 NA
ATOM      4  C   UNK A  0      -20.979  77.988  33.414  0.00  0.00    +0.126 A 
ATOM      5  C   UNK A  0      -19.611  77.808  32.802  0.00  0.00    +0.063 A 
ATOM      6  C   UNK A  0      -19.560  77.459  31.514  0.00  0.00    +0.118 A 
ATOM      7  N   UNK A  0      -20.728  77.245  30.806  0.00  0.00    -0.221 N 
ATOM      8  N   UNK A  0      -20.829  76.926  29.496  0.00  0.00    -0.173 NA
ATOM      9  C   UNK A  0      -22.133  76.770  29.302  0.00  0.00    +0.150 A 
ENDROOT
BRANCH   4  10
ATOM     10  N   UNK A  0      -21.011  78.481  34.713  0.00  0.00    -0.308 N 
ATOM     11  C   UNK A  0      -20.740  79.897  35.018  0.00  0.00    +0.108 C 
ATOM     12  C   UNK A  0      -19.638  79.822  36.083  0.00  0.00    +0.029 C 
ATOM     13  C   UNK A  0      -20.005  78.585  36.886  0.00  0.00    +0.021 C 
ATOM     14  C   UNK A  0      -20.523  77.627  35.817  0.00  0.00    +0.107 C 
BRANCH  11  15
ATOM     15  C   UNK A  0      -22.006  80.587  35.509  0.00  0.00    +0.011 A 
ATOM     16  C   UNK A  0      -21.940  81.890  36.019  0.00  0.00    +0.129 A 
ATOM     17  F   UNK A  0      -20.762  82.529  36.065  0.00  0.00    -0.205 F 
ATOM     18  C   UNK A  0      -23.078  82.559  36.483  0.00  0.00    +0.041 A 
ATOM     19  C   UNK A  0      -24.317  81.923  36.455  0.00  0.00    +0.041 A 
ATOM     20  C   UNK A  0      -24.400  80.629  35.962  0.00  0.00    +0.124 A 
ATOM     21  F   UNK A  0      -25.583  80.003  35.938  0.00  0.00    -0.205 F 
ATOM     22  C   UNK A  0      -23.270  79.965  35.493  0.00  0.00    +0.046 A 
ENDBRANCH  11  15
ENDBRANCH   4  10
BRANCH   1  25
ATOM     23  N   VAL A  1      -24.785  75.960  31.545  0.00  0.00    -0.306 N 
ATOM     24  H   VAL A  1      -24.076  75.553  32.162  0.00  0.00    +0.149 HD
ATOM     25  C   UNK A  0      -24.346  76.773  30.539  0.00  0.00    +0.249 C 
ATOM     26  O   UNK A  0      -25.101  77.274  29.694  0.00  0.00    -0.270 OA
BRANCH  23  27
ATOM     27  CA  VAL A  1      -26.195  75.556  31.698  0.00  0.00    +0.101 C 
BRANCH  27  29
ATOM     28  CG1 VAL A  1      -27.766  73.742  32.658  0.00  0.00    +0.009 C 
ATOM     29  CB  VAL A  1      -26.322  74.124  32.314  0.00  0.00    +0.005 C 
ATOM     30  CG2 VAL A  1      -25.719  73.020  31.428  0.00  0.00    +0.009 C 
ENDBRANCH  27  29
BRANCH  27  31
ATOM     31  C   VAL A  1      -26.955  76.639  32.481  0.00  0.00    +0.178 C 
BRANCH  31  32
ATOM     32  O   VAL A  1      -27.597  77.563  31.598  0.00  0.00    -0.393 OA
ATOM     33  H   VAL A  1      -28.553  77.370  31.638  0.00  0.00    +0.209 HD
ENDBRANCH  31  32
ENDBRANCH  27  31
ENDBRANCH  23  27
ENDBRANCH   1  25
TORSDOF 7
ENDMDL
MODEL 3
REMARK VINA RESULT:      -6.0      2.626      5.530
REMARK  Name = pdb/CHEMBL3676047.pdb
REMARK                            x       y       z     vdW  Elec       q    Type
REMARK                         _______ _______ _______ _____ _____    ______ ____
ROOT
ATOM      1  C   UNK A  0      -25.976  77.346  33.458  0.00  0.00    +0.100 A 
ATOM      2  C   UNK A  0      -25.328  78.272  34.278  0.00  0.00    +0.170 A 
ATOM      3  N   UNK A  0      -24.097  78.886  34.221  0.00  0.00    -0.212 NA
ATOM      4  C   UNK A  0      -23.784  79.728  35.187  0.00  0.00    +0.126 A 
ATOM      5  C   UNK A  0      -24.765  80.122  36.264  0.00  0.00    +0.063 A 
ATOM      6  C   UNK A  0      -25.937  79.484  36.284  0.00  0.00    +0.118 A 
ATOM      7  N   UNK A  0      -26.226  78.531  35.324  0.00  0.00    -0.221 N 
ATOM      8  N   UNK A  0      -27.349  77.784  35.243  0.00  0.00    -0.173 NA
ATOM      9  C   UNK A  0      -27.184  77.071  34.135  0.00  0.00    +0.150 A 
ENDROOT
BRANCH   4  10
ATOM     10  N   UNK A  0      -22.522  80.305  35.264  0.00  0.00    -0.308 N 
ATOM     11  C   UNK A  0      -21.398  79.637  35.946  0.00  0.00    +0.108 C 
ATOM     12  C   UNK A  0      -20.906  80.701  36.937  0.00  0.00    +0.029 C 
ATOM     13  C   UNK A  0      -21.103  82.005  36.182  0.00  0.00    +0.021 C 
ATOM     14  C   UNK A  0      -22.411  81.770  35.431  0.00  0.00    +0.107 C 
BRANCH  11  15
ATOM     15  C   UNK A  0      -20.337  79.218  34.936  0.00  0.00    +0.011 A 
ATOM     16  C   UNK A  0      -19.025  78.974  35.362  0.00  0.00    +0.129 A 
ATOM     17  F   UNK A  0      -18.709  79.104  36.658  0.00  0.00    -0.205 F 
ATOM     18  C   UNK A  0      -18.019  78.590  34.467  0.00  0.00    +0.041 A 
ATOM     19  C   UNK A  0      -18.311  78.452  33.112  0.00  0.00    +0.041 A 
ATOM     20  C   UNK A  0      -19.604  78.698  32.671  0.00  0.00    +0.124 A 
ATOM     21  F   UNK A  0      -19.896  78.577  31.371  0.00  0.00    -0.205 F 
ATOM     22  C   UNK A  0      -20.607  79.072  33.562  0.00  0.00    +0.046 A 
ENDBRANCH  11  15
ENDBRANCH   4  10
BRANCH   1  25
ATOM     23  N   VAL A  1      -24.308  76.281  32.131  0.00  0.00    -0.306 N 
ATOM     24  H   VAL A  1      -23.733  76.378  32.974  0.00  0.00    +0.149 HD
ATOM     25  C   UNK A  0      -25.589  76.754  32.191  0.00  0.00    +0.249 C 
ATOM     26  O   UNK A  0      -26.358  76.750  31.219  0.00  0.00    -0.270 OA
BRANCH  23  27
ATOM     27  CA  VAL A  1      -23.695  75.764  30.894  0.00  0.00    +0.101 C 
BRANCH  27  29
ATOM     28  CG1 VAL A  1      -21.196  75.358  31.413  0.00  0.00    +0.009 C 
ATOM     29  CB  VAL A  1      -22.223  76.264  30.724  0.00  0.00    +0.005 C 
ATOM     30  CG2 VAL A  1      -21.805  76.454  29.256  0.00  0.00    +0.009 C 
ENDBRANCH  27  29
BRANCH  27  31
ATOM     31  C   VAL A  1      -23.841  74.234  30.852  0.00  0.00    +0.178 C 
BRANCH  31  32
ATOM     32  O   VAL A  1      -25.216  73.843  30.869  0.00  0.00    -0.393 OA
ATOM     33  H   VAL A  1      -25.535  73.903  29.948  0.00  0.00    +0.209 HD
ENDBRANCH  31  32
ENDBRANCH  27  31
ENDBRANCH  23  27
ENDBRANCH   1  25
TORSDOF 7
ENDMDL
MODEL 4
REMARK VINA RESULT:      -6.0     18.039     20.742
REMARK  Name = pdb/CHEMBL3676047.pdb
REMARK                            x       y       z     vdW  Elec       q    Type
REMARK                         _______ _______ _______ _____ _____    ______ ____
ROOT
ATOM      1  C   UNK A  0      -18.622  85.449  13.267  0.00  0.00    +0.100 A 
ATOM      2  C   UNK A  0      -18.969  84.116  13.502  0.00  0.00    +0.170 A 
ATOM      3  N   UNK A  0      -20.069  83.511  14.065  0.00  0.00    -0.212 NA
ATOM      4  C   UNK A  0      -20.075  82.194  14.142  0.00  0.00    +0.126 A 
ATOM      5  C   UNK A  0      -18.988  81.345  13.531  0.00  0.00    +0.063 A 
ATOM      6  C   UNK A  0      -17.935  81.982  13.013  0.00  0.00    +0.118 A 
ATOM      7  N   UNK A  0      -17.888  83.365  13.020  0.00  0.00    -0.221 N 
ATOM      8  N   UNK A  0      -16.875  84.138  12.568  0.00  0.00    -0.173 NA
ATOM      9  C   UNK A  0      -17.318  85.379  12.733  0.00  0.00    +0.150 A 
ENDROOT
BRANCH   4  10
ATOM     10  N   UNK A  0      -21.095  81.511  14.794  0.00  0.00    -0.308 N 
ATOM     11  C   UNK A  0      -22.375  82.158  15.134  0.00  0.00    +0.108 C 
ATOM     12  C   UNK A  0      -22.517  81.887  16.638  0.00  0.00    +0.029 C 
ATOM     13  C   UNK A  0      -21.919  80.500  16.805  0.00  0.00    +0.021 C 
ATOM     14  C   UNK A  0      -20.745  80.516  15.830  0.00  0.00    +0.107 C 
BRANCH  11  15
ATOM     15  C   UNK A  0      -23.508  81.565  14.305  0.00  0.00    +0.011 A 
ATOM     16  C   UNK A  0      -23.686  81.969  12.976  0.00  0.00    +0.129 A 
ATOM     17  F   UNK A  0      -22.854  82.871  12.435  0.00  0.00    -0.205 F 
ATOM     18  C   UNK A  0      -24.715  81.452  12.180  0.00  0.00    +0.041 A 
ATOM     19  C   UNK A  0      -25.601  80.518  12.713  0.00  0.00    +0.041 A 
ATOM     20  C   UNK A  0      -25.445  80.113  14.030  0.00  0.00    +0.124 A 
ATOM     21  F   UNK A  0      -26.294  79.223  14.556  0.00  0.00    -0.205 F 
ATOM     22  C   UNK A  0      -24.417  80.621  14.820  0.00  0.00    +0.046 A 
ENDBRANCH  11  15
ENDBRANCH   4  10
BRANCH   1  25
ATOM     23  N   VAL A  1      -20.615  86.531  14.002  0.00  0.00    -0.306 N 
ATOM     24  H   VAL A  1      -20.928  85.576  14.201  0.00  0.00    +0.149 HD
ATOM     25  C   UNK A  0      -19.360  86.681  13.480  0.00  0.00    +0.249 C 
ATOM     26  O   UNK A  0      -18.894  87.778  13.141  0.00  0.00    -0.270 OA
BRANCH  23  27
ATOM     27  CA  VAL A  1      -21.559  87.652  14.167  0.00  0.00    +0.101 C 
BRANCH  27  29
ATOM     28  CG1 VAL A  1      -22.430  88.237  11.805  0.00  0.00    +0.009 C 
ATOM     29  CB  VAL A  1      -22.742  87.566  13.147  0.00  0.00    +0.005 C 
ATOM     30  CG2 VAL A  1      -23.218  86.128  12.880  0.00  0.00    +0.009 C 
ENDBRANCH  27  29
BRANCH  27  31
ATOM     31  C   VAL A  1      -22.008  87.728  15.635  0.00  0.00    +0.178 C 
BRANCH  31  32
ATOM     32  O   VAL A  1      -20.939  87.393  16.523  0.00  0.00    -0.393 OA
ATOM     33  H   VAL A  1      -20.197  87.089  15.966  0.00  0.00    +0.209 HD
ENDBRANCH  31  32
ENDBRANCH  27  31
ENDBRANCH  23  27
ENDBRANCH   1  25
TORSDOF 7
ENDMDL
MODEL 5
REMARK VINA RESULT:      -5.8     17.688     20.179
REMARK  Name = pdb/CHEMBL3676047.pdb
REMARK                            x       y       z     vdW  Elec       q    Type
REMARK                         _______ _______ _______ _____ _____    ______ ____
ROOT
ATOM      1  C   UNK A  0      -18.573  84.973  13.392  0.00  0.00    +0.100 A 
ATOM      2  C   UNK A  0      -18.742  83.608  13.634  0.00  0.00    +0.170 A 
ATOM      3  N   UNK A  0      -19.655  82.885  14.368  0.00  0.00    -0.212 NA
ATOM      4  C   UNK A  0      -19.523  81.572  14.392  0.00  0.00    +0.126 A 
ATOM      5  C   UNK A  0      -18.496  80.849  13.556  0.00  0.00    +0.063 A 
ATOM      6  C   UNK A  0      -17.625  81.598  12.876  0.00  0.00    +0.118 A 
ATOM      7  N   UNK A  0      -17.707  82.978  12.929  0.00  0.00    -0.221 N 
ATOM      8  N   UNK A  0      -16.875  83.858  12.327  0.00  0.00    -0.173 NA
ATOM      9  C   UNK A  0      -17.393  85.044  12.621  0.00  0.00    +0.150 A 
ENDROOT
BRANCH   4  10
ATOM     10  N   UNK A  0      -20.332  80.778  15.195  0.00  0.00    -0.308 N 
ATOM     11  C   UNK A  0      -21.113  79.654  14.648  0.00  0.00    +0.108 C 
ATOM     12  C   UNK A  0      -22.539  79.948  15.134  0.00  0.00    +0.029 C 
ATOM     13  C   UNK A  0      -22.326  80.559  16.509  0.00  0.00    +0.021 C 
ATOM     14  C   UNK A  0      -21.070  81.404  16.314  0.00  0.00    +0.107 C 
BRANCH  11  15
ATOM     15  C   UNK A  0      -20.564  78.327  15.158  0.00  0.00    +0.011 A 
ATOM     16  C   UNK A  0      -21.215  77.130  14.832  0.00  0.00    +0.129 A 
ATOM     17  F   UNK A  0      -22.315  77.156  14.066  0.00  0.00    -0.205 F 
ATOM     18  C   UNK A  0      -20.746  75.890  15.281  0.00  0.00    +0.041 A 
ATOM     19  C   UNK A  0      -19.609  75.828  16.085  0.00  0.00    +0.041 A 
ATOM     20  C   UNK A  0      -18.957  77.004  16.424  0.00  0.00    +0.124 A 
ATOM     21  F   UNK A  0      -17.868  76.959  17.202  0.00  0.00    -0.205 F 
ATOM     22  C   UNK A  0      -19.418  78.237  15.971  0.00  0.00    +0.046 A 
ENDBRANCH  11  15
ENDBRANCH   4  10
BRANCH   1  25
ATOM     23  N   VAL A  1      -20.665  85.848  14.126  0.00  0.00    -0.306 N 
ATOM     24  H   VAL A  1      -20.965  84.869  14.078  0.00  0.00    +0.149 HD
ATOM     25  C   UNK A  0      -19.369  86.121  13.787  0.00  0.00    +0.249 C 
ATOM     26  O   UNK A  0      -18.907  87.270  13.746  0.00  0.00    -0.270 OA
BRANCH  23  27
ATOM     27  CA  VAL A  1      -21.657  86.895  14.429  0.00  0.00    +0.101 C 
BRANCH  27  29
ATOM     28  CG1 VAL A  1      -23.006  88.217  12.664  0.00  0.00    +0.009 C 
ATOM     29  CB  VAL A  1      -22.839  86.885  13.405  0.00  0.00    +0.005 C 
ATOM     30  CG2 VAL A  1      -22.741  85.754  12.367  0.00  0.00    +0.009 C 
ENDBRANCH  27  29
BRANCH  27  31
ATOM     31  C   VAL A  1      -22.104  86.767  15.895  0.00  0.00    +0.178 C 
BRANCH  31  32
ATOM     32  O   VAL A  1      -21.283  87.558  16.758  0.00  0.00    -0.393 OA
ATOM     33  H   VAL A  1      -20.372  87.495  16.414  0.00  0.00    +0.209 HD
ENDBRANCH  31  32
ENDBRANCH  27  31
ENDBRANCH  23  27
ENDBRANCH   1  25
TORSDOF 7
ENDMDL
MODEL 6
REMARK VINA RESULT:      -5.7     13.866     17.545
REMARK  Name = pdb/CHEMBL3676047.pdb
REMARK                            x       y       z     vdW  Elec       q    Type
REMARK                         _______ _______ _______ _____ _____    ______ ____
ROOT
ATOM      1  C   UNK A  0      -35.697  80.506  28.173  0.00  0.00    +0.100 A 
ATOM      2  C   UNK A  0      -36.946  80.351  27.569  0.00  0.00    +0.170 A 
ATOM      3  N   UNK A  0      -37.581  79.285  26.973  0.00  0.00    -0.212 NA
ATOM      4  C   UNK A  0      -38.790  79.485  26.483  0.00  0.00    +0.126 A 
ATOM      5  C   UNK A  0      -39.528  80.788  26.662  0.00  0.00    +0.063 A 
ATOM      6  C   UNK A  0      -38.859  81.795  27.230  0.00  0.00    +0.118 A 
ATOM      7  N   UNK A  0      -37.557  81.609  27.658  0.00  0.00    -0.221 N 
ATOM      8  N   UNK A  0      -36.751  82.542  28.212  0.00  0.00    -0.173 NA
ATOM      9  C   UNK A  0      -35.640  81.877  28.503  0.00  0.00    +0.150 A 
ENDROOT
BRANCH   4  10
ATOM     10  N   UNK A  0      -39.455  78.494  25.770  0.00  0.00    -0.308 N 
ATOM     11  C   UNK A  0      -38.744  77.346  25.179  0.00  0.00    +0.108 C 
ATOM     12  C   UNK A  0      -39.187  77.378  23.710  0.00  0.00    +0.029 C 
ATOM     13  C   UNK A  0      -40.632  77.843  23.785  0.00  0.00    +0.021 C 
ATOM     14  C   UNK A  0      -40.599  78.872  24.912  0.00  0.00    +0.107 C 
BRANCH  11  15
ATOM     15  C   UNK A  0      -39.126  76.058  25.896  0.00  0.00    +0.011 A 
ATOM     16  C   UNK A  0      -38.511  74.851  25.540  0.00  0.00    +0.129 A 
ATOM     17  F   UNK A  0      -37.582  74.836  24.574  0.00  0.00    -0.205 F 
ATOM     18  C   UNK A  0      -38.834  73.644  26.171  0.00  0.00    +0.041 A 
ATOM     19  C   UNK A  0      -39.800  73.623  27.175  0.00  0.00    +0.041 A 
ATOM     20  C   UNK A  0      -40.426  74.807  27.534  0.00  0.00    +0.124 A 
ATOM     21  F   UNK A  0      -41.362  74.799  28.491  0.00  0.00    -0.205 F 
ATOM     22  C   UNK A  0      -40.100  76.009  26.912  0.00  0.00    +0.046 A 
ENDBRANCH  11  15
ENDBRANCH   4  10
BRANCH   1  25
ATOM     23  N   VAL A  1      -34.312  78.721  27.413  0.00  0.00    -0.306 N 
ATOM     24  H   VAL A  1      -34.826  78.845  26.534  0.00  0.00    +0.149 HD
ATOM     25  C   UNK A  0      -34.642  79.548  28.450  0.00  0.00    +0.249 C 
ATOM     26  O   UNK A  0      -34.136  79.455  29.578  0.00  0.00    -0.270 OA
BRANCH  23  27
ATOM     27  CA  VAL A  1      -33.359  77.604  27.543  0.00  0.00    +0.101 C 
BRANCH  27  29
ATOM     28  CG1 VAL A  1      -33.618  75.117  28.198  0.00  0.00    +0.009 C 
ATOM     29  CB  VAL A  1      -34.033  76.229  27.228  0.00  0.00    +0.005 C 
ATOM     30  CG2 VAL A  1      -35.570  76.295  27.185  0.00  0.00    +0.009 C 
ENDBRANCH  27  29
BRANCH  27  31
ATOM     31  C   VAL A  1      -32.112  77.895  26.691  0.00  0.00    +0.178 C 
BRANCH  31  32
ATOM     32  O   VAL A  1      -32.417  78.782  25.611  0.00  0.00    -0.393 OA
ATOM     33  H   VAL A  1      -33.389  78.782  25.515  0.00  0.00    +0.209 HD
ENDBRANCH  31  32
ENDBRANCH  27  31
ENDBRANCH  23  27
ENDBRANCH   1  25
TORSDOF 7
ENDMDL
MODEL 7
REMARK VINA RESULT:      -5.6     13.926     17.835
REMARK  Name = pdb/CHEMBL3676047.pdb
REMARK                            x       y       z     vdW  Elec       q    Type
REMARK                         _______ _______ _______ _____ _____    ______ ____
ROOT
ATOM      1  C   UNK A  0      -37.620  76.073  25.660  0.00  0.00    +0.100 A 
ATOM      2  C   UNK A  0      -38.067  74.778  25.389  0.00  0.00    +0.170 A 
ATOM      3  N   UNK A  0      -37.666  73.532  25.815  0.00  0.00    -0.212 NA
ATOM      4  C   UNK A  0      -38.317  72.484  25.347  0.00  0.00    +0.126 A 
ATOM      5  C   UNK A  0      -39.541  72.617  24.475  0.00  0.00    +0.063 A 
ATOM      6  C   UNK A  0      -39.876  73.847  24.077  0.00  0.00    +0.118 A 
ATOM      7  N   UNK A  0      -39.133  74.937  24.492  0.00  0.00    -0.221 N 
ATOM      8  N   UNK A  0      -39.331  76.227  24.141  0.00  0.00    -0.173 NA
ATOM      9  C   UNK A  0      -38.414  76.894  24.832  0.00  0.00    +0.150 A 
ENDROOT
BRANCH   4  10
ATOM     10  N   UNK A  0      -37.908  71.188  25.639  0.00  0.00    -0.308 N 
ATOM     11  C   UNK A  0      -36.541  70.717  25.351  0.00  0.00    +0.108 C 
ATOM     12  C   UNK A  0      -36.775  69.446  24.524  0.00  0.00    +0.029 C 
ATOM     13  C   UNK A  0      -38.026  68.846  25.143  0.00  0.00    +0.021 C 
ATOM     14  C   UNK A  0      -38.868  70.076  25.469  0.00  0.00    +0.107 C 
BRANCH  11  15
ATOM     15  C   UNK A  0      -35.783  70.462  26.648  0.00  0.00    +0.011 A 
ATOM     16  C   UNK A  0      -34.456  70.014  26.604  0.00  0.00    +0.129 A 
ATOM     17  F   UNK A  0      -33.857  69.818  25.422  0.00  0.00    -0.205 F 
ATOM     18  C   UNK A  0      -33.724  69.765  27.771  0.00  0.00    +0.041 A 
ATOM     19  C   UNK A  0      -34.319  69.951  29.017  0.00  0.00    +0.041 A 
ATOM     20  C   UNK A  0      -35.635  70.386  29.079  0.00  0.00    +0.124 A 
ATOM     21  F   UNK A  0      -36.221  70.562  30.269  0.00  0.00    -0.205 F 
ATOM     22  C   UNK A  0      -36.361  70.642  27.919  0.00  0.00    +0.046 A 
ENDBRANCH  11  15
ENDBRANCH   4  10
BRANCH   1  25
ATOM     23  N   VAL A  1      -35.655  75.644  26.938  0.00  0.00    -0.306 N 
ATOM     24  H   VAL A  1      -35.744  74.699  26.551  0.00  0.00    +0.149 HD
ATOM     25  C   UNK A  0      -36.596  76.562  26.566  0.00  0.00    +0.249 C 
ATOM     26  O   UNK A  0      -36.630  77.717  27.014  0.00  0.00    -0.270 OA
BRANCH  23  27
ATOM     27  CA  VAL A  1      -34.615  75.917  27.947  0.00  0.00    +0.101 C 
BRANCH  27  29
ATOM     28  CG1 VAL A  1      -35.526  74.153  29.602  0.00  0.00    +0.009 C 
ATOM     29  CB  VAL A  1      -34.308  74.655  28.818  0.00  0.00    +0.005 C 
ATOM     30  CG2 VAL A  1      -33.724  73.482  28.012  0.00  0.00    +0.009 C 
ENDBRANCH  27  29
BRANCH  27  31
ATOM     31  C   VAL A  1      -33.377  76.512  27.257  0.00  0.00    +0.178 C 
BRANCH  31  32
ATOM     32  O   VAL A  1      -32.292  76.662  28.176  0.00  0.00    -0.393 OA
ATOM     33  H   VAL A  1      -31.597  76.037  27.893  0.00  0.00    +0.209 HD
ENDBRANCH  31  32
ENDBRANCH  27  31
ENDBRANCH  23  27
ENDBRANCH   1  25
TORSDOF 7
ENDMDL
MODEL 8
REMARK VINA RESULT:      -5.6     18.351     21.326
REMARK  Name = pdb/CHEMBL3676047.pdb
REMARK                            x       y       z     vdW  Elec       q    Type
REMARK                         _______ _______ _______ _____ _____    ______ ____
ROOT
ATOM      1  C   UNK A  0      -39.622  69.314  22.078  0.00  0.00    +0.100 A 
ATOM      2  C   UNK A  0      -39.021  70.010  23.129  0.00  0.00    +0.170 A 
ATOM      3  N   UNK A  0      -39.388  71.114  23.864  0.00  0.00    -0.212 NA
ATOM      4  C   UNK A  0      -38.564  71.527  24.808  0.00  0.00    +0.126 A 
ATOM      5  C   UNK A  0      -37.315  70.766  25.178  0.00  0.00    +0.063 A 
ATOM      6  C   UNK A  0      -36.995  69.713  24.422  0.00  0.00    +0.118 A 
ATOM      7  N   UNK A  0      -37.814  69.338  23.372  0.00  0.00    -0.221 N 
ATOM      8  N   UNK A  0      -37.598  68.324  22.506  0.00  0.00    -0.173 NA
ATOM      9  C   UNK A  0      -38.675  68.327  21.730  0.00  0.00    +0.150 A 
ENDROOT
BRANCH   4  10
ATOM     10  N   UNK A  0      -38.806  72.696  25.520  0.00  0.00    -0.308 N 
ATOM     11  C   UNK A  0      -37.999  73.913  25.321  0.00  0.00    +0.108 C 
ATOM     12  C   UNK A  0      -37.538  74.264  26.743  0.00  0.00    +0.029 C 
ATOM     13  C   UNK A  0      -38.726  73.873  27.607  0.00  0.00    +0.021 C 
ATOM     14  C   UNK A  0      -39.232  72.601  26.933  0.00  0.00    +0.107 C 
BRANCH  11  15
ATOM     15  C   UNK A  0      -38.836  75.007  24.672  0.00  0.00    +0.011 A 
ATOM     16  C   UNK A  0      -38.299  76.290  24.500  0.00  0.00    +0.129 A 
ATOM     17  F   UNK A  0      -37.046  76.547  24.902  0.00  0.00    -0.205 F 
ATOM     18  C   UNK A  0      -39.035  77.324  23.911  0.00  0.00    +0.041 A 
ATOM     19  C   UNK A  0      -40.343  77.093  23.489  0.00  0.00    +0.041 A 
ATOM     20  C   UNK A  0      -40.893  75.831  23.659  0.00  0.00    +0.124 A 
ATOM     21  F   UNK A  0      -42.151  75.598  23.265  0.00  0.00    -0.205 F 
ATOM     22  C   UNK A  0      -40.159  74.799  24.237  0.00  0.00    +0.046 A 
ENDBRANCH  11  15
ENDBRANCH   4  10
BRANCH   1  25
ATOM     23  N   VAL A  1      -41.608  70.600  21.798  0.00  0.00    -0.306 N 
ATOM     24  H   VAL A  1      -41.170  71.223  22.484  0.00  0.00    +0.149 HD
ATOM     25  C   UNK A  0      -40.911  69.483  21.433  0.00  0.00    +0.249 C 
ATOM     26  O   UNK A  0      -41.362  68.626  20.660  0.00  0.00    -0.270 OA
BRANCH  23  27
ATOM     27  CA  VAL A  1      -42.986  70.875  21.348  0.00  0.00    +0.101 C 
BRANCH  27  29
ATOM     28  CG1 VAL A  1      -43.270  71.294  23.883  0.00  0.00    +0.009 C 
ATOM     29  CB  VAL A  1      -43.844  71.528  22.480  0.00  0.00    +0.005 C 
ATOM     30  CG2 VAL A  1      -44.068  73.038  22.286  0.00  0.00    +0.009 C 
ENDBRANCH  27  29
BRANCH  27  31
ATOM     31  C   VAL A  1      -42.945  71.695  20.048  0.00  0.00    +0.178 C 
BRANCH  31  32
ATOM     32  O   VAL A  1      -42.876  70.844  18.900  0.00  0.00    -0.393 OA
ATOM     33  H   VAL A  1      -43.726  70.937  18.431  0.00  0.00    +0.209 HD
ENDBRANCH  31  32
ENDBRANCH  27  31
ENDBRANCH  23  27
ENDBRANCH   1  25
TORSDOF 7
ENDMDL
MODEL 9
REMARK VINA RESULT:      -5.5      1.833      2.380
REMARK  Name = pdb/CHEMBL3676047.pdb
REMARK                            x       y       z     vdW  Elec       q    Type
REMARK                         _______ _______ _______ _____ _____    ______ ____
ROOT
ATOM      1  C   UNK A  0      -22.806  76.896  31.204  0.00  0.00    +0.100 A 
ATOM      2  C   UNK A  0      -21.954  77.618  32.043  0.00  0.00    +0.170 A 
ATOM      3  N   UNK A  0      -22.079  78.103  33.325  0.00  0.00    -0.212 NA
ATOM      4  C   UNK A  0      -21.059  78.767  33.833  0.00  0.00    +0.126 A 
ATOM      5  C   UNK A  0      -19.742  78.901  33.109  0.00  0.00    +0.063 A 
ATOM      6  C   UNK A  0      -19.680  78.429  31.862  0.00  0.00    +0.118 A 
ATOM      7  N   UNK A  0      -20.784  77.816  31.297  0.00  0.00    -0.221 N 
ATOM      8  N   UNK A  0      -20.878  77.328  30.040  0.00  0.00    -0.173 NA
ATOM      9  C   UNK A  0      -22.093  76.794  29.991  0.00  0.00    +0.150 A 
ENDROOT
BRANCH   4  10
ATOM     10  N   UNK A  0      -21.142  79.383  35.076  0.00  0.00    -0.308 N 
ATOM     11  C   UNK A  0      -21.828  80.674  35.263  0.00  0.00    +0.108 C 
ATOM     12  C   UNK A  0      -20.768  81.537  35.962  0.00  0.00    +0.029 C 
ATOM     13  C   UNK A  0      -20.043  80.548  36.860  0.00  0.00    +0.021 C 
ATOM     14  C   UNK A  0      -19.996  79.284  36.006  0.00  0.00    +0.107 C 
BRANCH  11  15
ATOM     15  C   UNK A  0      -23.094  80.490  36.089  0.00  0.00    +0.011 A 
ATOM     16  C   UNK A  0      -23.922  81.588  36.356  0.00  0.00    +0.129 A 
ATOM     17  F   UNK A  0      -23.599  82.798  35.877  0.00  0.00    -0.205 F 
ATOM     18  C   UNK A  0      -25.092  81.463  37.113  0.00  0.00    +0.041 A 
ATOM     19  C   UNK A  0      -25.454  80.221  37.632  0.00  0.00    +0.041 A 
ATOM     20  C   UNK A  0      -24.642  79.124  37.385  0.00  0.00    +0.124 A 
ATOM     21  F   UNK A  0      -24.973  77.927  37.885  0.00  0.00    -0.205 F 
ATOM     22  C   UNK A  0      -23.481  79.246  36.626  0.00  0.00    +0.046 A 
ENDBRANCH  11  15
ENDBRANCH   4  10
BRANCH   1  25
ATOM     23  N   VAL A  1      -24.718  76.690  32.613  0.00  0.00    -0.306 N 
ATOM     24  H   VAL A  1      -24.194  77.320  33.228  0.00  0.00    +0.149 HD
ATOM     25  C   UNK A  0      -24.124  76.333  31.434  0.00  0.00    +0.249 C 
ATOM     26  O   UNK A  0      -24.631  75.531  30.637  0.00  0.00    -0.270 OA
BRANCH  23  27
ATOM     27  CA  VAL A  1      -25.995  76.120  33.078  0.00  0.00    +0.101 C 
BRANCH  27  29
ATOM     28  CG1 VAL A  1      -24.637  75.959  35.272  0.00  0.00    +0.009 C 
ATOM     29  CB  VAL A  1      -26.032  75.978  34.635  0.00  0.00    +0.005 C 
ATOM     30  CG2 VAL A  1      -26.874  77.062  35.330  0.00  0.00    +0.009 C 
ENDBRANCH  27  29
BRANCH  27  31
ATOM     31  C   VAL A  1      -27.161  76.941  32.502  0.00  0.00    +0.178 C 
BRANCH  31  32
ATOM     32  O   VAL A  1      -27.509  76.495  31.188  0.00  0.00    -0.393 OA
ATOM     33  H   VAL A  1      -28.193  77.108  30.857  0.00  0.00    +0.209 HD
ENDBRANCH  31  32
ENDBRANCH  27  31
ENDBRANCH  23  27
ENDBRANCH   1  25
TORSDOF 7
ENDMDL
