MODEL 1
REMARK VINA RESULT:      -6.0      0.000      0.000
REMARK  Name = pdb/CHEMBL3666257.pdb
REMARK                            x       y       z     vdW  Elec       q    Type
REMARK                         _______ _______ _______ _____ _____    ______ ____
ROOT
ATOM      1  C   LIG    1      -20.207  76.911  30.644  0.00  0.00    +0.042 A 
ATOM      2  C   LIG    1      -20.264  77.685  31.807  0.00  0.00    +0.038 A 
ATOM      3  C   LIG    1      -19.085  78.121  32.417  0.00  0.00    +0.052 A 
ATOM      4  C   LIG    1      -17.884  77.732  31.831  0.00  0.00    +0.134 A 
ATOM      5  N   LIG    1      -17.800  76.946  30.724  0.00  0.00    -0.261 NA
ATOM      6  C   LIG    1      -18.963  76.539  30.163  0.00  0.00    +0.122 A 
ENDROOT
BRANCH   3   7
ATOM      7  N   LIG    1      -19.222  78.916  33.572  0.00  0.00    -0.283 N 
ATOM      8  H   LIG    1      -19.533  79.874  33.429  0.00  0.00    +0.155 HD
ATOM      9  C   LIG    1      -19.081  78.511  34.886  0.00  0.00    +0.239 C 
ATOM     10  O   LIG    1      -18.788  77.375  35.256  0.00  0.00    -0.273 OA
BRANCH   9  11
ATOM     11  C   LIG    1      -19.293  79.628  35.881  0.00  0.00    +0.239 C 
BRANCH  11  12
ATOM     12  N   LIG    1      -20.603  80.210  35.713  0.00  0.00    -0.262 N 
ATOM     13  N   LIG    1      -21.589  79.483  35.149  0.00  0.00    -0.176 NA
ATOM     14  C   LIG    1      -22.627  80.329  35.135  0.00  0.00    +0.066 A 
ATOM     15  C   LIG    1      -22.303  81.586  35.683  0.00  0.00    +0.044 A 
ATOM     16  C   LIG    1      -20.983  81.477  36.049  0.00  0.00    +0.109 A 
BRANCH  14  17
ATOM     17  C   LIG    1      -24.010  79.992  34.599  0.00  0.00    +0.040 C 
ATOM     18  C   LIG    1      -24.944  79.178  35.470  0.00  0.00    +0.010 C 
ATOM     19  C   LIG    1      -24.337  78.552  34.262  0.00  0.00    +0.010 C 
ENDBRANCH  14  17
ENDBRANCH  11  12
ENDBRANCH   9  11
ENDBRANCH   3   7
BRANCH   1  20
ATOM     20  C   LIG    1      -21.429  76.451  29.948  0.00  0.00    +0.197 C 
ATOM     21  O   LIG    1      -21.480  76.545  28.726  0.00  0.00    -0.287 OA
BRANCH  20  29
ATOM     22  N   LIG    1      -23.742  74.575  32.093  0.00  0.00    -0.329 N 
ATOM     23  C   LIG    1      -24.570  75.590  31.687  0.00  0.00    +0.147 A 
ATOM     24  N   LIG    1      -25.856  75.743  32.039  0.00  0.00    -0.197 NA
ATOM     25  C   LIG    1      -26.412  76.846  31.531  0.00  0.00    +0.214 A 
ATOM     26  N   LIG    1      -25.821  77.736  30.718  0.00  0.00    -0.222 NA
ATOM     27  C   LIG    1      -24.521  77.551  30.387  0.00  0.00    +0.126 A 
ATOM     28  C   LIG    1      -23.839  76.436  30.866  0.00  0.00    +0.048 A 
ATOM     29  C   LIG    1      -22.529  75.885  30.725  0.00  0.00    +0.051 A 
ATOM     30  C   LIG    1      -22.508  74.732  31.501  0.00  0.00    +0.100 A 
BRANCH  22  32
ATOM     31  C   LIG    1      -23.466  72.169  32.634  0.00  0.00    +0.030 C 
ATOM     32  C   LIG    1      -24.079  73.512  33.038  0.00  0.00    +0.083 C 
ATOM     33  C   LIG    1      -23.731  73.881  34.480  0.00  0.00    +0.030 C 
ENDBRANCH  22  32
BRANCH  25  34
ATOM     34  N   LIG    1      -27.745  77.061  31.821  0.00  0.00    -0.327 N 
ATOM     35  H   LIG    1      -28.049  76.394  32.517  0.00  0.00    +0.145 HD
ATOM     36  H   LIG    1      -28.268  77.099  30.956  0.00  0.00    +0.145 HD
ENDBRANCH  25  34
ENDBRANCH  20  29
ENDBRANCH   1  20
TORSDOF 8
ENDMDL
MODEL 2
REMARK VINA RESULT:      -5.4      2.526      5.324
REMARK  Name = pdb/CHEMBL3666257.pdb
REMARK                            x       y       z     vdW  Elec       q    Type
REMARK                         _______ _______ _______ _____ _____    ______ ____
ROOT
ATOM      1  C   LIG    1      -27.087  77.192  33.477  0.00  0.00    +0.042 A 
ATOM      2  C   LIG    1      -25.949  77.722  34.092  0.00  0.00    +0.038 A 
ATOM      3  C   LIG    1      -26.015  78.185  35.408  0.00  0.00    +0.052 A 
ATOM      4  C   LIG    1      -27.250  78.115  36.047  0.00  0.00    +0.134 A 
ATOM      5  N   LIG    1      -28.382  77.643  35.458  0.00  0.00    -0.261 NA
ATOM      6  C   LIG    1      -28.280  77.206  34.180  0.00  0.00    +0.122 A 
ENDROOT
BRANCH   3   7
ATOM      7  N   LIG    1      -24.822  78.683  35.968  0.00  0.00    -0.283 N 
ATOM      8  H   LIG    1      -24.553  79.627  35.699  0.00  0.00    +0.155 HD
ATOM      9  C   LIG    1      -24.029  78.072  36.921  0.00  0.00    +0.239 C 
ATOM     10  O   LIG    1      -24.236  76.968  37.423  0.00  0.00    -0.273 OA
BRANCH   9  11
ATOM     11  C   LIG    1      -22.813  78.886  37.297  0.00  0.00    +0.239 C 
BRANCH  11  12
ATOM     12  N   LIG    1      -22.007  79.156  36.130  0.00  0.00    -0.262 N 
ATOM     13  N   LIG    1      -22.086  78.337  35.061  0.00  0.00    -0.176 NA
ATOM     14  C   LIG    1      -21.207  78.867  34.201  0.00  0.00    +0.066 A 
ATOM     15  C   LIG    1      -20.570  80.011  34.720  0.00  0.00    +0.044 A 
ATOM     16  C   LIG    1      -21.111  80.172  35.973  0.00  0.00    +0.109 A 
BRANCH  14  17
ATOM     17  C   LIG    1      -20.916  78.317  32.813  0.00  0.00    +0.040 C 
ATOM     18  C   LIG    1      -19.993  77.122  32.688  0.00  0.00    +0.010 C 
ATOM     19  C   LIG    1      -19.522  78.463  32.242  0.00  0.00    +0.010 C 
ENDBRANCH  14  17
ENDBRANCH  11  12
ENDBRANCH   9  11
ENDBRANCH   3   7
BRANCH   1  20
ATOM     20  C   LIG    1      -27.058  76.664  32.095  0.00  0.00    +0.197 C 
ATOM     21  O   LIG    1      -28.016  76.886  31.361  0.00  0.00    -0.287 OA
BRANCH  20  29
ATOM     22  N   LIG    1      -24.472  74.237  31.153  0.00  0.00    -0.329 N 
ATOM     23  C   LIG    1      -23.886  75.391  30.700  0.00  0.00    +0.147 A 
ATOM     24  N   LIG    1      -22.688  75.481  30.102  0.00  0.00    -0.197 NA
ATOM     25  C   LIG    1      -22.382  76.726  29.725  0.00  0.00    +0.214 A 
ATOM     26  N   LIG    1      -23.125  77.825  29.921  0.00  0.00    -0.222 NA
ATOM     27  C   LIG    1      -24.330  77.695  30.527  0.00  0.00    +0.126 A 
ATOM     28  C   LIG    1      -24.755  76.441  30.957  0.00  0.00    +0.048 A 
ATOM     29  C   LIG    1      -25.892  75.911  31.637  0.00  0.00    +0.051 A 
ATOM     30  C   LIG    1      -25.680  74.542  31.740  0.00  0.00    +0.100 A 
BRANCH  22  32
ATOM     31  C   LIG    1      -23.005  72.505  32.157  0.00  0.00    +0.030 C 
ATOM     32  C   LIG    1      -23.940  72.883  31.005  0.00  0.00    +0.083 C 
ATOM     33  C   LIG    1      -25.041  71.841  30.806  0.00  0.00    +0.030 C 
ENDBRANCH  22  32
BRANCH  25  34
ATOM     34  N   LIG    1      -21.150  76.909  29.128  0.00  0.00    -0.327 N 
ATOM     35  H   LIG    1      -21.044  77.878  28.867  0.00  0.00    +0.145 HD
ATOM     36  H   LIG    1      -21.032  76.217  28.399  0.00  0.00    +0.145 HD
ENDBRANCH  25  34
ENDBRANCH  20  29
ENDBRANCH   1  20
TORSDOF 8
ENDMDL
MODEL 3
REMARK VINA RESULT:      -5.3     12.272     15.986
REMARK  Name = pdb/CHEMBL3666257.pdb
REMARK                            x       y       z     vdW  Elec       q    Type
REMARK                         _______ _______ _______ _____ _____    ______ ____
ROOT
ATOM      1  C   LIG    1      -25.141  91.735  36.045  0.00  0.00    +0.042 A 
ATOM      2  C   LIG    1      -26.031  90.664  36.175  0.00  0.00    +0.038 A 
ATOM      3  C   LIG    1      -27.077  90.509  35.262  0.00  0.00    +0.052 A 
ATOM      4  C   LIG    1      -27.195  91.466  34.259  0.00  0.00    +0.134 A 
ATOM      5  N   LIG    1      -26.369  92.539  34.135  0.00  0.00    -0.261 NA
ATOM      6  C   LIG    1      -25.369  92.659  35.040  0.00  0.00    +0.122 A 
ENDROOT
BRANCH   3   7
ATOM      7  N   LIG    1      -27.918  89.393  35.443  0.00  0.00    -0.283 N 
ATOM      8  H   LIG    1      -28.912  89.586  35.547  0.00  0.00    +0.155 HD
ATOM      9  C   LIG    1      -27.558  88.059  35.392  0.00  0.00    +0.239 C 
ATOM     10  O   LIG    1      -26.421  87.632  35.197  0.00  0.00    -0.273 OA
BRANCH   9  11
ATOM     11  C   LIG    1      -28.715  87.119  35.636  0.00  0.00    +0.239 C 
BRANCH  11  12
ATOM     12  N   LIG    1      -29.774  87.366  34.686  0.00  0.00    -0.262 N 
ATOM     13  N   LIG    1      -29.485  87.450  33.372  0.00  0.00    -0.176 NA
ATOM     14  C   LIG    1      -30.674  87.703  32.810  0.00  0.00    +0.066 A 
ATOM     15  C   LIG    1      -31.711  87.784  33.760  0.00  0.00    +0.044 A 
ATOM     16  C   LIG    1      -31.095  87.561  34.968  0.00  0.00    +0.109 A 
BRANCH  14  17
ATOM     17  C   LIG    1      -30.904  87.881  31.317  0.00  0.00    +0.040 C 
ATOM     18  C   LIG    1      -30.911  86.650  30.434  0.00  0.00    +0.010 C 
ATOM     19  C   LIG    1      -29.766  87.600  30.359  0.00  0.00    +0.010 C 
ENDBRANCH  14  17
ENDBRANCH  11  12
ENDBRANCH   9  11
ENDBRANCH   3   7
BRANCH   1  20
ATOM     20  C   LIG    1      -24.003  91.924  36.971  0.00  0.00    +0.197 C 
ATOM     21  O   LIG    1      -24.155  91.641  38.155  0.00  0.00    -0.287 OA
BRANCH  20  29
ATOM     22  N   LIG    1      -21.050  93.785  35.834  0.00  0.00    -0.329 N 
ATOM     23  C   LIG    1      -20.622  92.503  35.602  0.00  0.00    +0.147 A 
ATOM     24  N   LIG    1      -19.433  92.152  35.089  0.00  0.00    -0.197 NA
ATOM     25  C   LIG    1      -19.265  90.829  35.010  0.00  0.00    +0.214 A 
ATOM     26  N   LIG    1      -20.157  89.889  35.355  0.00  0.00    -0.222 NA
ATOM     27  C   LIG    1      -21.346  90.280  35.873  0.00  0.00    +0.126 A 
ATOM     28  C   LIG    1      -21.628  91.637  36.006  0.00  0.00    +0.048 A 
ATOM     29  C   LIG    1      -22.730  92.426  36.454  0.00  0.00    +0.051 A 
ATOM     30  C   LIG    1      -22.334  93.751  36.332  0.00  0.00    +0.100 A 
BRANCH  22  32
ATOM     31  C   LIG    1      -20.686  95.753  34.368  0.00  0.00    +0.030 C 
ATOM     32  C   LIG    1      -20.269  95.004  35.636  0.00  0.00    +0.083 C 
ATOM     33  C   LIG    1      -20.288  95.916  36.863  0.00  0.00    +0.030 C 
ENDBRANCH  22  32
BRANCH  25  34
ATOM     34  N   LIG    1      -18.077  90.386  34.463  0.00  0.00    -0.327 N 
ATOM     35  H   LIG    1      -18.145  89.398  34.266  0.00  0.00    +0.145 HD
ATOM     36  H   LIG    1      -17.310  90.689  35.051  0.00  0.00    +0.145 HD
ENDBRANCH  25  34
ENDBRANCH  20  29
ENDBRANCH   1  20
TORSDOF 8
ENDMDL
MODEL 4
REMARK VINA RESULT:      -5.3     17.479     19.868
REMARK  Name = pdb/CHEMBL3666257.pdb
REMARK                            x       y       z     vdW  Elec       q    Type
REMARK                         _______ _______ _______ _____ _____    ______ ____
ROOT
ATOM      1  C   LIG    1      -20.974  80.921  15.670  0.00  0.00    +0.042 A 
ATOM      2  C   LIG    1      -20.269  81.988  15.103  0.00  0.00    +0.038 A 
ATOM      3  C   LIG    1      -18.935  81.823  14.725  0.00  0.00    +0.052 A 
ATOM      4  C   LIG    1      -18.354  80.581  14.960  0.00  0.00    +0.134 A 
ATOM      5  N   LIG    1      -19.004  79.540  15.547  0.00  0.00    -0.261 NA
ATOM      6  C   LIG    1      -20.295  79.737  15.904  0.00  0.00    +0.122 A 
ENDROOT
BRANCH   3   7
ATOM      7  N   LIG    1      -18.298  82.935  14.138  0.00  0.00    -0.283 N 
ATOM      8  H   LIG    1      -17.683  83.477  14.742  0.00  0.00    +0.155 HD
ATOM      9  C   LIG    1      -18.334  83.313  12.809  0.00  0.00    +0.239 C 
ATOM     10  O   LIG    1      -18.958  82.737  11.919  0.00  0.00    -0.273 OA
BRANCH   9  11
ATOM     11  C   LIG    1      -17.539  84.565  12.522  0.00  0.00    +0.239 C 
BRANCH  11  12
ATOM     12  N   LIG    1      -18.313  85.739  12.850  0.00  0.00    -0.262 N 
ATOM     13  N   LIG    1      -19.287  85.658  13.779  0.00  0.00    -0.176 NA
ATOM     14  C   LIG    1      -19.794  86.898  13.803  0.00  0.00    +0.066 A 
ATOM     15  C   LIG    1      -19.151  87.759  12.893  0.00  0.00    +0.044 A 
ATOM     16  C   LIG    1      -18.195  86.978  12.290  0.00  0.00    +0.109 A 
BRANCH  14  17
ATOM     17  C   LIG    1      -20.931  87.349  14.706  0.00  0.00    +0.040 C 
ATOM     18  C   LIG    1      -22.353  87.024  14.296  0.00  0.00    +0.010 C 
ATOM     19  C   LIG    1      -21.872  88.432  14.219  0.00  0.00    +0.010 C 
ENDBRANCH  14  17
ENDBRANCH  11  12
ENDBRANCH   9  11
ENDBRANCH   3   7
BRANCH   1  20
ATOM     20  C   LIG    1      -22.395  81.040  16.059  0.00  0.00    +0.197 C 
ATOM     21  O   LIG    1      -22.666  81.240  17.239  0.00  0.00    -0.287 OA
BRANCH  20  29
ATOM     22  N   LIG    1      -24.697  81.295  13.213  0.00  0.00    -0.329 N 
ATOM     23  C   LIG    1      -25.209  80.181  13.828  0.00  0.00    +0.147 A 
ATOM     24  N   LIG    1      -26.270  79.472  13.413  0.00  0.00    -0.197 NA
ATOM     25  C   LIG    1      -26.523  78.408  14.181  0.00  0.00    +0.214 A 
ATOM     26  N   LIG    1      -25.856  78.044  15.286  0.00  0.00    -0.222 NA
ATOM     27  C   LIG    1      -24.788  78.783  15.674  0.00  0.00    +0.126 A 
ATOM     28  C   LIG    1      -24.428  79.912  14.943  0.00  0.00    +0.048 A 
ATOM     29  C   LIG    1      -23.434  80.932  15.037  0.00  0.00    +0.051 A 
ATOM     30  C   LIG    1      -23.633  81.770  13.947  0.00  0.00    +0.100 A 
BRANCH  22  32
ATOM     31  C   LIG    1      -24.891  83.379  11.880  0.00  0.00    +0.030 C 
ATOM     32  C   LIG    1      -25.162  81.875  11.954  0.00  0.00    +0.083 C 
ATOM     33  C   LIG    1      -24.606  81.140  10.733  0.00  0.00    +0.030 C 
ENDBRANCH  22  32
BRANCH  25  34
ATOM     34  N   LIG    1      -27.619  77.642  13.838  0.00  0.00    -0.327 N 
ATOM     35  H   LIG    1      -27.365  76.664  13.858  0.00  0.00    +0.145 HD
ATOM     36  H   LIG    1      -28.016  78.000  12.979  0.00  0.00    +0.145 HD
ENDBRANCH  25  34
ENDBRANCH  20  29
ENDBRANCH   1  20
TORSDOF 8
ENDMDL
MODEL 5
REMARK VINA RESULT:      -5.2     11.830     16.814
REMARK  Name = pdb/CHEMBL3666257.pdb
REMARK                            x       y       z     vdW  Elec       q    Type
REMARK                         _______ _______ _______ _____ _____    ______ ____
ROOT
ATOM      1  C   LIG    1      -33.831  72.379  29.401  0.00  0.00    +0.042 A 
ATOM      2  C   LIG    1      -34.622  71.730  28.448  0.00  0.00    +0.038 A 
ATOM      3  C   LIG    1      -34.289  70.443  28.021  0.00  0.00    +0.052 A 
ATOM      4  C   LIG    1      -33.143  69.869  28.563  0.00  0.00    +0.134 A 
ATOM      5  N   LIG    1      -32.333  70.494  29.459  0.00  0.00    -0.261 NA
ATOM      6  C   LIG    1      -32.686  71.742  29.847  0.00  0.00    +0.122 A 
ENDROOT
BRANCH   3   7
ATOM      7  N   LIG    1      -35.147  69.843  27.077  0.00  0.00    -0.283 N 
ATOM      8  H   LIG    1      -36.029  69.481  27.431  0.00  0.00    +0.155 HD
ATOM      9  C   LIG    1      -34.969  69.783  25.708  0.00  0.00    +0.239 C 
ATOM     10  O   LIG    1      -34.006  70.235  25.091  0.00  0.00    -0.273 OA
BRANCH   9  11
ATOM     11  C   LIG    1      -36.085  69.058  24.992  0.00  0.00    +0.239 C 
BRANCH  11  12
ATOM     12  N   LIG    1      -35.561  67.934  24.252  0.00  0.00    -0.262 N 
ATOM     13  N   LIG    1      -35.029  68.131  23.029  0.00  0.00    -0.176 NA
ATOM     14  C   LIG    1      -34.677  66.898  22.644  0.00  0.00    +0.066 A 
ATOM     15  C   LIG    1      -34.988  65.923  23.612  0.00  0.00    +0.044 A 
ATOM     16  C   LIG    1      -35.561  66.627  24.644  0.00  0.00    +0.109 A 
BRANCH  14  17
ATOM     17  C   LIG    1      -34.012  66.563  21.318  0.00  0.00    +0.040 C 
ATOM     18  C   LIG    1      -34.892  66.309  20.110  0.00  0.00    +0.010 C 
ATOM     19  C   LIG    1      -34.171  65.170  20.746  0.00  0.00    +0.010 C 
ENDBRANCH  14  17
ENDBRANCH  11  12
ENDBRANCH   9  11
ENDBRANCH   3   7
BRANCH   1  20
ATOM     20  C   LIG    1      -34.161  73.731  29.904  0.00  0.00    +0.197 C 
ATOM     21  O   LIG    1      -34.067  73.949  31.108  0.00  0.00    -0.287 OA
BRANCH  20  29
ATOM     22  N   LIG    1      -35.806  76.080  27.614  0.00  0.00    -0.329 N 
ATOM     23  C   LIG    1      -34.527  76.573  27.577  0.00  0.00    +0.147 A 
ATOM     24  N   LIG    1      -34.112  77.626  26.855  0.00  0.00    -0.197 NA
ATOM     25  C   LIG    1      -32.820  77.913  27.041  0.00  0.00    +0.214 A 
ATOM     26  N   LIG    1      -31.958  77.244  27.821  0.00  0.00    -0.222 NA
ATOM     27  C   LIG    1      -32.413  76.188  28.537  0.00  0.00    +0.126 A 
ATOM     28  C   LIG    1      -33.746  75.803  28.426  0.00  0.00    +0.048 A 
ATOM     29  C   LIG    1      -34.573  74.769  28.962  0.00  0.00    +0.051 A 
ATOM     30  C   LIG    1      -35.842  74.975  28.436  0.00  0.00    +0.100 A 
BRANCH  22  32
ATOM     31  C   LIG    1      -37.183  76.036  25.550  0.00  0.00    +0.030 C 
ATOM     32  C   LIG    1      -36.970  76.649  26.937  0.00  0.00    +0.083 C 
ATOM     33  C   LIG    1      -38.237  76.571  27.789  0.00  0.00    +0.030 C 
ENDBRANCH  22  32
BRANCH  25  34
ATOM     34  N   LIG    1      -32.307  78.966  26.310  0.00  0.00    -0.327 N 
ATOM     35  H   LIG    1      -33.064  79.547  25.980  0.00  0.00    +0.145 HD
ATOM     36  H   LIG    1      -31.665  78.604  25.617  0.00  0.00    +0.145 HD
ENDBRANCH  25  34
ENDBRANCH  20  29
ENDBRANCH   1  20
TORSDOF 8
ENDMDL
MODEL 6
REMARK VINA RESULT:      -5.1     13.211     17.549
REMARK  Name = pdb/CHEMBL3666257.pdb
REMARK                            x       y       z     vdW  Elec       q    Type
REMARK                         _______ _______ _______ _____ _____    ______ ____
ROOT
ATOM      1  C   LIG    1      -37.142  81.848  28.340  0.00  0.00    +0.042 A 
ATOM      2  C   LIG    1      -36.498  80.618  28.167  0.00  0.00    +0.038 A 
ATOM      3  C   LIG    1      -35.165  80.465  28.553  0.00  0.00    +0.052 A 
ATOM      4  C   LIG    1      -34.522  81.581  29.082  0.00  0.00    +0.134 A 
ATOM      5  N   LIG    1      -35.111  82.798  29.222  0.00  0.00    -0.261 NA
ATOM      6  C   LIG    1      -36.404  82.910  28.834  0.00  0.00    +0.122 A 
ENDROOT
BRANCH   3   7
ATOM      7  N   LIG    1      -34.592  79.190  28.371  0.00  0.00    -0.283 N 
ATOM      8  H   LIG    1      -34.982  78.433  28.928  0.00  0.00    +0.155 HD
ATOM      9  C   LIG    1      -33.629  78.833  27.446  0.00  0.00    +0.239 C 
ATOM     10  O   LIG    1      -33.098  79.592  26.637  0.00  0.00    -0.273 OA
BRANCH   9  11
ATOM     11  C   LIG    1      -33.234  77.377  27.527  0.00  0.00    +0.239 C 
BRANCH  11  12
ATOM     12  N   LIG    1      -34.404  76.534  27.461  0.00  0.00    -0.262 N 
ATOM     13  N   LIG    1      -35.441  76.892  26.677  0.00  0.00    -0.176 NA
ATOM     14  C   LIG    1      -36.332  75.913  26.877  0.00  0.00    +0.066 A 
ATOM     15  C   LIG    1      -35.868  74.942  27.786  0.00  0.00    +0.044 A 
ATOM     16  C   LIG    1      -34.614  75.373  28.147  0.00  0.00    +0.109 A 
BRANCH  14  17
ATOM     17  C   LIG    1      -37.695  75.835  26.208  0.00  0.00    +0.040 C 
ATOM     18  C   LIG    1      -37.910  74.799  25.123  0.00  0.00    +0.010 C 
ATOM     19  C   LIG    1      -37.825  76.240  24.754  0.00  0.00    +0.010 C 
ENDBRANCH  14  17
ENDBRANCH  11  12
ENDBRANCH   9  11
ENDBRANCH   3   7
BRANCH   1  20
ATOM     20  C   LIG    1      -38.560  82.049  27.973  0.00  0.00    +0.197 C 
ATOM     21  O   LIG    1      -39.355  82.370  28.851  0.00  0.00    -0.287 OA
BRANCH  20  29
ATOM     22  N   LIG    1      -39.910  81.069  24.703  0.00  0.00    -0.329 N 
ATOM     23  C   LIG    1      -39.296  82.246  24.360  0.00  0.00    +0.147 A 
ATOM     24  N   LIG    1      -39.261  82.784  23.131  0.00  0.00    -0.197 NA
ATOM     25  C   LIG    1      -38.629  83.961  23.091  0.00  0.00    +0.214 A 
ATOM     26  N   LIG    1      -38.037  84.585  24.121  0.00  0.00    -0.222 NA
ATOM     27  C   LIG    1      -38.096  84.013  25.347  0.00  0.00    +0.126 A 
ATOM     28  C   LIG    1      -38.736  82.787  25.508  0.00  0.00    +0.048 A 
ATOM     29  C   LIG    1      -38.975  81.877  26.582  0.00  0.00    +0.051 A 
ATOM     30  C   LIG    1      -39.705  80.825  26.044  0.00  0.00    +0.100 A 
BRANCH  22  32
ATOM     31  C   LIG    1      -40.277  78.748  23.905  0.00  0.00    +0.030 C 
ATOM     32  C   LIG    1      -40.699  80.217  23.816  0.00  0.00    +0.083 C 
ATOM     33  C   LIG    1      -42.204  80.385  24.031  0.00  0.00    +0.030 C 
ENDBRANCH  22  32
BRANCH  25  34
ATOM     34  N   LIG    1      -38.522  84.566  21.855  0.00  0.00    -0.327 N 
ATOM     35  H   LIG    1      -39.436  84.624  21.428  0.00  0.00    +0.145 HD
ATOM     36  H   LIG    1      -37.792  84.108  21.325  0.00  0.00    +0.145 HD
ENDBRANCH  25  34
ENDBRANCH  20  29
ENDBRANCH   1  20
TORSDOF 8
ENDMDL
MODEL 7
REMARK VINA RESULT:      -5.1      2.136      5.103
REMARK  Name = pdb/CHEMBL3666257.pdb
REMARK                            x       y       z     vdW  Elec       q    Type
REMARK                         _______ _______ _______ _____ _____    ______ ____
ROOT
ATOM      1  C   LIG    1      -25.450  77.093  32.501  0.00  0.00    +0.042 A 
ATOM      2  C   LIG    1      -24.778  77.839  33.475  0.00  0.00    +0.038 A 
ATOM      3  C   LIG    1      -25.454  78.267  34.619  0.00  0.00    +0.052 A 
ATOM      4  C   LIG    1      -26.803  77.941  34.722  0.00  0.00    +0.134 A 
ATOM      5  N   LIG    1      -27.491  77.253  33.772  0.00  0.00    -0.261 NA
ATOM      6  C   LIG    1      -26.803  76.858  32.674  0.00  0.00    +0.122 A 
ENDROOT
BRANCH   3   7
ATOM      7  N   LIG    1      -24.704  78.993  35.567  0.00  0.00    -0.283 N 
ATOM      8  H   LIG    1      -24.467  79.951  35.321  0.00  0.00    +0.155 HD
ATOM      9  C   LIG    1      -24.343  78.582  36.836  0.00  0.00    +0.239 C 
ATOM     10  O   LIG    1      -24.608  77.491  37.338  0.00  0.00    -0.273 OA
BRANCH   9  11
ATOM     11  C   LIG    1      -23.532  79.611  37.588  0.00  0.00    +0.239 C 
BRANCH  11  12
ATOM     12  N   LIG    1      -22.333  79.942  36.854  0.00  0.00    -0.262 N 
ATOM     13  N   LIG    1      -21.737  79.002  36.093  0.00  0.00    -0.176 NA
ATOM     14  C   LIG    1      -20.671  79.640  35.594  0.00  0.00    +0.066 A 
ATOM     15  C   LIG    1      -20.586  80.975  36.038  0.00  0.00    +0.044 A 
ATOM     16  C   LIG    1      -21.679  81.140  36.855  0.00  0.00    +0.109 A 
BRANCH  14  17
ATOM     17  C   LIG    1      -19.655  79.018  34.648  0.00  0.00    +0.040 C 
ATOM     18  C   LIG    1      -19.920  79.082  33.158  0.00  0.00    +0.010 C 
ATOM     19  C   LIG    1      -20.039  77.778  33.869  0.00  0.00    +0.010 C 
ENDBRANCH  14  17
ENDBRANCH  11  12
ENDBRANCH   9  11
ENDBRANCH   3   7
BRANCH   1  20
ATOM     20  C   LIG    1      -24.769  76.595  31.287  0.00  0.00    +0.197 C 
ATOM     21  O   LIG    1      -25.281  76.815  30.193  0.00  0.00    -0.287 OA
BRANCH  20  29
ATOM     22  N   LIG    1      -21.972  74.294  31.879  0.00  0.00    -0.329 N 
ATOM     23  C   LIG    1      -21.304  75.318  31.257  0.00  0.00    +0.147 A 
ATOM     24  N   LIG    1      -19.988  75.356  31.000  0.00  0.00    -0.197 NA
ATOM     25  C   LIG    1      -19.613  76.458  30.344  0.00  0.00    +0.214 A 
ATOM     26  N   LIG    1      -20.404  77.478  29.979  0.00  0.00    -0.222 NA
ATOM     27  C   LIG    1      -21.729  77.403  30.253  0.00  0.00    +0.126 A 
ATOM     28  C   LIG    1      -22.233  76.295  30.928  0.00  0.00    +0.048 A 
ATOM     29  C   LIG    1      -23.506  75.871  31.416  0.00  0.00    +0.051 A 
ATOM     30  C   LIG    1      -23.303  74.626  31.998  0.00  0.00    +0.100 A 
BRANCH  22  32
ATOM     31  C   LIG    1      -20.889  73.087  33.757  0.00  0.00    +0.030 C 
ATOM     32  C   LIG    1      -21.391  73.024  32.313  0.00  0.00    +0.083 C 
ATOM     33  C   LIG    1      -22.339  71.845  32.096  0.00  0.00    +0.030 C 
ENDBRANCH  22  32
BRANCH  25  34
ATOM     34  N   LIG    1      -18.266  76.588  30.068  0.00  0.00    -0.327 N 
ATOM     35  H   LIG    1      -17.728  76.257  30.856  0.00  0.00    +0.145 HD
ATOM     36  H   LIG    1      -18.085  77.530  29.747  0.00  0.00    +0.145 HD
ENDBRANCH  25  34
ENDBRANCH  20  29
ENDBRANCH   1  20
TORSDOF 8
ENDMDL
MODEL 8
REMARK VINA RESULT:      -5.1     13.840     18.059
REMARK  Name = pdb/CHEMBL3666257.pdb
REMARK                            x       y       z     vdW  Elec       q    Type
REMARK                         _______ _______ _______ _____ _____    ______ ____
ROOT
ATOM      1  C   LIG    1      -40.059  72.571  24.646  0.00  0.00    +0.042 A 
ATOM      2  C   LIG    1      -39.270  73.393  25.457  0.00  0.00    +0.038 A 
ATOM      3  C   LIG    1      -39.338  74.782  25.323  0.00  0.00    +0.052 A 
ATOM      4  C   LIG    1      -40.192  75.287  24.347  0.00  0.00    +0.134 A 
ATOM      5  N   LIG    1      -40.939  74.510  23.518  0.00  0.00    -0.261 NA
ATOM      6  C   LIG    1      -40.844  73.168  23.674  0.00  0.00    +0.122 A 
ENDROOT
BRANCH   3   7
ATOM      7  N   LIG    1      -38.533  75.545  26.192  0.00  0.00    -0.283 N 
ATOM      8  H   LIG    1      -38.695  75.420  27.188  0.00  0.00    +0.155 HD
ATOM      9  C   LIG    1      -37.477  76.367  25.845  0.00  0.00    +0.239 C 
ATOM     10  O   LIG    1      -37.083  76.579  24.699  0.00  0.00    -0.273 OA
BRANCH   9  11
ATOM     11  C   LIG    1      -36.831  77.043  27.031  0.00  0.00    +0.239 C 
BRANCH  11  12
ATOM     12  N   LIG    1      -35.571  76.412  27.346  0.00  0.00    -0.262 N 
ATOM     13  N   LIG    1      -35.534  75.090  27.607  0.00  0.00    -0.176 NA
ATOM     14  C   LIG    1      -34.241  74.864  27.873  0.00  0.00    +0.066 A 
ATOM     15  C   LIG    1      -33.462  76.035  27.786  0.00  0.00    +0.044 A 
ATOM     16  C   LIG    1      -34.355  77.022  27.442  0.00  0.00    +0.109 A 
BRANCH  14  17
ATOM     17  C   LIG    1      -33.655  73.506  28.225  0.00  0.00    +0.040 C 
ATOM     18  C   LIG    1      -33.878  72.962  29.622  0.00  0.00    +0.010 C 
ATOM     19  C   LIG    1      -32.520  73.431  29.225  0.00  0.00    +0.010 C 
ENDBRANCH  14  17
ENDBRANCH  11  12
ENDBRANCH   9  11
ENDBRANCH   3   7
BRANCH   1  20
ATOM     20  C   LIG    1      -40.041  71.097  24.770  0.00  0.00    +0.197 C 
ATOM     21  O   LIG    1      -41.011  70.539  25.273  0.00  0.00    -0.287 OA
BRANCH  20  29
ATOM     22  N   LIG    1      -37.505  69.134  22.987  0.00  0.00    -0.329 N 
ATOM     23  C   LIG    1      -36.818  69.410  24.141  0.00  0.00    +0.147 A 
ATOM     24  N   LIG    1      -35.570  69.009  24.428  0.00  0.00    -0.197 NA
ATOM     25  C   LIG    1      -35.132  69.458  25.608  0.00  0.00    +0.214 A 
ATOM     26  N   LIG    1      -35.822  70.204  26.484  0.00  0.00    -0.222 NA
ATOM     27  C   LIG    1      -37.078  70.592  26.159  0.00  0.00    +0.126 A 
ATOM     28  C   LIG    1      -37.635  70.188  24.949  0.00  0.00    +0.048 A 
ATOM     29  C   LIG    1      -38.886  70.347  24.281  0.00  0.00    +0.051 A 
ATOM     30  C   LIG    1      -38.767  69.681  23.068  0.00  0.00    +0.100 A 
BRANCH  22  32
ATOM     31  C   LIG    1      -37.137  66.901  21.969  0.00  0.00    +0.030 C 
ATOM     32  C   LIG    1      -36.984  68.417  21.824  0.00  0.00    +0.083 C 
ATOM     33  C   LIG    1      -37.583  68.922  20.511  0.00  0.00    +0.030 C 
ENDBRANCH  22  32
BRANCH  25  34
ATOM     34  N   LIG    1      -33.865  69.064  25.991  0.00  0.00    -0.327 N 
ATOM     35  H   LIG    1      -33.214  69.818  25.827  0.00  0.00    +0.145 HD
ATOM     36  H   LIG    1      -33.655  68.171  25.565  0.00  0.00    +0.145 HD
ENDBRANCH  25  34
ENDBRANCH  20  29
ENDBRANCH   1  20
TORSDOF 8
ENDMDL
MODEL 9
REMARK VINA RESULT:      -5.0     18.830     21.093
REMARK  Name = pdb/CHEMBL3666257.pdb
REMARK                            x       y       z     vdW  Elec       q    Type
REMARK                         _______ _______ _______ _____ _____    ______ ____
ROOT
ATOM      1  C   LIG    1      -21.942  82.901  14.723  0.00  0.00    +0.042 A 
ATOM      2  C   LIG    1      -22.119  84.274  14.525  0.00  0.00    +0.038 A 
ATOM      3  C   LIG    1      -21.091  85.040  13.971  0.00  0.00    +0.052 A 
ATOM      4  C   LIG    1      -19.904  84.385  13.660  0.00  0.00    +0.134 A 
ATOM      5  N   LIG    1      -19.690  83.059  13.880  0.00  0.00    -0.261 NA
ATOM      6  C   LIG    1      -20.708  82.349  14.421  0.00  0.00    +0.122 A 
ENDROOT
BRANCH   3   7
ATOM      7  N   LIG    1      -21.353  86.412  13.780  0.00  0.00    -0.283 N 
ATOM      8  H   LIG    1      -22.307  86.662  13.530  0.00  0.00    +0.155 HD
ATOM      9  C   LIG    1      -20.483  87.465  13.992  0.00  0.00    +0.239 C 
ATOM     10  O   LIG    1      -19.317  87.364  14.370  0.00  0.00    -0.273 OA
BRANCH   9  11
ATOM     11  C   LIG    1      -21.090  88.813  13.681  0.00  0.00    +0.239 C 
BRANCH  11  12
ATOM     12  N   LIG    1      -21.876  88.744  12.472  0.00  0.00    -0.262 N 
ATOM     13  N   LIG    1      -23.197  88.485  12.549  0.00  0.00    -0.176 NA
ATOM     14  C   LIG    1      -23.585  88.474  11.267  0.00  0.00    +0.066 A 
ATOM     15  C   LIG    1      -22.517  88.719  10.381  0.00  0.00    +0.044 A 
ATOM     16  C   LIG    1      -21.422  88.890  11.194  0.00  0.00    +0.109 A 
BRANCH  14  17
ATOM     17  C   LIG    1      -25.010  88.232  10.797  0.00  0.00    +0.040 C 
ATOM     18  C   LIG    1      -25.476  86.803  10.605  0.00  0.00    +0.010 C 
ATOM     19  C   LIG    1      -25.242  87.664   9.412  0.00  0.00    +0.010 C 
ENDBRANCH  14  17
ENDBRANCH  11  12
ENDBRANCH   9  11
ENDBRANCH   3   7
BRANCH   1  20
ATOM     20  C   LIG    1      -23.011  82.044  15.279  0.00  0.00    +0.197 C 
ATOM     21  O   LIG    1      -23.048  81.864  16.492  0.00  0.00    -0.287 OA
BRANCH  20  29
ATOM     22  N   LIG    1      -25.311  81.041  12.601  0.00  0.00    -0.329 N 
ATOM     23  C   LIG    1      -25.561  80.044  13.510  0.00  0.00    +0.147 A 
ATOM     24  N   LIG    1      -26.436  79.039  13.352  0.00  0.00    -0.197 NA
ATOM     25  C   LIG    1      -26.445  78.186  14.380  0.00  0.00    +0.214 A 
ATOM     26  N   LIG    1      -25.713  78.277  15.501  0.00  0.00    -0.222 NA
ATOM     27  C   LIG    1      -24.839  79.304  15.623  0.00  0.00    +0.126 A 
ATOM     28  C   LIG    1      -24.740  80.252  14.608  0.00  0.00    +0.048 A 
ATOM     29  C   LIG    1      -23.999  81.450  14.380  0.00  0.00    +0.051 A 
ATOM     30  C   LIG    1      -24.380  81.910  13.126  0.00  0.00    +0.100 A 
BRANCH  22  32
ATOM     31  C   LIG    1      -26.077  82.616  10.843  0.00  0.00    +0.030 C 
ATOM     32  C   LIG    1      -25.893  81.156  11.265  0.00  0.00    +0.083 C 
ATOM     33  C   LIG    1      -25.114  80.359  10.218  0.00  0.00    +0.030 C 
ENDBRANCH  22  32
BRANCH  25  34
ATOM     34  N   LIG    1      -27.342  77.138  14.309  0.00  0.00    -0.327 N 
ATOM     35  H   LIG    1      -27.206  76.637  13.443  0.00  0.00    +0.145 HD
ATOM     36  H   LIG    1      -28.272  77.486  14.501  0.00  0.00    +0.145 HD
ENDBRANCH  25  34
ENDBRANCH  20  29
ENDBRANCH   1  20
TORSDOF 8
ENDMDL
