MODEL 1
REMARK VINA RESULT:      -7.5      0.000      0.000
REMARK  Name = pdb/CHEMBL2037221.pdb
REMARK                            x       y       z     vdW  Elec       q    Type
REMARK                         _______ _______ _______ _____ _____    ______ ____
ROOT
ATOM      1  C   LIG    1      -35.651  67.077  21.947  0.00  0.00    +0.039 C 
ATOM      2  C   LIG    1      -36.749  67.734  21.540  0.00  0.00    +0.048 C 
ATOM      3  C   LIG    1      -37.632  68.451  22.473  0.00  0.00    +0.008 A 
ATOM      4  C   LIG    1      -37.621  68.622  23.845  0.00  0.00    +0.012 A 
ATOM      5  C   LIG    1      -38.589  69.459  24.407  0.00  0.00    +0.024 A 
ATOM      6  C   LIG    1      -39.556  70.112  23.611  0.00  0.00    +0.033 A 
ATOM      7  C   LIG    1      -39.587  69.881  22.231  0.00  0.00    +0.047 A 
ATOM      8  C   LIG    1      -38.613  69.066  21.695  0.00  0.00    +0.043 A 
ATOM      9  N   LIG    1      -38.436  68.763  20.354  0.00  0.00    -0.281 N 
ATOM     10  H   LIG    1      -39.009  69.079  19.586  0.00  0.00    +0.155 HD
ATOM     11  C   LIG    1      -37.329  67.951  20.156  0.00  0.00    +0.249 C 
ATOM     12  O   LIG    1      -36.966  67.539  19.073  0.00  0.00    -0.270 OA
ENDROOT
BRANCH   1  15
ATOM     13  C   LIG    1      -32.943  65.712  19.865  0.00  0.00    +0.055 A 
ATOM     14  C   LIG    1      -33.386  66.711  20.778  0.00  0.00    +0.040 A 
ATOM     15  C   LIG    1      -34.705  66.464  21.097  0.00  0.00    +0.041 A 
ATOM     16  N   LIG    1      -35.067  65.319  20.426  0.00  0.00    -0.360 N 
ATOM     17  H   LIG    1      -35.974  64.874  20.471  0.00  0.00    +0.165 HD
ATOM     18  C   LIG    1      -34.023  64.880  19.657  0.00  0.00    +0.096 A 
BRANCH  13  21
ATOM     19  N   LIG    1      -30.728  66.483  19.655  0.00  0.00    -0.310 N 
ATOM     20  H   LIG    1      -30.974  67.131  20.389  0.00  0.00    +0.149 HD
ATOM     21  C   LIG    1      -31.637  65.538  19.251  0.00  0.00    +0.246 C 
ATOM     22  O   LIG    1      -31.351  64.631  18.484  0.00  0.00    -0.270 OA
BRANCH  19  23
ATOM     23  C   LIG    1      -29.371  66.462  19.178  0.00  0.00    +0.120 C 
BRANCH  23  24
ATOM     24  C   LIG    1      -29.036  67.684  18.305  0.00  0.00    +0.103 C 
BRANCH  24  25
ATOM     25  N   LIG    1      -28.207  68.707  18.966  0.00  0.00    -0.301 NA
BRANCH  25  27
ATOM     26  C   LIG    1      -26.355  70.361  18.411  0.00  0.00    +0.020 C 
ATOM     27  C   LIG    1      -26.903  68.940  18.320  0.00  0.00    +0.081 C 
ENDBRANCH  25  27
BRANCH  25  28
ATOM     28  C   LIG    1      -28.975  69.958  19.119  0.00  0.00    +0.081 C 
ATOM     29  C   LIG    1      -30.336  69.997  18.434  0.00  0.00    +0.020 C 
ENDBRANCH  25  28
ENDBRANCH  24  25
ENDBRANCH  23  24
ENDBRANCH  19  23
ENDBRANCH  13  21
ENDBRANCH   1  15
BRANCH   6  30
ATOM     30  N   LIG    1      -40.501  70.996  24.165  0.00  0.00    -0.314 N 
ATOM     31  H   LIG    1      -40.953  70.597  24.982  0.00  0.00    +0.152 HD
BRANCH  30  32
ATOM     32  C   LIG    1      -40.510  72.404  24.133  0.00  0.00    +0.033 A 
ATOM     33  C   LIG    1      -39.526  73.167  24.784  0.00  0.00    +0.046 A 
ATOM     34  C   LIG    1      -39.516  74.565  24.706  0.00  0.00    +0.035 A 
ATOM     35  C   LIG    1      -40.528  75.206  23.992  0.00  0.00    +0.023 A 
ATOM     36  C   LIG    1      -41.504  74.462  23.329  0.00  0.00    +0.004 A 
ATOM     37  C   LIG    1      -41.486  73.070  23.386  0.00  0.00    +0.023 A 
BRANCH  34  38
ATOM     38  N   LIG    1      -38.457  75.247  25.347  0.00  0.00    -0.281 N 
ATOM     39  H   LIG    1      -37.664  75.476  24.763  0.00  0.00    +0.155 HD
ATOM     40  C   LIG    1      -38.517  75.829  26.602  0.00  0.00    +0.248 C 
ATOM     41  O   LIG    1      -39.489  75.842  27.351  0.00  0.00    -0.270 OA
BRANCH  40  42
ATOM     42  C   LIG    1      -37.295  76.561  27.038  0.00  0.00    +0.039 A 
ATOM     43  C   LIG    1      -36.051  75.940  27.152  0.00  0.00    +0.025 A 
ATOM     44  C   LIG    1      -34.945  76.682  27.587  0.00  0.00    +0.057 A 
ATOM     45  C   LIG    1      -35.115  78.039  27.920  0.00  0.00    +0.035 A 
ATOM     46  C   LIG    1      -36.363  78.683  27.867  0.00  0.00    +0.031 A 
ATOM     47  C   LIG    1      -37.436  77.916  27.388  0.00  0.00    +0.036 A 
BRANCH  46  48
ATOM     48  N   LIG    1      -36.545  80.031  28.248  0.00  0.00    -0.327 N 
ATOM     49  C   LIG    1      -36.656  80.239  29.719  0.00  0.00    +0.120 C 
ATOM     50  C   LIG    1      -36.895  81.721  30.094  0.00  0.00    +0.103 C 
ATOM     51  N   LIG    1      -35.976  82.700  29.468  0.00  0.00    -0.302 NA
ATOM     52  C   LIG    1      -34.625  82.591  30.014  0.00  0.00    +0.105 C 
ATOM     53  C   LIG    1      -36.005  82.481  28.013  0.00  0.00    +0.103 C 
ATOM     54  C   LIG    1      -35.701  81.037  27.562  0.00  0.00    +0.120 C 
ENDBRANCH  46  48
BRANCH  44  55
ATOM     55  C   LIG    1      -33.593  76.027  27.723  0.00  0.00    +0.417 C 
ATOM     56  F   LIG    1      -33.116  76.092  28.996  0.00  0.00    -0.166 F 
ATOM     57  F   LIG    1      -32.652  76.622  26.939  0.00  0.00    -0.166 F 
ATOM     58  F   LIG    1      -33.584  74.710  27.383  0.00  0.00    -0.166 F 
ENDBRANCH  44  55
ENDBRANCH  40  42
ENDBRANCH  34  38
ENDBRANCH  30  32
ENDBRANCH   6  30
TORSDOF 13
ENDMDL
MODEL 2
REMARK VINA RESULT:      -7.4      2.799      4.447
REMARK  Name = pdb/CHEMBL2037221.pdb
REMARK                            x       y       z     vdW  Elec       q    Type
REMARK                         _______ _______ _______ _____ _____    ______ ____
ROOT
ATOM      1  C   LIG    1      -35.012  67.084  22.028  0.00  0.00    +0.039 C 
ATOM      2  C   LIG    1      -36.167  67.688  21.703  0.00  0.00    +0.048 C 
ATOM      3  C   LIG    1      -36.912  68.530  22.653  0.00  0.00    +0.008 A 
ATOM      4  C   LIG    1      -36.701  68.883  23.972  0.00  0.00    +0.012 A 
ATOM      5  C   LIG    1      -37.586  69.795  24.555  0.00  0.00    +0.024 A 
ATOM      6  C   LIG    1      -38.669  70.341  23.830  0.00  0.00    +0.033 A 
ATOM      7  C   LIG    1      -38.901  69.927  22.514  0.00  0.00    +0.047 A 
ATOM      8  C   LIG    1      -38.006  69.041  21.953  0.00  0.00    +0.043 A 
ATOM      9  N   LIG    1      -38.025  68.560  20.653  0.00  0.00    -0.281 N 
ATOM     10  H   LIG    1      -38.708  68.774  19.944  0.00  0.00    +0.155 HD
ATOM     11  C   LIG    1      -36.948  67.721  20.404  0.00  0.00    +0.249 C 
ATOM     12  O   LIG    1      -36.743  67.166  19.344  0.00  0.00    -0.270 OA
ENDROOT
BRANCH   1  15
ATOM     13  C   LIG    1      -32.642  65.458  19.731  0.00  0.00    +0.055 A 
ATOM     14  C   LIG    1      -32.999  66.607  20.495  0.00  0.00    +0.040 A 
ATOM     15  C   LIG    1      -34.194  66.357  21.136  0.00  0.00    +0.041 A 
ATOM     16  N   LIG    1      -34.558  65.070  20.808  0.00  0.00    -0.360 N 
ATOM     17  H   LIG    1      -35.385  64.592  21.140  0.00  0.00    +0.165 HD
ATOM     18  C   LIG    1      -33.647  64.536  19.939  0.00  0.00    +0.096 A 
BRANCH  13  21
ATOM     19  N   LIG    1      -30.391  65.981  19.284  0.00  0.00    -0.310 N 
ATOM     20  H   LIG    1      -30.436  66.524  20.134  0.00  0.00    +0.149 HD
ATOM     21  C   LIG    1      -31.473  65.232  18.898  0.00  0.00    +0.246 C 
ATOM     22  O   LIG    1      -31.430  64.436  17.972  0.00  0.00    -0.270 OA
BRANCH  19  23
ATOM     23  C   LIG    1      -29.130  65.877  18.598  0.00  0.00    +0.120 C 
BRANCH  23  24
ATOM     24  C   LIG    1      -28.016  65.316  19.498  0.00  0.00    +0.103 C 
BRANCH  24  25
ATOM     25  N   LIG    1      -27.774  63.869  19.353  0.00  0.00    -0.301 NA
BRANCH  25  27
ATOM     26  C   LIG    1      -26.481  63.406  17.211  0.00  0.00    +0.020 C 
ATOM     27  C   LIG    1      -27.810  63.386  17.961  0.00  0.00    +0.081 C 
ENDBRANCH  25  27
BRANCH  25  28
ATOM     28  C   LIG    1      -26.518  63.495  20.032  0.00  0.00    +0.081 C 
ATOM     29  C   LIG    1      -26.564  62.226  20.875  0.00  0.00    +0.020 C 
ENDBRANCH  25  28
ENDBRANCH  24  25
ENDBRANCH  23  24
ENDBRANCH  19  23
ENDBRANCH  13  21
ENDBRANCH   1  15
BRANCH   6  30
ATOM     30  N   LIG    1      -39.533  71.298  24.395  0.00  0.00    -0.314 N 
ATOM     31  H   LIG    1      -40.139  70.887  25.099  0.00  0.00    +0.152 HD
BRANCH  30  32
ATOM     32  C   LIG    1      -39.328  72.683  24.551  0.00  0.00    +0.033 A 
ATOM     33  C   LIG    1      -38.211  73.194  25.234  0.00  0.00    +0.046 A 
ATOM     34  C   LIG    1      -37.990  74.572  25.342  0.00  0.00    +0.035 A 
ATOM     35  C   LIG    1      -38.922  75.449  24.786  0.00  0.00    +0.023 A 
ATOM     36  C   LIG    1      -40.029  74.956  24.094  0.00  0.00    +0.004 A 
ATOM     37  C   LIG    1      -40.221  73.582  23.964  0.00  0.00    +0.023 A 
BRANCH  34  38
ATOM     38  N   LIG    1      -36.813  74.996  25.999  0.00  0.00    -0.281 N 
ATOM     39  H   LIG    1      -35.986  75.064  25.421  0.00  0.00    +0.155 HD
ATOM     40  C   LIG    1      -36.752  75.544  27.269  0.00  0.00    +0.248 C 
ATOM     41  O   LIG    1      -37.702  75.746  28.019  0.00  0.00    -0.270 OA
BRANCH  40  42
ATOM     42  C   LIG    1      -35.404  75.987  27.723  0.00  0.00    +0.039 A 
ATOM     43  C   LIG    1      -34.776  77.121  27.205  0.00  0.00    +0.025 A 
ATOM     44  C   LIG    1      -33.498  77.472  27.660  0.00  0.00    +0.057 A 
ATOM     45  C   LIG    1      -32.863  76.660  28.620  0.00  0.00    +0.035 A 
ATOM     46  C   LIG    1      -33.444  75.484  29.123  0.00  0.00    +0.031 A 
ATOM     47  C   LIG    1      -34.740  75.191  28.673  0.00  0.00    +0.036 A 
BRANCH  46  48
ATOM     48  N   LIG    1      -32.788  74.643  30.050  0.00  0.00    -0.327 N 
ATOM     49  C   LIG    1      -33.708  73.850  30.911  0.00  0.00    +0.120 C 
ATOM     50  C   LIG    1      -32.954  72.974  31.938  0.00  0.00    +0.103 C 
ATOM     51  N   LIG    1      -31.858  72.139  31.392  0.00  0.00    -0.302 NA
ATOM     52  C   LIG    1      -32.374  71.049  30.569  0.00  0.00    +0.105 C 
ATOM     53  C   LIG    1      -30.951  73.022  30.639  0.00  0.00    +0.103 C 
ATOM     54  C   LIG    1      -31.627  73.873  29.544  0.00  0.00    +0.120 C 
ENDBRANCH  46  48
BRANCH  44  55
ATOM     55  C   LIG    1      -32.799  78.689  27.108  0.00  0.00    +0.417 C 
ATOM     56  F   LIG    1      -32.369  78.500  25.831  0.00  0.00    -0.166 F 
ATOM     57  F   LIG    1      -31.694  79.020  27.831  0.00  0.00    -0.166 F 
ATOM     58  F   LIG    1      -33.578  79.805  27.082  0.00  0.00    -0.166 F 
ENDBRANCH  44  55
ENDBRANCH  40  42
ENDBRANCH  34  38
ENDBRANCH  30  32
ENDBRANCH   6  30
TORSDOF 13
ENDMDL
MODEL 3
REMARK VINA RESULT:      -7.2      5.012     14.307
REMARK  Name = pdb/CHEMBL2037221.pdb
REMARK                            x       y       z     vdW  Elec       q    Type
REMARK                         _______ _______ _______ _____ _____    ______ ____
ROOT
ATOM      1  C   LIG    1      -40.162  76.548  24.208  0.00  0.00    +0.039 C 
ATOM      2  C   LIG    1      -39.235  75.638  24.547  0.00  0.00    +0.048 C 
ATOM      3  C   LIG    1      -39.435  74.194  24.348  0.00  0.00    +0.008 A 
ATOM      4  C   LIG    1      -40.485  73.444  23.853  0.00  0.00    +0.012 A 
ATOM      5  C   LIG    1      -40.298  72.065  23.721  0.00  0.00    +0.024 A 
ATOM      6  C   LIG    1      -39.081  71.445  24.082  0.00  0.00    +0.033 A 
ATOM      7  C   LIG    1      -38.050  72.213  24.636  0.00  0.00    +0.047 A 
ATOM      8  C   LIG    1      -38.249  73.573  24.741  0.00  0.00    +0.043 A 
ATOM      9  N   LIG    1      -37.336  74.508  25.202  0.00  0.00    -0.281 N 
ATOM     10  H   LIG    1      -36.407  74.321  25.546  0.00  0.00    +0.155 HD
ATOM     11  C   LIG    1      -37.844  75.796  25.130  0.00  0.00    +0.249 C 
ATOM     12  O   LIG    1      -37.243  76.791  25.482  0.00  0.00    -0.270 OA
ENDROOT
BRANCH   1  15
ATOM     13  C   LIG    1      -39.778  80.202  24.011  0.00  0.00    +0.055 A 
ATOM     14  C   LIG    1      -39.944  78.960  23.333  0.00  0.00    +0.040 A 
ATOM     15  C   LIG    1      -39.991  77.948  24.269  0.00  0.00    +0.041 A 
ATOM     16  N   LIG    1      -39.892  78.547  25.504  0.00  0.00    -0.360 N 
ATOM     17  H   LIG    1      -39.913  78.065  26.393  0.00  0.00    +0.165 HD
ATOM     18  C   LIG    1      -39.731  79.897  25.356  0.00  0.00    +0.096 A 
BRANCH  13  21
ATOM     19  N   LIG    1      -38.572  82.221  23.896  0.00  0.00    -0.310 N 
ATOM     20  H   LIG    1      -37.874  81.737  24.442  0.00  0.00    +0.149 HD
ATOM     21  C   LIG    1      -39.685  81.545  23.465  0.00  0.00    +0.246 C 
ATOM     22  O   LIG    1      -40.485  82.024  22.675  0.00  0.00    -0.270 OA
BRANCH  19  23
ATOM     23  C   LIG    1      -38.291  83.557  23.443  0.00  0.00    +0.120 C 
BRANCH  23  24
ATOM     24  C   LIG    1      -38.600  84.617  24.515  0.00  0.00    +0.103 C 
BRANCH  24  25
ATOM     25  N   LIG    1      -37.432  85.069  25.292  0.00  0.00    -0.301 NA
BRANCH  25  27
ATOM     26  C   LIG    1      -36.074  83.770  27.008  0.00  0.00    +0.020 C 
ATOM     27  C   LIG    1      -36.431  84.018  25.545  0.00  0.00    +0.081 C 
ENDBRANCH  25  27
BRANCH  25  28
ATOM     28  C   LIG    1      -36.832  86.259  24.657  0.00  0.00    +0.081 C 
ATOM     29  C   LIG    1      -37.741  87.052  23.726  0.00  0.00    +0.020 C 
ENDBRANCH  25  28
ENDBRANCH  24  25
ENDBRANCH  23  24
ENDBRANCH  19  23
ENDBRANCH  13  21
ENDBRANCH   1  15
BRANCH   6  30
ATOM     30  N   LIG    1      -38.869  70.065  23.904  0.00  0.00    -0.314 N 
ATOM     31  H   LIG    1      -38.718  69.591  24.789  0.00  0.00    +0.152 HD
BRANCH  30  32
ATOM     32  C   LIG    1      -39.352  69.228  22.879  0.00  0.00    +0.033 A 
ATOM     33  C   LIG    1      -38.610  68.982  21.711  0.00  0.00    +0.046 A 
ATOM     34  C   LIG    1      -39.077  68.111  20.720  0.00  0.00    +0.035 A 
ATOM     35  C   LIG    1      -40.323  67.506  20.887  0.00  0.00    +0.023 A 
ATOM     36  C   LIG    1      -41.066  67.732  22.047  0.00  0.00    +0.004 A 
ATOM     37  C   LIG    1      -40.576  68.575  23.043  0.00  0.00    +0.023 A 
BRANCH  34  38
ATOM     38  N   LIG    1      -38.240  67.880  19.605  0.00  0.00    -0.281 N 
ATOM     39  H   LIG    1      -38.326  68.542  18.845  0.00  0.00    +0.155 HD
ATOM     40  C   LIG    1      -37.172  66.999  19.568  0.00  0.00    +0.248 C 
ATOM     41  O   LIG    1      -36.788  66.285  20.489  0.00  0.00    -0.270 OA
BRANCH  40  42
ATOM     42  C   LIG    1      -36.386  66.983  18.302  0.00  0.00    +0.039 A 
ATOM     43  C   LIG    1      -36.969  66.713  17.063  0.00  0.00    +0.025 A 
ATOM     44  C   LIG    1      -36.169  66.693  15.913  0.00  0.00    +0.057 A 
ATOM     45  C   LIG    1      -34.786  66.928  16.032  0.00  0.00    +0.035 A 
ATOM     46  C   LIG    1      -34.159  67.152  17.269  0.00  0.00    +0.031 A 
ATOM     47  C   LIG    1      -35.000  67.204  18.391  0.00  0.00    +0.036 A 
BRANCH  46  48
ATOM     48  N   LIG    1      -32.764  67.340  17.396  0.00  0.00    -0.327 N 
ATOM     49  C   LIG    1      -32.191  68.322  16.434  0.00  0.00    +0.120 C 
ATOM     50  C   LIG    1      -30.659  68.470  16.576  0.00  0.00    +0.103 C 
ATOM     51  N   LIG    1      -30.158  68.694  17.952  0.00  0.00    -0.302 NA
ATOM     52  C   LIG    1      -30.514  70.023  18.442  0.00  0.00    +0.105 C 
ATOM     53  C   LIG    1      -30.697  67.625  18.809  0.00  0.00    +0.103 C 
ATOM     54  C   LIG    1      -32.232  67.470  18.773  0.00  0.00    +0.120 C 
ENDBRANCH  46  48
BRANCH  44  55
ATOM     55  C   LIG    1      -36.779  66.395  14.566  0.00  0.00    +0.417 C 
ATOM     56  F   LIG    1      -35.836  66.245  13.596  0.00  0.00    -0.166 F 
ATOM     57  F   LIG    1      -37.598  67.396  14.139  0.00  0.00    -0.166 F 
ATOM     58  F   LIG    1      -37.530  65.261  14.541  0.00  0.00    -0.166 F 
ENDBRANCH  44  55
ENDBRANCH  40  42
ENDBRANCH  34  38
ENDBRANCH  30  32
ENDBRANCH   6  30
TORSDOF 13
ENDMDL
MODEL 4
REMARK VINA RESULT:      -7.2     12.316     20.046
REMARK  Name = pdb/CHEMBL2037221.pdb
REMARK                            x       y       z     vdW  Elec       q    Type
REMARK                         _______ _______ _______ _____ _____    ______ ____
ROOT
ATOM      1  C   LIG    1      -20.545  81.169  15.778  0.00  0.00    +0.039 C 
ATOM      2  C   LIG    1      -20.973  79.974  15.340  0.00  0.00    +0.048 C 
ATOM      3  C   LIG    1      -20.277  78.719  15.664  0.00  0.00    +0.008 A 
ATOM      4  C   LIG    1      -19.134  78.429  16.385  0.00  0.00    +0.012 A 
ATOM      5  C   LIG    1      -18.800  77.084  16.570  0.00  0.00    +0.024 A 
ATOM      6  C   LIG    1      -19.596  76.045  16.039  0.00  0.00    +0.033 A 
ATOM      7  C   LIG    1      -20.717  76.359  15.263  0.00  0.00    +0.047 A 
ATOM      8  C   LIG    1      -21.037  77.690  15.108  0.00  0.00    +0.043 A 
ATOM      9  N   LIG    1      -22.134  78.202  14.432  0.00  0.00    -0.281 N 
ATOM     10  H   LIG    1      -22.838  77.673  13.942  0.00  0.00    +0.155 HD
ATOM     11  C   LIG    1      -22.181  79.586  14.510  0.00  0.00    +0.249 C 
ATOM     12  O   LIG    1      -23.039  80.273  13.993  0.00  0.00    -0.270 OA
ENDROOT
BRANCH   1  15
ATOM     13  C   LIG    1      -22.188  84.360  14.971  0.00  0.00    +0.055 A 
ATOM     14  C   LIG    1      -21.298  83.320  14.579  0.00  0.00    +0.040 A 
ATOM     15  C   LIG    1      -21.224  82.394  15.598  0.00  0.00    +0.041 A 
ATOM     16  N   LIG    1      -22.075  82.827  16.589  0.00  0.00    -0.360 N 
ATOM     17  H   LIG    1      -22.251  82.349  17.462  0.00  0.00    +0.165 HD
ATOM     18  C   LIG    1      -22.634  84.025  16.233  0.00  0.00    +0.096 A 
BRANCH  13  21
ATOM     19  N   LIG    1      -22.278  86.711  14.887  0.00  0.00    -0.310 N 
ATOM     20  H   LIG    1      -21.715  86.678  15.724  0.00  0.00    +0.149 HD
ATOM     21  C   LIG    1      -22.599  85.546  14.238  0.00  0.00    +0.246 C 
ATOM     22  O   LIG    1      -23.141  85.526  13.143  0.00  0.00    -0.270 OA
BRANCH  19  23
ATOM     23  C   LIG    1      -22.580  87.993  14.307  0.00  0.00    +0.120 C 
BRANCH  23  24
ATOM     24  C   LIG    1      -21.346  88.655  13.669  0.00  0.00    +0.103 C 
BRANCH  24  25
ATOM     25  N   LIG    1      -20.962  88.108  12.355  0.00  0.00    -0.301 NA
BRANCH  25  27
ATOM     26  C   LIG    1      -22.025  90.128  11.229  0.00  0.00    +0.020 C 
ATOM     27  C   LIG    1      -21.760  88.625  11.229  0.00  0.00    +0.081 C 
ENDBRANCH  25  27
BRANCH  25  28
ATOM     28  C   LIG    1      -19.515  88.295  12.133  0.00  0.00    +0.081 C 
ATOM     29  C   LIG    1      -18.611  87.171  12.625  0.00  0.00    +0.020 C 
ENDBRANCH  25  28
ENDBRANCH  24  25
ENDBRANCH  23  24
ENDBRANCH  19  23
ENDBRANCH  13  21
ENDBRANCH   1  15
BRANCH   6  30
ATOM     30  N   LIG    1      -19.294  74.688  16.265  0.00  0.00    -0.314 N 
ATOM     31  H   LIG    1      -18.349  74.461  15.973  0.00  0.00    +0.152 HD
BRANCH  30  32
ATOM     32  C   LIG    1      -19.815  73.827  17.251  0.00  0.00    +0.033 A 
ATOM     33  C   LIG    1      -21.176  73.479  17.288  0.00  0.00    +0.046 A 
ATOM     34  C   LIG    1      -21.674  72.583  18.241  0.00  0.00    +0.035 A 
ATOM     35  C   LIG    1      -20.800  72.057  19.193  0.00  0.00    +0.023 A 
ATOM     36  C   LIG    1      -19.444  72.383  19.161  0.00  0.00    +0.004 A 
ATOM     37  C   LIG    1      -18.952  73.250  18.187  0.00  0.00    +0.023 A 
BRANCH  34  38
ATOM     38  N   LIG    1      -23.046  72.249  18.170  0.00  0.00    -0.281 N 
ATOM     39  H   LIG    1      -23.677  72.876  18.651  0.00  0.00    +0.155 HD
ATOM     40  C   LIG    1      -23.602  71.308  17.320  0.00  0.00    +0.248 C 
ATOM     41  O   LIG    1      -22.998  70.621  16.503  0.00  0.00    -0.270 OA
BRANCH  40  42
ATOM     42  C   LIG    1      -25.086  71.183  17.371  0.00  0.00    +0.039 A 
ATOM     43  C   LIG    1      -25.749  70.559  18.429  0.00  0.00    +0.025 A 
ATOM     44  C   LIG    1      -27.145  70.457  18.406  0.00  0.00    +0.057 A 
ATOM     45  C   LIG    1      -27.854  70.970  17.303  0.00  0.00    +0.035 A 
ATOM     46  C   LIG    1      -27.217  71.557  16.197  0.00  0.00    +0.031 A 
ATOM     47  C   LIG    1      -25.821  71.677  16.278  0.00  0.00    +0.036 A 
BRANCH  46  48
ATOM     48  N   LIG    1      -27.923  72.029  15.068  0.00  0.00    -0.327 N 
ATOM     49  C   LIG    1      -27.080  72.760  14.083  0.00  0.00    +0.120 C 
ATOM     50  C   LIG    1      -27.895  73.296  12.883  0.00  0.00    +0.103 C 
ATOM     51  N   LIG    1      -28.787  72.315  12.221  0.00  0.00    -0.302 NA
ATOM     52  C   LIG    1      -28.025  71.308  11.487  0.00  0.00    +0.105 C 
ATOM     53  C   LIG    1      -29.645  71.715  13.256  0.00  0.00    +0.103 C 
ATOM     54  C   LIG    1      -28.893  71.094  14.451  0.00  0.00    +0.120 C 
ENDBRANCH  46  48
BRANCH  44  55
ATOM     55  C   LIG    1      -27.879  69.780  19.536  0.00  0.00    +0.417 C 
ATOM     56  F   LIG    1      -27.156  69.775  20.689  0.00  0.00    -0.166 F 
ATOM     57  F   LIG    1      -28.156  68.475  19.262  0.00  0.00    -0.166 F 
ATOM     58  F   LIG    1      -29.072  70.359  19.842  0.00  0.00    -0.166 F 
ENDBRANCH  44  55
ENDBRANCH  40  42
ENDBRANCH  34  38
ENDBRANCH  30  32
ENDBRANCH   6  30
TORSDOF 13
ENDMDL
MODEL 5
REMARK VINA RESULT:      -7.1      2.862      4.551
REMARK  Name = pdb/CHEMBL2037221.pdb
REMARK                            x       y       z     vdW  Elec       q    Type
REMARK                         _______ _______ _______ _____ _____    ______ ____
ROOT
ATOM      1  C   LIG    1      -36.429  66.692  20.108  0.00  0.00    +0.039 C 
ATOM      2  C   LIG    1      -36.299  67.425  21.226  0.00  0.00    +0.048 C 
ATOM      3  C   LIG    1      -37.339  68.360  21.682  0.00  0.00    +0.008 A 
ATOM      4  C   LIG    1      -38.567  68.733  21.171  0.00  0.00    +0.012 A 
ATOM      5  C   LIG    1      -39.355  69.605  21.929  0.00  0.00    +0.024 A 
ATOM      6  C   LIG    1      -38.919  70.098  23.179  0.00  0.00    +0.033 A 
ATOM      7  C   LIG    1      -37.647  69.756  23.653  0.00  0.00    +0.047 A 
ATOM      8  C   LIG    1      -36.895  68.882  22.898  0.00  0.00    +0.043 A 
ATOM      9  N   LIG    1      -35.646  68.376  23.221  0.00  0.00    -0.281 N 
ATOM     10  H   LIG    1      -35.104  68.593  24.044  0.00  0.00    +0.155 HD
ATOM     11  C   LIG    1      -35.193  67.483  22.261  0.00  0.00    +0.249 C 
ATOM     12  O   LIG    1      -34.123  66.910  22.308  0.00  0.00    -0.270 OA
ENDROOT
BRANCH   1  15
ATOM     13  C   LIG    1      -33.856  64.375  18.867  0.00  0.00    +0.055 A 
ATOM     14  C   LIG    1      -34.332  65.712  18.981  0.00  0.00    +0.040 A 
ATOM     15  C   LIG    1      -35.524  65.700  19.674  0.00  0.00    +0.041 A 
ATOM     16  N   LIG    1      -35.769  64.389  20.016  0.00  0.00    -0.360 N 
ATOM     17  H   LIG    1      -36.564  64.060  20.547  0.00  0.00    +0.165 HD
ATOM     18  C   LIG    1      -34.787  63.583  19.507  0.00  0.00    +0.096 A 
BRANCH  13  21
ATOM     19  N   LIG    1      -31.880  64.877  17.688  0.00  0.00    -0.310 N 
ATOM     20  H   LIG    1      -32.134  65.842  17.842  0.00  0.00    +0.149 HD
ATOM     21  C   LIG    1      -32.644  63.878  18.237  0.00  0.00    +0.246 C 
ATOM     22  O   LIG    1      -32.307  62.703  18.221  0.00  0.00    -0.270 OA
BRANCH  19  23
ATOM     23  C   LIG    1      -30.628  64.587  17.042  0.00  0.00    +0.120 C 
BRANCH  23  24
ATOM     24  C   LIG    1      -29.418  65.059  17.867  0.00  0.00    +0.103 C 
BRANCH  24  25
ATOM     25  N   LIG    1      -28.837  66.343  17.432  0.00  0.00    -0.301 NA
BRANCH  25  27
ATOM     26  C   LIG    1      -30.410  68.044  18.485  0.00  0.00    +0.020 C 
ATOM     27  C   LIG    1      -29.010  67.442  18.398  0.00  0.00    +0.081 C 
ENDBRANCH  25  27
BRANCH  25  28
ATOM     28  C   LIG    1      -27.422  66.157  17.060  0.00  0.00    +0.081 C 
ATOM     29  C   LIG    1      -26.795  64.824  17.452  0.00  0.00    +0.020 C 
ENDBRANCH  25  28
ENDBRANCH  24  25
ENDBRANCH  23  24
ENDBRANCH  19  23
ENDBRANCH  13  21
ENDBRANCH   1  15
BRANCH   6  30
ATOM     30  N   LIG    1      -39.728  70.935  23.971  0.00  0.00    -0.314 N 
ATOM     31  H   LIG    1      -40.223  70.411  24.686  0.00  0.00    +0.152 HD
BRANCH  30  32
ATOM     32  C   LIG    1      -39.542  72.297  24.280  0.00  0.00    +0.033 A 
ATOM     33  C   LIG    1      -38.415  72.750  24.986  0.00  0.00    +0.046 A 
ATOM     34  C   LIG    1      -38.216  74.111  25.246  0.00  0.00    +0.035 A 
ATOM     35  C   LIG    1      -39.179  75.026  24.821  0.00  0.00    +0.023 A 
ATOM     36  C   LIG    1      -40.297  74.593  24.108  0.00  0.00    +0.004 A 
ATOM     37  C   LIG    1      -40.469  73.239  23.825  0.00  0.00    +0.023 A 
BRANCH  34  38
ATOM     38  N   LIG    1      -37.027  74.481  25.916  0.00  0.00    -0.281 N 
ATOM     39  H   LIG    1      -36.228  74.664  25.324  0.00  0.00    +0.155 HD
ATOM     40  C   LIG    1      -36.933  74.842  27.250  0.00  0.00    +0.248 C 
ATOM     41  O   LIG    1      -37.857  74.896  28.054  0.00  0.00    -0.270 OA
BRANCH  40  42
ATOM     42  C   LIG    1      -35.582  75.267  27.714  0.00  0.00    +0.039 A 
ATOM     43  C   LIG    1      -34.975  76.443  27.271  0.00  0.00    +0.025 A 
ATOM     44  C   LIG    1      -33.694  76.775  27.731  0.00  0.00    +0.057 A 
ATOM     45  C   LIG    1      -33.035  75.904  28.619  0.00  0.00    +0.035 A 
ATOM     46  C   LIG    1      -33.595  74.688  29.045  0.00  0.00    +0.031 A 
ATOM     47  C   LIG    1      -34.895  74.412  28.593  0.00  0.00    +0.036 A 
BRANCH  46  48
ATOM     48  N   LIG    1      -32.915  73.790  29.898  0.00  0.00    -0.327 N 
ATOM     49  C   LIG    1      -33.461  72.404  29.883  0.00  0.00    +0.120 C 
ATOM     50  C   LIG    1      -32.717  71.462  30.858  0.00  0.00    +0.103 C 
ATOM     51  N   LIG    1      -31.239  71.470  30.761  0.00  0.00    -0.302 NA
ATOM     52  C   LIG    1      -30.779  70.848  29.523  0.00  0.00    +0.105 C 
ATOM     53  C   LIG    1      -30.787  72.867  30.881  0.00  0.00    +0.103 C 
ATOM     54  C   LIG    1      -31.435  73.852  29.886  0.00  0.00    +0.120 C 
ENDBRANCH  46  48
BRANCH  44  55
ATOM     55  C   LIG    1      -33.018  78.038  27.259  0.00  0.00    +0.417 C 
ATOM     56  F   LIG    1      -31.978  78.396  28.061  0.00  0.00    -0.166 F 
ATOM     57  F   LIG    1      -33.866  79.103  27.248  0.00  0.00    -0.166 F 
ATOM     58  F   LIG    1      -32.510  77.951  25.999  0.00  0.00    -0.166 F 
ENDBRANCH  44  55
ENDBRANCH  40  42
ENDBRANCH  34  38
ENDBRANCH  30  32
ENDBRANCH   6  30
TORSDOF 13
ENDMDL
MODEL 6
REMARK VINA RESULT:      -7.0      1.474      2.097
REMARK  Name = pdb/CHEMBL2037221.pdb
REMARK                            x       y       z     vdW  Elec       q    Type
REMARK                         _______ _______ _______ _____ _____    ______ ____
ROOT
ATOM      1  C   LIG    1      -36.245  66.870  20.085  0.00  0.00    +0.039 C 
ATOM      2  C   LIG    1      -36.271  67.531  21.254  0.00  0.00    +0.048 C 
ATOM      3  C   LIG    1      -37.401  68.384  21.654  0.00  0.00    +0.008 A 
ATOM      4  C   LIG    1      -38.587  68.734  21.038  0.00  0.00    +0.012 A 
ATOM      5  C   LIG    1      -39.494  69.515  21.761  0.00  0.00    +0.024 A 
ATOM      6  C   LIG    1      -39.217  69.941  23.079  0.00  0.00    +0.033 A 
ATOM      7  C   LIG    1      -37.986  69.626  23.664  0.00  0.00    +0.047 A 
ATOM      8  C   LIG    1      -37.114  68.841  22.941  0.00  0.00    +0.043 A 
ATOM      9  N   LIG    1      -35.880  68.372  23.364  0.00  0.00    -0.281 N 
ATOM     10  H   LIG    1      -35.440  68.557  24.252  0.00  0.00    +0.155 HD
ATOM     11  C   LIG    1      -35.283  67.568  22.405  0.00  0.00    +0.249 C 
ATOM     12  O   LIG    1      -34.196  67.043  22.530  0.00  0.00    -0.270 OA
ENDROOT
BRANCH   1  15
ATOM     13  C   LIG    1      -33.499  64.748  18.864  0.00  0.00    +0.055 A 
ATOM     14  C   LIG    1      -34.181  65.998  18.817  0.00  0.00    +0.040 A 
ATOM     15  C   LIG    1      -35.248  65.953  19.689  0.00  0.00    +0.041 A 
ATOM     16  N   LIG    1      -35.213  64.717  20.294  0.00  0.00    -0.360 N 
ATOM     17  H   LIG    1      -35.860  64.389  20.998  0.00  0.00    +0.165 HD
ATOM     18  C   LIG    1      -34.184  63.975  19.779  0.00  0.00    +0.096 A 
BRANCH  13  21
ATOM     19  N   LIG    1      -31.752  65.318  17.393  0.00  0.00    -0.310 N 
ATOM     20  H   LIG    1      -32.104  66.260  17.474  0.00  0.00    +0.149 HD
ATOM     21  C   LIG    1      -32.316  64.315  18.140  0.00  0.00    +0.246 C 
ATOM     22  O   LIG    1      -31.840  63.192  18.207  0.00  0.00    -0.270 OA
BRANCH  19  23
ATOM     23  C   LIG    1      -30.556  65.091  16.625  0.00  0.00    +0.120 C 
BRANCH  23  24
ATOM     24  C   LIG    1      -29.762  66.386  16.379  0.00  0.00    +0.103 C 
BRANCH  24  25
ATOM     25  N   LIG    1      -28.580  66.560  17.243  0.00  0.00    -0.301 NA
BRANCH  25  27
ATOM     26  C   LIG    1      -27.131  68.489  18.051  0.00  0.00    +0.020 C 
ATOM     27  C   LIG    1      -28.518  67.865  17.925  0.00  0.00    +0.081 C 
ENDBRANCH  25  27
BRANCH  25  28
ATOM     28  C   LIG    1      -28.481  65.437  18.195  0.00  0.00    +0.081 C 
ATOM     29  C   LIG    1      -28.792  65.763  19.651  0.00  0.00    +0.020 C 
ENDBRANCH  25  28
ENDBRANCH  24  25
ENDBRANCH  23  24
ENDBRANCH  19  23
ENDBRANCH  13  21
ENDBRANCH   1  15
BRANCH   6  30
ATOM     30  N   LIG    1      -40.148  70.685  23.830  0.00  0.00    -0.314 N 
ATOM     31  H   LIG    1      -40.441  70.185  24.664  0.00  0.00    +0.152 HD
BRANCH  30  32
ATOM     32  C   LIG    1      -40.285  72.084  23.918  0.00  0.00    +0.033 A 
ATOM     33  C   LIG    1      -39.338  72.882  24.580  0.00  0.00    +0.046 A 
ATOM     34  C   LIG    1      -39.458  74.276  24.621  0.00  0.00    +0.035 A 
ATOM     35  C   LIG    1      -40.565  74.874  24.018  0.00  0.00    +0.023 A 
ATOM     36  C   LIG    1      -41.508  74.096  23.346  0.00  0.00    +0.004 A 
ATOM     37  C   LIG    1      -41.360  72.711  23.283  0.00  0.00    +0.023 A 
BRANCH  34  38
ATOM     38  N   LIG    1      -38.429  75.003  25.262  0.00  0.00    -0.281 N 
ATOM     39  H   LIG    1      -37.685  75.334  24.663  0.00  0.00    +0.155 HD
ATOM     40  C   LIG    1      -38.476  75.494  26.556  0.00  0.00    +0.248 C 
ATOM     41  O   LIG    1      -39.409  75.377  27.344  0.00  0.00    -0.270 OA
BRANCH  40  42
ATOM     42  C   LIG    1      -37.298  76.297  26.989  0.00  0.00    +0.039 A 
ATOM     43  C   LIG    1      -36.037  75.732  27.182  0.00  0.00    +0.025 A 
ATOM     44  C   LIG    1      -34.975  76.540  27.609  0.00  0.00    +0.057 A 
ATOM     45  C   LIG    1      -35.207  77.907  27.856  0.00  0.00    +0.035 A 
ATOM     46  C   LIG    1      -36.474  78.498  27.722  0.00  0.00    +0.031 A 
ATOM     47  C   LIG    1      -37.501  77.664  27.253  0.00  0.00    +0.036 A 
BRANCH  46  48
ATOM     48  N   LIG    1      -36.719  79.858  28.015  0.00  0.00    -0.327 N 
ATOM     49  C   LIG    1      -35.499  80.711  28.010  0.00  0.00    +0.120 C 
ATOM     50  C   LIG    1      -35.800  82.183  28.375  0.00  0.00    +0.103 C 
ATOM     51  N   LIG    1      -36.916  82.816  27.633  0.00  0.00    -0.302 NA
ATOM     52  C   LIG    1      -36.566  83.045  26.233  0.00  0.00    +0.105 C 
ATOM     53  C   LIG    1      -38.100  81.952  27.775  0.00  0.00    +0.103 C 
ATOM     54  C   LIG    1      -37.890  80.482  27.356  0.00  0.00    +0.120 C 
ENDBRANCH  46  48
BRANCH  44  55
ATOM     55  C   LIG    1      -33.606  75.946  27.830  0.00  0.00    +0.417 C 
ATOM     56  F   LIG    1      -33.530  74.657  27.402  0.00  0.00    -0.166 F 
ATOM     57  F   LIG    1      -33.261  75.925  29.147  0.00  0.00    -0.166 F 
ATOM     58  F   LIG    1      -32.607  76.615  27.193  0.00  0.00    -0.166 F 
ENDBRANCH  44  55
ENDBRANCH  40  42
ENDBRANCH  34  38
ENDBRANCH  30  32
ENDBRANCH   6  30
TORSDOF 13
ENDMDL
MODEL 7
REMARK VINA RESULT:      -7.0      5.234     14.419
REMARK  Name = pdb/CHEMBL2037221.pdb
REMARK                            x       y       z     vdW  Elec       q    Type
REMARK                         _______ _______ _______ _____ _____    ______ ____
ROOT
ATOM      1  C   LIG    1      -40.054  76.689  24.318  0.00  0.00    +0.039 C 
ATOM      2  C   LIG    1      -39.153  75.755  24.663  0.00  0.00    +0.048 C 
ATOM      3  C   LIG    1      -39.382  74.318  24.446  0.00  0.00    +0.008 A 
ATOM      4  C   LIG    1      -40.439  73.596  23.925  0.00  0.00    +0.012 A 
ATOM      5  C   LIG    1      -40.281  72.215  23.782  0.00  0.00    +0.024 A 
ATOM      6  C   LIG    1      -39.085  71.564  24.158  0.00  0.00    +0.033 A 
ATOM      7  C   LIG    1      -38.047  72.303  24.738  0.00  0.00    +0.047 A 
ATOM      8  C   LIG    1      -38.218  73.666  24.853  0.00  0.00    +0.043 A 
ATOM      9  N   LIG    1      -37.292  74.576  25.340  0.00  0.00    -0.281 N 
ATOM     10  H   LIG    1      -36.373  74.364  25.697  0.00  0.00    +0.155 HD
ATOM     11  C   LIG    1      -37.770  75.876  25.272  0.00  0.00    +0.249 C 
ATOM     12  O   LIG    1      -37.153  76.853  25.645  0.00  0.00    -0.270 OA
ENDROOT
BRANCH   1  15
ATOM     13  C   LIG    1      -39.550  80.330  24.162  0.00  0.00    +0.055 A 
ATOM     14  C   LIG    1      -39.672  79.090  23.470  0.00  0.00    +0.040 A 
ATOM     15  C   LIG    1      -39.853  78.084  24.396  0.00  0.00    +0.041 A 
ATOM     16  N   LIG    1      -39.879  78.685  25.634  0.00  0.00    -0.360 N 
ATOM     17  H   LIG    1      -40.014  78.208  26.515  0.00  0.00    +0.165 HD
ATOM     18  C   LIG    1      -39.665  80.030  25.503  0.00  0.00    +0.096 A 
BRANCH  13  21
ATOM     19  N   LIG    1      -40.016  81.867  22.440  0.00  0.00    -0.310 N 
ATOM     20  H   LIG    1      -40.640  81.156  22.089  0.00  0.00    +0.149 HD
ATOM     21  C   LIG    1      -39.359  81.668  23.628  0.00  0.00    +0.246 C 
ATOM     22  O   LIG    1      -38.715  82.546  24.183  0.00  0.00    -0.270 OA
BRANCH  19  23
ATOM     23  C   LIG    1      -39.969  83.139  21.768  0.00  0.00    +0.120 C 
BRANCH  23  24
ATOM     24  C   LIG    1      -41.281  83.930  21.916  0.00  0.00    +0.103 C 
BRANCH  24  25
ATOM     25  N   LIG    1      -42.445  83.124  22.326  0.00  0.00    -0.301 NA
BRANCH  25  27
ATOM     26  C   LIG    1      -42.817  82.330  24.715  0.00  0.00    +0.020 C 
ATOM     27  C   LIG    1      -42.952  83.438  23.674  0.00  0.00    +0.081 C 
ENDBRANCH  25  27
BRANCH  25  28
ATOM     28  C   LIG    1      -43.507  83.214  21.305  0.00  0.00    +0.081 C 
ATOM     29  C   LIG    1      -43.187  82.596  19.950  0.00  0.00    +0.020 C 
ENDBRANCH  25  28
ENDBRANCH  24  25
ENDBRANCH  23  24
ENDBRANCH  19  23
ENDBRANCH  13  21
ENDBRANCH   1  15
BRANCH   6  30
ATOM     30  N   LIG    1      -38.900  70.181  23.969  0.00  0.00    -0.314 N 
ATOM     31  H   LIG    1      -39.083  69.659  24.821  0.00  0.00    +0.152 HD
BRANCH  30  32
ATOM     32  C   LIG    1      -39.054  69.429  22.788  0.00  0.00    +0.033 A 
ATOM     33  C   LIG    1      -37.962  68.812  22.155  0.00  0.00    +0.046 A 
ATOM     34  C   LIG    1      -38.133  68.026  21.008  0.00  0.00    +0.035 A 
ATOM     35  C   LIG    1      -39.413  67.888  20.471  0.00  0.00    +0.023 A 
ATOM     36  C   LIG    1      -40.508  68.484  21.096  0.00  0.00    +0.004 A 
ATOM     37  C   LIG    1      -40.332  69.237  22.256  0.00  0.00    +0.023 A 
BRANCH  34  38
ATOM     38  N   LIG    1      -36.986  67.399  20.470  0.00  0.00    -0.281 N 
ATOM     39  H   LIG    1      -36.473  66.801  21.103  0.00  0.00    +0.155 HD
ATOM     40  C   LIG    1      -36.656  67.341  19.126  0.00  0.00    +0.248 C 
ATOM     41  O   LIG    1      -37.300  67.821  18.199  0.00  0.00    -0.270 OA
BRANCH  40  42
ATOM     42  C   LIG    1      -35.435  66.557  18.790  0.00  0.00    +0.039 A 
ATOM     43  C   LIG    1      -35.336  65.186  19.030  0.00  0.00    +0.025 A 
ATOM     44  C   LIG    1      -34.151  64.511  18.710  0.00  0.00    +0.057 A 
ATOM     45  C   LIG    1      -33.072  65.236  18.167  0.00  0.00    +0.035 A 
ATOM     46  C   LIG    1      -33.119  66.625  17.960  0.00  0.00    +0.031 A 
ATOM     47  C   LIG    1      -34.337  67.255  18.256  0.00  0.00    +0.036 A 
BRANCH  46  48
ATOM     48  N   LIG    1      -32.021  67.361  17.461  0.00  0.00    -0.327 N 
ATOM     49  C   LIG    1      -32.270  68.824  17.344  0.00  0.00    +0.120 C 
ATOM     50  C   LIG    1      -31.062  69.589  16.757  0.00  0.00    +0.103 C 
ATOM     51  N   LIG    1      -29.751  69.304  17.387  0.00  0.00    -0.302 NA
ATOM     52  C   LIG    1      -29.675  69.855  18.737  0.00  0.00    +0.105 C 
ATOM     53  C   LIG    1      -29.550  67.846  17.371  0.00  0.00    +0.103 C 
ATOM     54  C   LIG    1      -30.687  67.022  18.009  0.00  0.00    +0.120 C 
ENDBRANCH  46  48
BRANCH  44  55
ATOM     55  C   LIG    1      -34.022  63.031  18.969  0.00  0.00    +0.417 C 
ATOM     56  F   LIG    1      -34.971  62.309  18.313  0.00  0.00    -0.166 F 
ATOM     57  F   LIG    1      -34.163  62.725  20.288  0.00  0.00    -0.166 F 
ATOM     58  F   LIG    1      -32.823  62.509  18.590  0.00  0.00    -0.166 F 
ENDBRANCH  44  55
ENDBRANCH  40  42
ENDBRANCH  34  38
ENDBRANCH  30  32
ENDBRANCH   6  30
TORSDOF 13
ENDMDL
MODEL 8
REMARK VINA RESULT:      -7.0      6.135     12.620
REMARK  Name = pdb/CHEMBL2037221.pdb
REMARK                            x       y       z     vdW  Elec       q    Type
REMARK                         _______ _______ _______ _____ _____    ______ ____
ROOT
ATOM      1  C   LIG    1      -40.260  77.266  24.184  0.00  0.00    +0.039 C 
ATOM      2  C   LIG    1      -39.455  76.245  24.521  0.00  0.00    +0.048 C 
ATOM      3  C   LIG    1      -39.820  74.840  24.284  0.00  0.00    +0.008 A 
ATOM      4  C   LIG    1      -40.938  74.230  23.748  0.00  0.00    +0.012 A 
ATOM      5  C   LIG    1      -40.912  72.841  23.587  0.00  0.00    +0.024 A 
ATOM      6  C   LIG    1      -39.786  72.074  23.960  0.00  0.00    +0.033 A 
ATOM      7  C   LIG    1      -38.686  72.703  24.555  0.00  0.00    +0.047 A 
ATOM      8  C   LIG    1      -38.726  74.074  24.688  0.00  0.00    +0.043 A 
ATOM      9  N   LIG    1      -37.720  74.884  25.192  0.00  0.00    -0.281 N 
ATOM     10  H   LIG    1      -36.828  74.580  25.551  0.00  0.00    +0.155 HD
ATOM     11  C   LIG    1      -38.070  76.225  25.139  0.00  0.00    +0.249 C 
ATOM     12  O   LIG    1      -37.365  77.133  25.527  0.00  0.00    -0.270 OA
ENDROOT
BRANCH   1  15
ATOM     13  C   LIG    1      -39.431  80.849  24.082  0.00  0.00    +0.055 A 
ATOM     14  C   LIG    1      -39.708  79.646  23.371  0.00  0.00    +0.040 A 
ATOM     15  C   LIG    1      -39.926  78.634  24.282  0.00  0.00    +0.041 A 
ATOM     16  N   LIG    1      -39.823  79.199  25.533  0.00  0.00    -0.360 N 
ATOM     17  H   LIG    1      -39.948  78.710  26.410  0.00  0.00    +0.165 HD
ATOM     18  C   LIG    1      -39.493  80.522  25.421  0.00  0.00    +0.096 A 
BRANCH  13  21
ATOM     19  N   LIG    1      -39.700  82.401  22.332  0.00  0.00    -0.310 N 
ATOM     20  H   LIG    1      -40.319  81.712  21.930  0.00  0.00    +0.149 HD
ATOM     21  C   LIG    1      -39.150  82.179  23.568  0.00  0.00    +0.246 C 
ATOM     22  O   LIG    1      -38.522  83.033  24.177  0.00  0.00    -0.270 OA
BRANCH  19  23
ATOM     23  C   LIG    1      -39.554  83.669  21.669  0.00  0.00    +0.120 C 
BRANCH  23  24
ATOM     24  C   LIG    1      -40.869  84.466  21.626  0.00  0.00    +0.103 C 
BRANCH  24  25
ATOM     25  N   LIG    1      -41.319  84.844  20.274  0.00  0.00    -0.301 NA
BRANCH  25  27
ATOM     26  C   LIG    1      -42.945  83.111  19.363  0.00  0.00    +0.020 C 
ATOM     27  C   LIG    1      -42.718  84.488  19.980  0.00  0.00    +0.081 C 
ENDBRANCH  25  27
BRANCH  25  28
ATOM     28  C   LIG    1      -41.054  86.276  20.035  0.00  0.00    +0.081 C 
ATOM     29  C   LIG    1      -40.872  86.690  18.580  0.00  0.00    +0.020 C 
ENDBRANCH  25  28
ENDBRANCH  24  25
ENDBRANCH  23  24
ENDBRANCH  19  23
ENDBRANCH  13  21
ENDBRANCH   1  15
BRANCH   6  30
ATOM     30  N   LIG    1      -39.734  70.683  23.754  0.00  0.00    -0.314 N 
ATOM     31  H   LIG    1      -40.578  70.337  23.306  0.00  0.00    +0.152 HD
BRANCH  30  32
ATOM     32  C   LIG    1      -38.603  69.867  23.555  0.00  0.00    +0.033 A 
ATOM     33  C   LIG    1      -37.728  69.543  24.605  0.00  0.00    +0.046 A 
ATOM     34  C   LIG    1      -36.634  68.693  24.407  0.00  0.00    +0.035 A 
ATOM     35  C   LIG    1      -36.394  68.190  23.129  0.00  0.00    +0.023 A 
ATOM     36  C   LIG    1      -37.261  68.493  22.078  0.00  0.00    +0.004 A 
ATOM     37  C   LIG    1      -38.367  69.313  22.294  0.00  0.00    +0.023 A 
BRANCH  34  38
ATOM     38  N   LIG    1      -35.839  68.378  25.533  0.00  0.00    -0.281 N 
ATOM     39  H   LIG    1      -36.144  67.582  26.078  0.00  0.00    +0.155 HD
ATOM     40  C   LIG    1      -34.583  68.895  25.803  0.00  0.00    +0.248 C 
ATOM     41  O   LIG    1      -33.967  69.703  25.115  0.00  0.00    -0.270 OA
BRANCH  40  42
ATOM     42  C   LIG    1      -33.904  68.355  27.014  0.00  0.00    +0.039 A 
ATOM     43  C   LIG    1      -33.821  66.987  27.278  0.00  0.00    +0.025 A 
ATOM     44  C   LIG    1      -33.186  66.545  28.445  0.00  0.00    +0.057 A 
ATOM     45  C   LIG    1      -32.659  67.494  29.343  0.00  0.00    +0.035 A 
ATOM     46  C   LIG    1      -32.770  68.879  29.134  0.00  0.00    +0.031 A 
ATOM     47  C   LIG    1      -33.377  69.278  27.934  0.00  0.00    +0.036 A 
BRANCH  46  48
ATOM     48  N   LIG    1      -32.285  69.832  30.058  0.00  0.00    -0.327 N 
ATOM     49  C   LIG    1      -30.840  70.154  29.899  0.00  0.00    +0.120 C 
ATOM     50  C   LIG    1      -30.337  71.169  30.951  0.00  0.00    +0.103 C 
ATOM     51  N   LIG    1      -31.158  72.392  31.110  0.00  0.00    -0.302 NA
ATOM     52  C   LIG    1      -31.045  73.268  29.947  0.00  0.00    +0.105 C 
ATOM     53  C   LIG    1      -32.548  71.974  31.357  0.00  0.00    +0.103 C 
ATOM     54  C   LIG    1      -33.140  71.017  30.303  0.00  0.00    +0.120 C 
ENDBRANCH  46  48
BRANCH  44  55
ATOM     55  C   LIG    1      -33.092  65.071  28.752  0.00  0.00    +0.417 C 
ATOM     56  F   LIG    1      -31.807  64.667  28.948  0.00  0.00    -0.166 F 
ATOM     57  F   LIG    1      -33.575  64.303  27.736  0.00  0.00    -0.166 F 
ATOM     58  F   LIG    1      -33.779  64.696  29.864  0.00  0.00    -0.166 F 
ENDBRANCH  44  55
ENDBRANCH  40  42
ENDBRANCH  34  38
ENDBRANCH  30  32
ENDBRANCH   6  30
TORSDOF 13
ENDMDL
MODEL 9
REMARK VINA RESULT:      -6.8      6.983     11.431
REMARK  Name = pdb/CHEMBL2037221.pdb
REMARK                            x       y       z     vdW  Elec       q    Type
REMARK                         _______ _______ _______ _____ _____    ______ ____
ROOT
ATOM      1  C   LIG    1      -30.519  74.165  31.352  0.00  0.00    +0.039 C 
ATOM      2  C   LIG    1      -31.435  74.283  30.377  0.00  0.00    +0.048 C 
ATOM      3  C   LIG    1      -32.420  73.229  30.086  0.00  0.00    +0.008 A 
ATOM      4  C   LIG    1      -32.655  71.979  30.625  0.00  0.00    +0.012 A 
ATOM      5  C   LIG    1      -33.759  71.261  30.156  0.00  0.00    +0.024 A 
ATOM      6  C   LIG    1      -34.613  71.785  29.160  0.00  0.00    +0.033 A 
ATOM      7  C   LIG    1      -34.325  73.028  28.585  0.00  0.00    +0.047 A 
ATOM      8  C   LIG    1      -33.243  73.726  29.074  0.00  0.00    +0.043 A 
ATOM      9  N   LIG    1      -32.830  74.990  28.684  0.00  0.00    -0.281 N 
ATOM     10  H   LIG    1      -33.252  75.566  27.972  0.00  0.00    +0.155 HD
ATOM     11  C   LIG    1      -31.731  75.417  29.414  0.00  0.00    +0.249 C 
ATOM     12  O   LIG    1      -31.176  76.485  29.257  0.00  0.00    -0.270 OA
ENDROOT
BRANCH   1  15
ATOM     13  C   LIG    1      -27.917  76.603  32.254  0.00  0.00    +0.055 A 
ATOM     14  C   LIG    1      -28.250  75.321  31.729  0.00  0.00    +0.040 A 
ATOM     15  C   LIG    1      -29.621  75.177  31.754  0.00  0.00    +0.041 A 
ATOM     16  N   LIG    1      -30.135  76.354  32.250  0.00  0.00    -0.360 N 
ATOM     17  H   LIG    1      -31.117  76.560  32.373  0.00  0.00    +0.165 HD
ATOM     18  C   LIG    1      -29.115  77.203  32.583  0.00  0.00    +0.096 A 
BRANCH  13  21
ATOM     19  N   LIG    1      -25.885  77.255  31.260  0.00  0.00    -0.310 N 
ATOM     20  H   LIG    1      -26.316  76.971  30.392  0.00  0.00    +0.149 HD
ATOM     21  C   LIG    1      -26.611  77.219  32.422  0.00  0.00    +0.246 C 
ATOM     22  O   LIG    1      -26.203  77.693  33.473  0.00  0.00    -0.270 OA
BRANCH  19  23
ATOM     23  C   LIG    1      -24.576  77.851  31.218  0.00  0.00    +0.120 C 
BRANCH  23  24
ATOM     24  C   LIG    1      -23.804  77.485  29.938  0.00  0.00    +0.103 C 
BRANCH  24  25
ATOM     25  N   LIG    1      -22.867  76.356  30.084  0.00  0.00    -0.301 NA
BRANCH  25  27
ATOM     26  C   LIG    1      -20.398  76.949  29.919  0.00  0.00    +0.020 C 
ATOM     27  C   LIG    1      -21.668  76.452  29.233  0.00  0.00    +0.081 C 
ENDBRANCH  25  27
BRANCH  25  28
ATOM     28  C   LIG    1      -22.519  76.169  31.506  0.00  0.00    +0.081 C 
ATOM     29  C   LIG    1      -22.616  74.744  32.037  0.00  0.00    +0.020 C 
ENDBRANCH  25  28
ENDBRANCH  24  25
ENDBRANCH  23  24
ENDBRANCH  19  23
ENDBRANCH  13  21
ENDBRANCH   1  15
BRANCH   6  30
ATOM     30  N   LIG    1      -35.755  71.089  28.720  0.00  0.00    -0.314 N 
ATOM     31  H   LIG    1      -36.519  71.162  29.384  0.00  0.00    +0.152 HD
BRANCH  30  32
ATOM     32  C   LIG    1      -36.166  70.826  27.398  0.00  0.00    +0.033 A 
ATOM     33  C   LIG    1      -37.213  71.540  26.791  0.00  0.00    +0.046 A 
ATOM     34  C   LIG    1      -37.581  71.304  25.461  0.00  0.00    +0.035 A 
ATOM     35  C   LIG    1      -36.912  70.314  24.742  0.00  0.00    +0.023 A 
ATOM     36  C   LIG    1      -35.863  69.605  25.327  0.00  0.00    +0.004 A 
ATOM     37  C   LIG    1      -35.482  69.871  26.641  0.00  0.00    +0.023 A 
BRANCH  34  38
ATOM     38  N   LIG    1      -38.609  72.107  24.916  0.00  0.00    -0.281 N 
ATOM     39  H   LIG    1      -39.512  71.662  24.822  0.00  0.00    +0.155 HD
ATOM     40  C   LIG    1      -38.550  73.479  24.735  0.00  0.00    +0.248 C 
ATOM     41  O   LIG    1      -37.604  74.208  25.017  0.00  0.00    -0.270 OA
BRANCH  40  42
ATOM     42  C   LIG    1      -39.789  74.120  24.212  0.00  0.00    +0.039 A 
ATOM     43  C   LIG    1      -40.849  73.380  23.685  0.00  0.00    +0.025 A 
ATOM     44  C   LIG    1      -41.978  74.046  23.191  0.00  0.00    +0.057 A 
ATOM     45  C   LIG    1      -42.014  75.453  23.218  0.00  0.00    +0.035 A 
ATOM     46  C   LIG    1      -40.945  76.230  23.695  0.00  0.00    +0.031 A 
ATOM     47  C   LIG    1      -39.850  75.524  24.218  0.00  0.00    +0.036 A 
BRANCH  46  48
ATOM     48  N   LIG    1      -40.959  77.643  23.678  0.00  0.00    -0.327 N 
ATOM     49  C   LIG    1      -42.285  78.242  23.996  0.00  0.00    +0.120 C 
ATOM     50  C   LIG    1      -42.271  79.787  23.928  0.00  0.00    +0.103 C 
ATOM     51  N   LIG    1      -41.175  80.455  24.668  0.00  0.00    -0.302 NA
ATOM     52  C   LIG    1      -41.356  80.339  26.113  0.00  0.00    +0.105 C 
ATOM     53  C   LIG    1      -39.903  79.865  24.220  0.00  0.00    +0.103 C 
ATOM     54  C   LIG    1      -39.819  78.329  24.330  0.00  0.00    +0.120 C 
ENDBRANCH  46  48
BRANCH  44  55
ATOM     55  C   LIG    1      -43.130  73.264  22.610  0.00  0.00    +0.417 C 
ATOM     56  F   LIG    1      -44.192  74.061  22.308  0.00  0.00    -0.166 F 
ATOM     57  F   LIG    1      -43.602  72.324  23.474  0.00  0.00    -0.166 F 
ATOM     58  F   LIG    1      -42.821  72.598  21.464  0.00  0.00    -0.166 F 
ENDBRANCH  44  55
ENDBRANCH  40  42
ENDBRANCH  34  38
ENDBRANCH  30  32
ENDBRANCH   6  30
TORSDOF 13
ENDMDL
