MODEL 1
REMARK VINA RESULT:      -5.7      0.000      0.000
REMARK  Name = pdb/CHEMBL3950417.pdb
REMARK                            x       y       z     vdW  Elec       q    Type
REMARK                         _______ _______ _______ _____ _____    ______ ____
ROOT
ATOM      1  C   LIG    1      -24.179  76.913  30.442  0.00  0.00    +0.141 C 
ATOM      2  C   LIG    1      -24.875  75.809  30.930  0.00  0.00    +0.350 C 
ATOM      3  N   LIG    1      -24.673  74.447  30.896  0.00  0.00    -0.041 NA
ATOM      4  C   LIG    1      -25.606  73.652  31.394  0.00  0.00    +0.313 C 
ATOM      5  C   LIG    1      -26.828  74.222  32.085  0.00  0.00    +0.115 C 
ATOM      6  C   LIG    1      -26.970  75.533  32.107  0.00  0.00    +0.106 C 
ATOM      7  N   LIG    1      -26.034  76.352  31.499  0.00  0.00    -0.181 N 
ATOM      8  N   LIG    1      -26.135  77.688  31.324  0.00  0.00    -0.151 NA
ATOM      9  C   LIG    1      -25.086  77.980  30.560  0.00  0.00    +0.146 C 
ENDROOT
BRANCH   4  10
ATOM     10  N   LIG    1      -25.479  72.266  31.319  0.00  0.00    -0.214 N 
ATOM     11  C   LIG    1      -24.235  71.550  31.660  0.00  0.00    +0.201 C 
ATOM     12  C   LIG    1      -24.694  70.678  32.832  0.00  0.00    +0.056 C 
ATOM     13  C   LIG    1      -26.100  70.253  32.448  0.00  0.00    +0.048 C 
ATOM     14  C   LIG    1      -26.623  71.372  31.545  0.00  0.00    +0.226 C 
BRANCH  11  15
ATOM     15  C   LIG    1      -23.665  70.781  30.476  0.00  0.00    +0.033 A 
ATOM     16  C   LIG    1      -22.527  69.976  30.644  0.00  0.00    +0.131 A 
ATOM     17  F   LIG    1      -21.948  69.878  31.849  0.00  0.00    -0.205 F 
ATOM     18  C   LIG    1      -21.963  69.262  29.584  0.00  0.00    +0.041 A 
ATOM     19  C   LIG    1      -22.529  69.347  28.315  0.00  0.00    +0.041 A 
ATOM     20  C   LIG    1      -23.647  70.148  28.127  0.00  0.00    +0.124 A 
ATOM     21  F   LIG    1      -24.203  70.226  26.911  0.00  0.00    -0.205 F 
ATOM     22  C   LIG    1      -24.206  70.868  29.182  0.00  0.00    +0.048 A 
ENDBRANCH  11  15
ENDBRANCH   4  10
BRANCH   1  24
ATOM     23  C   LIG    1      -21.816  76.987  30.151  0.00  0.00    +0.196 C 
ATOM     24  N   LIG    1      -23.019  76.896  29.671  0.00  0.00    -0.213 NA
BRANCH  23  26
ATOM     25  C   LIG    1      -22.055  77.967  32.504  0.00  0.00    +0.023 C 
ATOM     26  C   LIG    1      -21.204  77.065  31.592  0.00  0.00    +0.064 C 
ATOM     27  C   LIG    1      -19.770  77.597  31.633  0.00  0.00    +0.023 C 
BRANCH  26  28
ATOM     28  C   LIG    1      -21.134  75.658  32.261  0.00  0.00    +0.171 C 
BRANCH  28  29
ATOM     29  O   LIG    1      -21.613  74.639  31.381  0.00  0.00    -0.394 OA
ATOM     30  H   LIG    1      -22.173  74.042  31.916  0.00  0.00    +0.209 HD
ENDBRANCH  28  29
ENDBRANCH  26  28
ENDBRANCH  23  26
BRANCH  23  31
ATOM     31  O   LIG    1      -20.865  76.976  29.178  0.00  0.00    -0.495 OA
ATOM     32  H   LIG    1      -20.415  77.836  29.057  0.00  0.00    +0.293 HD
ENDBRANCH  23  31
ENDBRANCH   1  24
TORSDOF 7
ENDMDL
MODEL 2
REMARK VINA RESULT:      -5.6     18.097     20.358
REMARK  Name = pdb/CHEMBL3950417.pdb
REMARK                            x       y       z     vdW  Elec       q    Type
REMARK                         _______ _______ _______ _____ _____    ______ ____
ROOT
ATOM      1  C   LIG    1      -19.167  86.297  13.232  0.00  0.00    +0.141 C 
ATOM      2  C   LIG    1      -19.652  85.002  13.398  0.00  0.00    +0.350 C 
ATOM      3  N   LIG    1      -20.709  84.445  14.085  0.00  0.00    -0.041 NA
ATOM      4  C   LIG    1      -20.834  83.128  14.105  0.00  0.00    +0.313 C 
ATOM      5  C   LIG    1      -19.898  82.245  13.305  0.00  0.00    +0.115 C 
ATOM      6  C   LIG    1      -18.912  82.824  12.649  0.00  0.00    +0.106 C 
ATOM      7  N   LIG    1      -18.735  84.195  12.712  0.00  0.00    -0.181 N 
ATOM      8  N   LIG    1      -17.689  84.890  12.212  0.00  0.00    -0.151 NA
ATOM      9  C   LIG    1      -17.894  86.125  12.663  0.00  0.00    +0.146 C 
ENDROOT
BRANCH   4  10
ATOM     10  N   LIG    1      -21.844  82.517  14.845  0.00  0.00    -0.214 N 
ATOM     11  C   LIG    1      -21.984  81.053  14.964  0.00  0.00    +0.201 C 
ATOM     12  C   LIG    1      -21.808  80.849  16.471  0.00  0.00    +0.056 C 
ATOM     13  C   LIG    1      -22.512  82.043  17.091  0.00  0.00    +0.048 C 
ATOM     14  C   LIG    1      -22.418  83.151  16.040  0.00  0.00    +0.226 C 
BRANCH  11  15
ATOM     15  C   LIG    1      -23.306  80.549  14.401  0.00  0.00    +0.033 A 
ATOM     16  C   LIG    1      -23.583  80.682  13.032  0.00  0.00    +0.131 A 
ATOM     17  F   LIG    1      -22.678  81.244  12.218  0.00  0.00    -0.205 F 
ATOM     18  C   LIG    1      -24.787  80.244  12.474  0.00  0.00    +0.041 A 
ATOM     19  C   LIG    1      -25.755  79.664  13.289  0.00  0.00    +0.041 A 
ATOM     20  C   LIG    1      -25.504  79.537  14.649  0.00  0.00    +0.124 A 
ATOM     21  F   LIG    1      -26.428  78.971  15.437  0.00  0.00    -0.205 F 
ATOM     22  C   LIG    1      -24.307  79.981  15.208  0.00  0.00    +0.048 A 
ENDBRANCH  11  15
ENDBRANCH   4  10
BRANCH   1  24
ATOM     23  C   LIG    1      -20.686  88.123  13.414  0.00  0.00    +0.196 C 
ATOM     24  N   LIG    1      -19.654  87.455  13.833  0.00  0.00    -0.213 NA
BRANCH  23  26
ATOM     25  C   LIG    1      -21.072  87.405  10.987  0.00  0.00    +0.023 C 
ATOM     26  C   LIG    1      -21.741  87.925  12.272  0.00  0.00    +0.064 C 
ATOM     27  C   LIG    1      -22.508  89.197  11.905  0.00  0.00    +0.023 C 
BRANCH  26  28
ATOM     28  C   LIG    1      -22.838  86.893  12.678  0.00  0.00    +0.171 C 
BRANCH  28  29
ATOM     29  O   LIG    1      -22.791  86.608  14.078  0.00  0.00    -0.394 OA
ATOM     30  H   LIG    1      -23.631  86.928  14.462  0.00  0.00    +0.209 HD
ENDBRANCH  28  29
ENDBRANCH  26  28
ENDBRANCH  23  26
BRANCH  23  31
ATOM     31  O   LIG    1      -20.928  89.232  14.165  0.00  0.00    -0.495 OA
ATOM     32  H   LIG    1      -21.816  89.245  14.574  0.00  0.00    +0.293 HD
ENDBRANCH  23  31
ENDBRANCH   1  24
TORSDOF 7
ENDMDL
MODEL 3
REMARK VINA RESULT:      -5.5      4.626      9.008
REMARK  Name = pdb/CHEMBL3950417.pdb
REMARK                            x       y       z     vdW  Elec       q    Type
REMARK                         _______ _______ _______ _____ _____    ______ ____
ROOT
ATOM      1  C   LIG    1      -23.721  77.412  30.852  0.00  0.00    +0.141 C 
ATOM      2  C   LIG    1      -22.411  77.573  31.295  0.00  0.00    +0.350 C 
ATOM      3  N   LIG    1      -21.832  78.034  32.458  0.00  0.00    -0.041 NA
ATOM      4  C   LIG    1      -20.515  78.143  32.515  0.00  0.00    +0.313 C 
ATOM      5  C   LIG    1      -19.644  77.672  31.368  0.00  0.00    +0.115 C 
ATOM      6  C   LIG    1      -20.242  77.223  30.282  0.00  0.00    +0.106 C 
ATOM      7  N   LIG    1      -21.624  77.202  30.198  0.00  0.00    -0.181 N 
ATOM      8  N   LIG    1      -22.353  76.907  29.099  0.00  0.00    -0.151 NA
ATOM      9  C   LIG    1      -23.600  77.182  29.471  0.00  0.00    +0.146 C 
ENDROOT
BRANCH   4  10
ATOM     10  N   LIG    1      -19.889  78.671  33.643  0.00  0.00    -0.214 N 
ATOM     11  C   LIG    1      -20.430  78.524  35.008  0.00  0.00    +0.201 C 
ATOM     12  C   LIG    1      -19.312  77.738  35.698  0.00  0.00    +0.056 C 
ATOM     13  C   LIG    1      -18.036  78.315  35.111  0.00  0.00    +0.048 C 
ATOM     14  C   LIG    1      -18.429  78.816  33.720  0.00  0.00    +0.226 C 
BRANCH  11  15
ATOM     15  C   LIG    1      -20.757  79.866  35.649  0.00  0.00    +0.033 A 
ATOM     16  C   LIG    1      -21.914  80.564  35.268  0.00  0.00    +0.131 A 
ATOM     17  F   LIG    1      -22.736  80.043  34.346  0.00  0.00    -0.205 F 
ATOM     18  C   LIG    1      -22.247  81.803  35.822  0.00  0.00    +0.041 A 
ATOM     19  C   LIG    1      -21.413  82.380  36.775  0.00  0.00    +0.041 A 
ATOM     20  C   LIG    1      -20.257  81.711  37.155  0.00  0.00    +0.124 A 
ATOM     21  F   LIG    1      -19.456  82.257  38.079  0.00  0.00    -0.205 F 
ATOM     22  C   LIG    1      -19.919  80.479  36.597  0.00  0.00    +0.048 A 
ENDBRANCH  11  15
ENDBRANCH   4  10
BRANCH   1  24
ATOM     23  C   LIG    1      -25.569  76.973  32.290  0.00  0.00    +0.196 C 
ATOM     24  N   LIG    1      -24.883  77.772  31.531  0.00  0.00    -0.213 NA
BRANCH  23  26
ATOM     25  C   LIG    1      -25.129  74.548  31.597  0.00  0.00    +0.023 C 
ATOM     26  C   LIG    1      -25.395  75.495  32.781  0.00  0.00    +0.064 C 
ATOM     27  C   LIG    1      -26.602  74.944  33.542  0.00  0.00    +0.023 C 
BRANCH  26  28
ATOM     28  C   LIG    1      -24.196  75.357  33.768  0.00  0.00    +0.171 C 
BRANCH  28  29
ATOM     29  O   LIG    1      -23.843  76.619  34.337  0.00  0.00    -0.394 OA
ATOM     30  H   LIG    1      -22.938  76.526  34.696  0.00  0.00    +0.209 HD
ENDBRANCH  28  29
ENDBRANCH  26  28
ENDBRANCH  23  26
BRANCH  23  31
ATOM     31  O   LIG    1      -26.677  77.570  32.808  0.00  0.00    -0.495 OA
ATOM     32  H   LIG    1      -27.337  76.939  33.158  0.00  0.00    +0.293 HD
ENDBRANCH  23  31
ENDBRANCH   1  24
TORSDOF 7
ENDMDL
MODEL 4
REMARK VINA RESULT:      -5.5      5.043      8.509
REMARK  Name = pdb/CHEMBL3950417.pdb
REMARK                            x       y       z     vdW  Elec       q    Type
REMARK                         _______ _______ _______ _____ _____    ______ ____
ROOT
ATOM      1  C   LIG    1      -26.722  76.786  32.261  0.00  0.00    +0.141 C 
ATOM      2  C   LIG    1      -26.530  76.964  33.629  0.00  0.00    +0.350 C 
ATOM      3  N   LIG    1      -26.016  77.976  34.410  0.00  0.00    -0.041 NA
ATOM      4  C   LIG    1      -25.892  77.777  35.712  0.00  0.00    +0.313 C 
ATOM      5  C   LIG    1      -26.398  76.503  36.356  0.00  0.00    +0.115 C 
ATOM      6  C   LIG    1      -26.897  75.569  35.570  0.00  0.00    +0.106 C 
ATOM      7  N   LIG    1      -26.936  75.751  34.199  0.00  0.00    -0.181 N 
ATOM      8  N   LIG    1      -27.283  74.823  33.279  0.00  0.00    -0.151 NA
ATOM      9  C   LIG    1      -27.005  75.417  32.121  0.00  0.00    +0.146 C 
ENDROOT
BRANCH   4  10
ATOM     10  N   LIG    1      -25.312  78.744  36.532  0.00  0.00    -0.214 N 
ATOM     11  C   LIG    1      -25.240  80.171  36.168  0.00  0.00    +0.201 C 
ATOM     12  C   LIG    1      -26.064  80.815  37.286  0.00  0.00    +0.056 C 
ATOM     13  C   LIG    1      -25.705  80.009  38.521  0.00  0.00    +0.048 C 
ATOM     14  C   LIG    1      -25.324  78.623  37.996  0.00  0.00    +0.226 C 
BRANCH  11  15
ATOM     15  C   LIG    1      -23.806  80.671  36.061  0.00  0.00    +0.033 A 
ATOM     16  C   LIG    1      -23.510  82.018  36.323  0.00  0.00    +0.131 A 
ATOM     17  F   LIG    1      -24.490  82.862  36.677  0.00  0.00    -0.205 F 
ATOM     18  C   LIG    1      -22.211  82.523  36.227  0.00  0.00    +0.041 A 
ATOM     19  C   LIG    1      -21.168  81.680  35.853  0.00  0.00    +0.041 A 
ATOM     20  C   LIG    1      -21.444  80.348  35.577  0.00  0.00    +0.124 A 
ATOM     21  F   LIG    1      -20.443  79.529  35.226  0.00  0.00    -0.205 F 
ATOM     22  C   LIG    1      -22.741  79.844  35.664  0.00  0.00    +0.048 A 
ENDBRANCH  11  15
ENDBRANCH   4  10
BRANCH   1  24
ATOM     23  C   LIG    1      -25.137  77.785  30.789  0.00  0.00    +0.196 C 
ATOM     24  N   LIG    1      -26.347  77.661  31.244  0.00  0.00    -0.213 NA
BRANCH  23  26
ATOM     25  C   LIG    1      -23.891  75.549  30.848  0.00  0.00    +0.023 C 
ATOM     26  C   LIG    1      -23.772  77.068  31.071  0.00  0.00    +0.064 C 
ATOM     27  C   LIG    1      -23.238  77.280  32.488  0.00  0.00    +0.023 C 
BRANCH  26  28
ATOM     28  C   LIG    1      -22.645  77.591  30.129  0.00  0.00    +0.171 C 
BRANCH  28  29
ATOM     29  O   LIG    1      -22.969  77.366  28.756  0.00  0.00    -0.394 OA
ATOM     30  H   LIG    1      -22.176  76.974  28.337  0.00  0.00    +0.209 HD
ENDBRANCH  28  29
ENDBRANCH  26  28
ENDBRANCH  23  26
BRANCH  23  31
ATOM     31  O   LIG    1      -25.041  78.732  29.817  0.00  0.00    -0.495 OA
ATOM     32  H   LIG    1      -24.202  79.234  29.838  0.00  0.00    +0.293 HD
ENDBRANCH  23  31
ENDBRANCH   1  24
TORSDOF 7
ENDMDL
MODEL 5
REMARK VINA RESULT:      -5.5     12.631     14.724
REMARK  Name = pdb/CHEMBL3950417.pdb
REMARK                            x       y       z     vdW  Elec       q    Type
REMARK                         _______ _______ _______ _____ _____    ______ ____
ROOT
ATOM      1  C   LIG    1      -35.392  79.151  28.141  0.00  0.00    +0.141 C 
ATOM      2  C   LIG    1      -36.633  78.686  27.711  0.00  0.00    +0.350 C 
ATOM      3  N   LIG    1      -37.061  77.908  26.658  0.00  0.00    -0.041 NA
ATOM      4  C   LIG    1      -38.361  77.728  26.485  0.00  0.00    +0.313 C 
ATOM      5  C   LIG    1      -39.361  78.277  27.481  0.00  0.00    +0.115 C 
ATOM      6  C   LIG    1      -38.903  79.002  28.483  0.00  0.00    +0.106 C 
ATOM      7  N   LIG    1      -37.549  79.262  28.600  0.00  0.00    -0.181 N 
ATOM      8  N   LIG    1      -36.970  80.103  29.486  0.00  0.00    -0.151 NA
ATOM      9  C   LIG    1      -35.698  80.135  29.097  0.00  0.00    +0.146 C 
ENDROOT
BRANCH   4  10
ATOM     10  N   LIG    1      -38.844  77.008  25.394  0.00  0.00    -0.214 N 
ATOM     11  C   LIG    1      -39.981  76.072  25.486  0.00  0.00    +0.201 C 
ATOM     12  C   LIG    1      -40.989  76.719  24.533  0.00  0.00    +0.056 C 
ATOM     13  C   LIG    1      -40.135  77.254  23.397  0.00  0.00    +0.048 C 
ATOM     14  C   LIG    1      -38.769  77.537  24.025  0.00  0.00    +0.226 C 
BRANCH  11  15
ATOM     15  C   LIG    1      -39.587  74.645  25.127  0.00  0.00    +0.033 A 
ATOM     16  C   LIG    1      -38.443  74.067  25.699  0.00  0.00    +0.131 A 
ATOM     17  F   LIG    1      -37.703  74.769  26.570  0.00  0.00    -0.205 F 
ATOM     18  C   LIG    1      -38.038  72.766  25.390  0.00  0.00    +0.041 A 
ATOM     19  C   LIG    1      -38.775  72.010  24.484  0.00  0.00    +0.041 A 
ATOM     20  C   LIG    1      -39.902  72.570  23.897  0.00  0.00    +0.124 A 
ATOM     21  F   LIG    1      -40.621  71.844  23.031  0.00  0.00    -0.205 F 
ATOM     22  C   LIG    1      -40.303  73.871  24.198  0.00  0.00    +0.048 A 
ENDBRANCH  11  15
ENDBRANCH   4  10
BRANCH   1  24
ATOM     23  C   LIG    1      -33.331  78.011  27.785  0.00  0.00    +0.196 C 
ATOM     24  N   LIG    1      -34.165  78.967  27.509  0.00  0.00    -0.213 NA
BRANCH  23  26
ATOM     25  C   LIG    1      -33.956  77.144  30.112  0.00  0.00    +0.023 C 
ATOM     26  C   LIG    1      -33.349  76.773  28.747  0.00  0.00    +0.064 C 
ATOM     27  C   LIG    1      -31.968  76.169  29.010  0.00  0.00    +0.023 C 
BRANCH  26  28
ATOM     28  C   LIG    1      -34.198  75.605  28.160  0.00  0.00    +0.171 C 
BRANCH  28  29
ATOM     29  O   LIG    1      -34.718  75.936  26.870  0.00  0.00    -0.394 OA
ATOM     30  H   LIG    1      -33.964  75.922  26.247  0.00  0.00    +0.209 HD
ENDBRANCH  28  29
ENDBRANCH  26  28
ENDBRANCH  23  26
BRANCH  23  31
ATOM     31  O   LIG    1      -32.194  78.081  27.041  0.00  0.00    -0.495 OA
ATOM     32  H   LIG    1      -31.716  78.929  27.132  0.00  0.00    +0.293 HD
ENDBRANCH  23  31
ENDBRANCH   1  24
TORSDOF 7
ENDMDL
MODEL 6
REMARK VINA RESULT:      -5.4     13.387     15.566
REMARK  Name = pdb/CHEMBL3950417.pdb
REMARK                            x       y       z     vdW  Elec       q    Type
REMARK                         _______ _______ _______ _____ _____    ______ ____
ROOT
ATOM      1  C   LIG    1      -36.359  79.156  28.425  0.00  0.00    +0.141 C 
ATOM      2  C   LIG    1      -37.416  78.413  27.905  0.00  0.00    +0.350 C 
ATOM      3  N   LIG    1      -37.731  77.921  26.657  0.00  0.00    -0.041 NA
ATOM      4  C   LIG    1      -38.895  77.315  26.486  0.00  0.00    +0.313 C 
ATOM      5  C   LIG    1      -39.824  77.069  27.657  0.00  0.00    +0.115 C 
ATOM      6  C   LIG    1      -39.473  77.544  28.835  0.00  0.00    +0.106 C 
ATOM      7  N   LIG    1      -38.297  78.259  28.984  0.00  0.00    -0.181 N 
ATOM      8  N   LIG    1      -37.896  78.918  30.093  0.00  0.00    -0.151 NA
ATOM      9  C   LIG    1      -36.809  79.570  29.690  0.00  0.00    +0.146 C 
ENDROOT
BRANCH   4  10
ATOM     10  N   LIG    1      -39.287  76.864  25.227  0.00  0.00    -0.214 N 
ATOM     11  C   LIG    1      -40.622  76.297  24.954  0.00  0.00    +0.201 C 
ATOM     12  C   LIG    1      -41.173  77.290  23.927  0.00  0.00    +0.056 C 
ATOM     13  C   LIG    1      -39.968  77.646  23.074  0.00  0.00    +0.048 C 
ATOM     14  C   LIG    1      -38.759  77.461  23.993  0.00  0.00    +0.226 C 
BRANCH  11  15
ATOM     15  C   LIG    1      -40.552  74.853  24.474  0.00  0.00    +0.033 A 
ATOM     16  C   LIG    1      -41.669  74.261  23.865  0.00  0.00    +0.131 A 
ATOM     17  F   LIG    1      -42.795  74.969  23.699  0.00  0.00    -0.205 F 
ATOM     18  C   LIG    1      -41.653  72.936  23.420  0.00  0.00    +0.041 A 
ATOM     19  C   LIG    1      -40.506  72.166  23.584  0.00  0.00    +0.041 A 
ATOM     20  C   LIG    1      -39.395  72.731  24.196  0.00  0.00    +0.124 A 
ATOM     21  F   LIG    1      -38.285  71.998  24.349  0.00  0.00    -0.205 F 
ATOM     22  C   LIG    1      -39.412  74.049  24.649  0.00  0.00    +0.048 A 
ENDBRANCH  11  15
ENDBRANCH   4  10
BRANCH   1  24
ATOM     23  C   LIG    1      -34.150  79.074  27.535  0.00  0.00    +0.196 C 
ATOM     24  N   LIG    1      -35.281  79.685  27.717  0.00  0.00    -0.213 NA
BRANCH  23  26
ATOM     25  C   LIG    1      -34.383  76.549  27.180  0.00  0.00    +0.023 C 
ATOM     26  C   LIG    1      -33.590  77.656  27.898  0.00  0.00    +0.064 C 
ATOM     27  C   LIG    1      -33.618  77.339  29.395  0.00  0.00    +0.023 C 
BRANCH  26  28
ATOM     28  C   LIG    1      -32.096  77.506  27.480  0.00  0.00    +0.171 C 
BRANCH  28  29
ATOM     29  O   LIG    1      -31.945  77.567  26.060  0.00  0.00    -0.394 OA
ATOM     30  H   LIG    1      -32.300  76.729  25.700  0.00  0.00    +0.209 HD
ENDBRANCH  28  29
ENDBRANCH  26  28
ENDBRANCH  23  26
BRANCH  23  31
ATOM     31  O   LIG    1      -33.259  79.827  26.836  0.00  0.00    -0.495 OA
ATOM     32  H   LIG    1      -33.234  79.621  25.880  0.00  0.00    +0.293 HD
ENDBRANCH  23  31
ENDBRANCH   1  24
TORSDOF 7
ENDMDL
MODEL 7
REMARK VINA RESULT:      -5.4      4.806      6.986
REMARK  Name = pdb/CHEMBL3950417.pdb
REMARK                            x       y       z     vdW  Elec       q    Type
REMARK                         _______ _______ _______ _____ _____    ______ ____
ROOT
ATOM      1  C   LIG    1      -24.030  81.232  36.235  0.00  0.00    +0.141 C 
ATOM      2  C   LIG    1      -24.330  80.125  35.445  0.00  0.00    +0.350 C 
ATOM      3  N   LIG    1      -23.759  79.549  34.331  0.00  0.00    -0.041 NA
ATOM      4  C   LIG    1      -24.371  78.524  33.759  0.00  0.00    +0.313 C 
ATOM      5  C   LIG    1      -25.620  77.924  34.369  0.00  0.00    +0.115 C 
ATOM      6  C   LIG    1      -26.121  78.500  35.444  0.00  0.00    +0.106 C 
ATOM      7  N   LIG    1      -25.525  79.628  35.980  0.00  0.00    -0.181 N 
ATOM      8  N   LIG    1      -26.016  80.393  36.981  0.00  0.00    -0.151 NA
ATOM      9  C   LIG    1      -25.181  81.428  37.017  0.00  0.00    +0.146 C 
ENDROOT
BRANCH   4  10
ATOM     10  N   LIG    1      -23.869  77.954  32.590  0.00  0.00    -0.214 N 
ATOM     11  C   LIG    1      -23.202  76.638  32.557  0.00  0.00    +0.201 C 
ATOM     12  C   LIG    1      -24.132  75.845  31.636  0.00  0.00    +0.056 C 
ATOM     13  C   LIG    1      -24.559  76.854  30.583  0.00  0.00    +0.048 C 
ATOM     14  C   LIG    1      -24.480  78.214  31.279  0.00  0.00    +0.226 C 
BRANCH  11  15
ATOM     15  C   LIG    1      -21.758  76.732  32.080  0.00  0.00    +0.033 A 
ATOM     16  C   LIG    1      -21.175  75.656  31.393  0.00  0.00    +0.131 A 
ATOM     17  F   LIG    1      -21.892  74.550  31.148  0.00  0.00    -0.205 F 
ATOM     18  C   LIG    1      -19.851  75.693  30.948  0.00  0.00    +0.041 A 
ATOM     19  C   LIG    1      -19.072  76.820  31.192  0.00  0.00    +0.041 A 
ATOM     20  C   LIG    1      -19.627  77.888  31.883  0.00  0.00    +0.124 A 
ATOM     21  F   LIG    1      -18.885  78.980  32.113  0.00  0.00    -0.205 F 
ATOM     22  C   LIG    1      -20.945  77.850  32.335  0.00  0.00    +0.048 A 
ENDBRANCH  11  15
ENDBRANCH   4  10
BRANCH   1  24
ATOM     23  C   LIG    1      -21.784  81.997  36.454  0.00  0.00    +0.196 C 
ATOM     24  N   LIG    1      -23.003  82.151  36.032  0.00  0.00    -0.213 NA
BRANCH  23  26
ATOM     25  C   LIG    1      -21.872  80.238  38.311  0.00  0.00    +0.023 C 
ATOM     26  C   LIG    1      -21.008  80.857  37.197  0.00  0.00    +0.064 C 
ATOM     27  C   LIG    1      -19.695  81.311  37.838  0.00  0.00    +0.023 C 
BRANCH  26  28
ATOM     28  C   LIG    1      -20.608  79.707  36.223  0.00  0.00    +0.171 C 
BRANCH  28  29
ATOM     29  O   LIG    1      -20.785  80.096  34.859  0.00  0.00    -0.394 OA
ATOM     30  H   LIG    1      -21.748  80.116  34.692  0.00  0.00    +0.209 HD
ENDBRANCH  28  29
ENDBRANCH  26  28
ENDBRANCH  23  26
BRANCH  23  31
ATOM     31  O   LIG    1      -20.990  83.058  36.147  0.00  0.00    -0.495 OA
ATOM     32  H   LIG    1      -20.165  83.097  36.671  0.00  0.00    +0.293 HD
ENDBRANCH  23  31
ENDBRANCH   1  24
TORSDOF 7
ENDMDL
MODEL 8
REMARK VINA RESULT:      -5.3      1.762      2.645
REMARK  Name = pdb/CHEMBL3950417.pdb
REMARK                            x       y       z     vdW  Elec       q    Type
REMARK                         _______ _______ _______ _____ _____    ______ ____
ROOT
ATOM      1  C   LIG    1      -26.215  75.701  32.284  0.00  0.00    +0.141 C 
ATOM      2  C   LIG    1      -26.218  74.316  32.426  0.00  0.00    +0.350 C 
ATOM      3  N   LIG    1      -26.076  73.255  31.558  0.00  0.00    -0.041 NA
ATOM      4  C   LIG    1      -26.226  72.025  32.024  0.00  0.00    +0.313 C 
ATOM      5  C   LIG    1      -26.446  71.775  33.502  0.00  0.00    +0.115 C 
ATOM      6  C   LIG    1      -26.558  72.821  34.296  0.00  0.00    +0.106 C 
ATOM      7  N   LIG    1      -26.493  74.104  33.783  0.00  0.00    -0.181 N 
ATOM      8  N   LIG    1      -26.738  75.249  34.458  0.00  0.00    -0.151 NA
ATOM      9  C   LIG    1      -26.711  76.181  33.509  0.00  0.00    +0.146 C 
ENDROOT
BRANCH   4  10
ATOM     10  N   LIG    1      -26.163  70.925  31.171  0.00  0.00    -0.214 N 
ATOM     11  C   LIG    1      -25.188  69.830  31.339  0.00  0.00    +0.201 C 
ATOM     12  C   LIG    1      -26.110  68.631  31.573  0.00  0.00    +0.056 C 
ATOM     13  C   LIG    1      -27.286  68.881  30.646  0.00  0.00    +0.048 C 
ATOM     14  C   LIG    1      -27.358  70.402  30.494  0.00  0.00    +0.226 C 
BRANCH  11  15
ATOM     15  C   LIG    1      -24.256  69.695  30.142  0.00  0.00    +0.033 A 
ATOM     16  C   LIG    1      -23.157  68.824  30.203  0.00  0.00    +0.131 A 
ATOM     17  F   LIG    1      -22.935  68.103  31.311  0.00  0.00    -0.205 F 
ATOM     18  C   LIG    1      -22.270  68.677  29.133  0.00  0.00    +0.041 A 
ATOM     19  C   LIG    1      -22.462  69.415  27.970  0.00  0.00    +0.041 A 
ATOM     20  C   LIG    1      -23.536  70.293  27.897  0.00  0.00    +0.124 A 
ATOM     21  F   LIG    1      -23.732  70.999  26.776  0.00  0.00    -0.205 F 
ATOM     22  C   LIG    1      -24.417  70.447  28.966  0.00  0.00    +0.048 A 
ENDBRANCH  11  15
ENDBRANCH   4  10
BRANCH   1  24
ATOM     23  C   LIG    1      -24.995  76.805  30.561  0.00  0.00    +0.196 C 
ATOM     24  N   LIG    1      -26.114  76.420  31.095  0.00  0.00    -0.213 NA
BRANCH  23  26
ATOM     25  C   LIG    1      -23.057  75.139  30.700  0.00  0.00    +0.023 C 
ATOM     26  C   LIG    1      -23.479  76.605  30.906  0.00  0.00    +0.064 C 
ATOM     27  C   LIG    1      -23.111  76.988  32.340  0.00  0.00    +0.023 C 
BRANCH  26  28
ATOM     28  C   LIG    1      -22.565  77.486  30.002  0.00  0.00    +0.171 C 
BRANCH  28  29
ATOM     29  O   LIG    1      -22.055  76.741  28.894  0.00  0.00    -0.394 OA
ATOM     30  H   LIG    1      -22.489  77.093  28.092  0.00  0.00    +0.209 HD
ENDBRANCH  28  29
ENDBRANCH  26  28
ENDBRANCH  23  26
BRANCH  23  31
ATOM     31  O   LIG    1      -25.182  77.518  29.417  0.00  0.00    -0.495 OA
ATOM     32  H   LIG    1      -25.944  77.213  28.884  0.00  0.00    +0.293 HD
ENDBRANCH  23  31
ENDBRANCH   1  24
TORSDOF 7
ENDMDL
MODEL 9
REMARK VINA RESULT:      -5.3     12.318     14.476
REMARK  Name = pdb/CHEMBL3950417.pdb
REMARK                            x       y       z     vdW  Elec       q    Type
REMARK                         _______ _______ _______ _____ _____    ______ ____
ROOT
ATOM      1  C   LIG    1      -35.202  76.141  29.482  0.00  0.00    +0.141 C 
ATOM      2  C   LIG    1      -35.979  75.144  28.897  0.00  0.00    +0.350 C 
ATOM      3  N   LIG    1      -36.908  75.114  27.879  0.00  0.00    -0.041 NA
ATOM      4  C   LIG    1      -37.545  73.981  27.630  0.00  0.00    +0.313 C 
ATOM      5  C   LIG    1      -37.191  72.710  28.375  0.00  0.00    +0.115 C 
ATOM      6  C   LIG    1      -36.285  72.784  29.329  0.00  0.00    +0.106 C 
ATOM      7  N   LIG    1      -35.693  73.995  29.644  0.00  0.00    -0.181 N 
ATOM      8  N   LIG    1      -34.866  74.233  30.687  0.00  0.00    -0.151 NA
ATOM      9  C   LIG    1      -34.704  75.553  30.657  0.00  0.00    +0.146 C 
ENDROOT
BRANCH   4  10
ATOM     10  N   LIG    1      -38.542  73.920  26.659  0.00  0.00    -0.214 N 
ATOM     11  C   LIG    1      -38.266  74.010  25.213  0.00  0.00    +0.201 C 
ATOM     12  C   LIG    1      -38.767  72.650  24.719  0.00  0.00    +0.056 C 
ATOM     13  C   LIG    1      -40.007  72.386  25.556  0.00  0.00    +0.048 C 
ATOM     14  C   LIG    1      -39.774  73.144  26.864  0.00  0.00    +0.226 C 
BRANCH  11  15
ATOM     15  C   LIG    1      -38.942  75.213  24.567  0.00  0.00    +0.033 A 
ATOM     16  C   LIG    1      -38.288  76.454  24.539  0.00  0.00    +0.131 A 
ATOM     17  F   LIG    1      -37.064  76.579  25.072  0.00  0.00    -0.205 F 
ATOM     18  C   LIG    1      -38.875  77.586  23.967  0.00  0.00    +0.041 A 
ATOM     19  C   LIG    1      -40.148  77.499  23.413  0.00  0.00    +0.041 A 
ATOM     20  C   LIG    1      -40.816  76.282  23.443  0.00  0.00    +0.124 A 
ATOM     21  F   LIG    1      -42.038  76.189  22.903  0.00  0.00    -0.205 F 
ATOM     22  C   LIG    1      -40.236  75.154  24.021  0.00  0.00    +0.048 A 
ENDBRANCH  11  15
ENDBRANCH   4  10
BRANCH   1  24
ATOM     23  C   LIG    1      -34.307  78.121  28.506  0.00  0.00    +0.196 C 
ATOM     24  N   LIG    1      -35.225  77.502  29.184  0.00  0.00    -0.213 NA
BRANCH  23  26
ATOM     25  C   LIG    1      -33.312  76.644  26.667  0.00  0.00    +0.023 C 
ATOM     26  C   LIG    1      -33.001  77.684  27.759  0.00  0.00    +0.064 C 
ATOM     27  C   LIG    1      -31.933  77.080  28.673  0.00  0.00    +0.023 C 
BRANCH  26  28
ATOM     28  C   LIG    1      -32.304  78.894  27.066  0.00  0.00    +0.171 C 
BRANCH  28  29
ATOM     29  O   LIG    1      -32.349  78.775  25.643  0.00  0.00    -0.394 OA
ATOM     30  H   LIG    1      -33.229  78.415  25.415  0.00  0.00    +0.209 HD
ENDBRANCH  28  29
ENDBRANCH  26  28
ENDBRANCH  23  26
BRANCH  23  31
ATOM     31  O   LIG    1      -34.559  79.453  28.385  0.00  0.00    -0.495 OA
ATOM     32  H   LIG    1      -33.758  80.011  28.438  0.00  0.00    +0.293 HD
ENDBRANCH  23  31
ENDBRANCH   1  24
TORSDOF 7
ENDMDL
