MODEL 1
REMARK VINA RESULT:      -6.3      0.000      0.000
REMARK  Name = pdb/CHEMBL3914679.pdb
REMARK                            x       y       z     vdW  Elec       q    Type
REMARK                         _______ _______ _______ _____ _____    ______ ____
ROOT
ATOM      1  C   LIG    1      -36.437  74.614  28.111  0.00  0.00    +0.105 A 
ATOM      2  C   LIG    1      -35.155  74.161  27.970  0.00  0.00    +0.145 A 
ATOM      3  N   LIG    1      -34.798  72.879  28.149  0.00  0.00    -0.201 NA
ATOM      4  C   LIG    1      -35.759  71.984  28.418  0.00  0.00    +0.323 A 
ATOM      5  N   LIG    1      -37.042  72.307  28.614  0.00  0.00    -0.201 NA
ATOM      6  C   LIG    1      -37.345  73.616  28.430  0.00  0.00    +0.145 A 
ENDROOT
BRANCH   1   8
ATOM      7  C   LIG    1      -36.955  76.371  26.651  0.00  0.00    +0.285 C 
ATOM      8  N   LIG    1      -36.730  75.956  27.828  0.00  0.00    -0.196 NA
BRANCH   7   9
ATOM      9  N   LIG    1      -37.112  75.692  25.469  0.00  0.00    -0.269 N 
ATOM     10  H   LIG    1      -36.382  75.833  24.786  0.00  0.00    +0.157 HD
BRANCH   9  12
ATOM     11  C   LIG    1      -39.421  75.567  24.568  0.00  0.00    +0.021 A 
ATOM     12  C   LIG    1      -38.225  74.942  25.024  0.00  0.00    +0.045 A 
ATOM     13  C   LIG    1      -38.097  73.532  24.932  0.00  0.00    +0.036 A 
ATOM     14  C   LIG    1      -39.080  72.723  24.356  0.00  0.00    +0.057 A 
ATOM     15  C   LIG    1      -40.223  73.341  23.864  0.00  0.00    +0.013 A 
ATOM     16  C   LIG    1      -40.382  74.730  23.969  0.00  0.00    +0.012 A 
BRANCH  11  19
ATOM     17  C   LIG    1      -40.825  77.259  26.937  0.00  0.00    +0.173 C 
ATOM     18  N   LIG    1      -40.301  77.736  25.675  0.00  0.00    -0.267 N 
ATOM     19  C   LIG    1      -39.671  77.042  24.641  0.00  0.00    +0.070 A 
ATOM     20  C   LIG    1      -39.379  78.049  23.724  0.00  0.00    +0.049 A 
ATOM     21  C   LIG    1      -39.840  79.253  24.277  0.00  0.00    +0.135 A 
ATOM     22  N   LIG    1      -40.414  79.062  25.456  0.00  0.00    -0.179 NA
ENDBRANCH  11  19
BRANCH  14  23
ATOM     23  C   LIG    1      -38.869  71.232  24.262  0.00  0.00    +0.417 C 
ATOM     24  F   LIG    1      -39.631  70.663  23.289  0.00  0.00    -0.166 F 
ATOM     25  F   LIG    1      -39.196  70.593  25.419  0.00  0.00    -0.166 F 
ATOM     26  F   LIG    1      -37.583  70.881  23.990  0.00  0.00    -0.166 F 
ENDBRANCH  14  23
ENDBRANCH   9  12
ENDBRANCH   7   9
BRANCH   7  27
ATOM     27  O   LIG    1      -37.159  77.699  26.514  0.00  0.00    -0.481 OA
ATOM     28  H   LIG    1      -38.069  77.936  26.733  0.00  0.00    +0.295 HD
ENDBRANCH   7  27
ENDBRANCH   1   8
BRANCH   4  29
ATOM     29  O   LIG    1      -35.460  70.622  28.475  0.00  0.00    -0.424 OA
BRANCH  29  30
ATOM     30  C   LIG    1      -35.588  69.851  27.339  0.00  0.00    +0.132 A 
ATOM     31  C   LIG    1      -36.725  69.138  26.979  0.00  0.00    +0.047 A 
ATOM     32  C   LIG    1      -36.756  68.341  25.845  0.00  0.00    +0.012 A 
ATOM     33  C   LIG    1      -35.713  68.335  24.919  0.00  0.00    -0.014 A 
ATOM     34  C   LIG    1      -34.578  69.102  25.257  0.00  0.00    +0.012 A 
ATOM     35  C   LIG    1      -34.503  69.826  26.461  0.00  0.00    +0.047 A 
BRANCH  33  36
ATOM     36  C   LIG    1      -35.830  67.565  23.653  0.00  0.00    +0.023 A 
ATOM     37  C   LIG    1      -35.420  66.214  23.508  0.00  0.00    +0.124 A 
ATOM     38  N   LIG    1      -35.500  65.523  22.352  0.00  0.00    -0.239 NA
ATOM     39  C   LIG    1      -36.033  66.154  21.286  0.00  0.00    +0.133 A 
ATOM     40  C   LIG    1      -36.485  67.458  21.316  0.00  0.00    +0.060 A 
ATOM     41 CL   LIG    1      -37.178  68.184  19.925  0.00  0.00    -0.082 Cl
ATOM     42  C   LIG    1      -36.371  68.170  22.504  0.00  0.00    +0.033 A 
BRANCH  37  43
ATOM     43  N   LIG    1      -34.875  65.461  24.545  0.00  0.00    -0.343 N 
ATOM     44  H   LIG    1      -34.008  65.013  24.266  0.00  0.00    +0.144 HD
ATOM     45  H   LIG    1      -34.754  66.076  25.344  0.00  0.00    +0.144 HD
ENDBRANCH  37  43
ENDBRANCH  33  36
ENDBRANCH  29  30
ENDBRANCH   4  29
TORSDOF 10
ENDMDL
MODEL 2
REMARK VINA RESULT:      -6.1     14.040     16.786
REMARK  Name = pdb/CHEMBL3914679.pdb
REMARK                            x       y       z     vdW  Elec       q    Type
REMARK                         _______ _______ _______ _____ _____    ______ ____
ROOT
ATOM      1  C   LIG    1      -25.769  77.065  33.443  0.00  0.00    +0.105 A 
ATOM      2  C   LIG    1      -26.015  76.936  32.104  0.00  0.00    +0.145 A 
ATOM      3  N   LIG    1      -26.336  75.770  31.518  0.00  0.00    -0.201 NA
ATOM      4  C   LIG    1      -26.484  74.688  32.296  0.00  0.00    +0.323 A 
ATOM      5  N   LIG    1      -26.238  74.679  33.611  0.00  0.00    -0.201 NA
ATOM      6  C   LIG    1      -25.909  75.880  34.149  0.00  0.00    +0.145 A 
ENDROOT
BRANCH   1   8
ATOM      7  C   LIG    1      -24.372  78.687  34.394  0.00  0.00    +0.285 C 
ATOM      8  N   LIG    1      -25.518  78.336  33.980  0.00  0.00    -0.196 NA
BRANCH   7   9
ATOM      9  N   LIG    1      -23.153  78.063  34.311  0.00  0.00    -0.269 N 
ATOM     10  H   LIG    1      -22.865  77.558  35.137  0.00  0.00    +0.157 HD
BRANCH   9  12
ATOM     11  C   LIG    1      -20.913  78.760  33.501  0.00  0.00    +0.021 A 
ATOM     12  C   LIG    1      -22.184  78.154  33.285  0.00  0.00    +0.045 A 
ATOM     13  C   LIG    1      -22.455  77.528  32.041  0.00  0.00    +0.036 A 
ATOM     14  C   LIG    1      -21.500  77.426  31.026  0.00  0.00    +0.057 A 
ATOM     15  C   LIG    1      -20.244  77.971  31.260  0.00  0.00    +0.013 A 
ATOM     16  C   LIG    1      -19.963  78.619  32.471  0.00  0.00    +0.012 A 
BRANCH  11  19
ATOM     17  C   LIG    1      -19.093  77.686  35.947  0.00  0.00    +0.173 C 
ATOM     18  N   LIG    1      -19.757  78.964  35.810  0.00  0.00    -0.267 N 
ATOM     19  C   LIG    1      -20.531  79.470  34.764  0.00  0.00    +0.070 A 
ATOM     20  C   LIG    1      -20.860  80.748  35.210  0.00  0.00    +0.049 A 
ATOM     21  C   LIG    1      -20.258  80.910  36.466  0.00  0.00    +0.135 A 
ATOM     22  N   LIG    1      -19.600  79.822  36.839  0.00  0.00    -0.179 NA
ENDBRANCH  11  19
BRANCH  14  23
ATOM     23  C   LIG    1      -21.843  76.720  29.738  0.00  0.00    +0.417 C 
ATOM     24  F   LIG    1      -22.167  75.413  29.934  0.00  0.00    -0.166 F 
ATOM     25  F   LIG    1      -20.803  76.722  28.859  0.00  0.00    -0.166 F 
ATOM     26  F   LIG    1      -22.894  77.275  29.076  0.00  0.00    -0.166 F 
ENDBRANCH  14  23
ENDBRANCH   9  12
ENDBRANCH   7   9
BRANCH   7  27
ATOM     27  O   LIG    1      -24.287  79.915  34.948  0.00  0.00    -0.481 OA
ATOM     28  H   LIG    1      -24.693  79.932  35.824  0.00  0.00    +0.295 HD
ENDBRANCH   7  27
ENDBRANCH   1   8
BRANCH   4  29
ATOM     29  O   LIG    1      -26.950  73.489  31.757  0.00  0.00    -0.424 OA
BRANCH  29  30
ATOM     30  C   LIG    1      -26.049  72.578  31.249  0.00  0.00    +0.132 A 
ATOM     31  C   LIG    1      -24.698  72.822  31.037  0.00  0.00    +0.047 A 
ATOM     32  C   LIG    1      -23.866  71.869  30.470  0.00  0.00    +0.012 A 
ATOM     33  C   LIG    1      -24.295  70.563  30.233  0.00  0.00    -0.014 A 
ATOM     34  C   LIG    1      -25.654  70.297  30.499  0.00  0.00    +0.012 A 
ATOM     35  C   LIG    1      -26.526  71.296  30.972  0.00  0.00    +0.047 A 
BRANCH  33  36
ATOM     36  C   LIG    1      -23.343  69.532  29.741  0.00  0.00    +0.023 A 
ATOM     37  C   LIG    1      -23.050  69.317  28.370  0.00  0.00    +0.124 A 
ATOM     38  N   LIG    1      -22.208  68.363  27.921  0.00  0.00    -0.239 NA
ATOM     39  C   LIG    1      -21.590  67.595  28.841  0.00  0.00    +0.133 A 
ATOM     40  C   LIG    1      -21.782  67.728  30.201  0.00  0.00    +0.060 A 
ATOM     41 CL   LIG    1      -20.938  66.732  31.313  0.00  0.00    -0.082 Cl
ATOM     42  C   LIG    1      -22.674  68.695  30.652  0.00  0.00    +0.033 A 
BRANCH  37  43
ATOM     43  N   LIG    1      -23.614  70.063  27.337  0.00  0.00    -0.343 N 
ATOM     44  H   LIG    1      -23.185  69.846  26.443  0.00  0.00    +0.144 HD
ATOM     45  H   LIG    1      -24.614  69.889  27.341  0.00  0.00    +0.144 HD
ENDBRANCH  37  43
ENDBRANCH  33  36
ENDBRANCH  29  30
ENDBRANCH   4  29
TORSDOF 10
ENDMDL
MODEL 3
REMARK VINA RESULT:      -6.1      2.199      3.135
REMARK  Name = pdb/CHEMBL3914679.pdb
REMARK                            x       y       z     vdW  Elec       q    Type
REMARK                         _______ _______ _______ _____ _____    ______ ____
ROOT
ATOM      1  C   LIG    1      -36.715  71.754  27.296  0.00  0.00    +0.105 A 
ATOM      2  C   LIG    1      -35.515  71.396  26.747  0.00  0.00    +0.145 A 
ATOM      3  N   LIG    1      -35.226  70.146  26.349  0.00  0.00    -0.201 NA
ATOM      4  C   LIG    1      -36.185  69.214  26.437  0.00  0.00    +0.323 A 
ATOM      5  N   LIG    1      -37.385  69.431  26.988  0.00  0.00    -0.201 NA
ATOM      6  C   LIG    1      -37.620  70.708  27.380  0.00  0.00    +0.145 A 
ENDROOT
BRANCH   1   8
ATOM      7  C   LIG    1      -37.264  73.960  26.730  0.00  0.00    +0.285 C 
ATOM      8  N   LIG    1      -36.957  73.100  27.610  0.00  0.00    -0.196 NA
BRANCH   7   9
ATOM      9  N   LIG    1      -37.566  73.821  25.400  0.00  0.00    -0.269 N 
ATOM     10  H   LIG    1      -36.834  74.087  24.758  0.00  0.00    +0.157 HD
BRANCH   9  12
ATOM     11  C   LIG    1      -39.749  74.503  24.436  0.00  0.00    +0.021 A 
ATOM     12  C   LIG    1      -38.808  73.499  24.806  0.00  0.00    +0.045 A 
ATOM     13  C   LIG    1      -39.069  72.144  24.477  0.00  0.00    +0.036 A 
ATOM     14  C   LIG    1      -40.194  71.750  23.747  0.00  0.00    +0.057 A 
ATOM     15  C   LIG    1      -41.083  72.737  23.341  0.00  0.00    +0.013 A 
ATOM     16  C   LIG    1      -40.859  74.079  23.679  0.00  0.00    +0.012 A 
BRANCH  11  19
ATOM     17  C   LIG    1      -40.956  76.167  26.930  0.00  0.00    +0.173 C 
ATOM     18  N   LIG    1      -40.142  76.646  25.835  0.00  0.00    -0.267 N 
ATOM     19  C   LIG    1      -39.587  75.957  24.755  0.00  0.00    +0.070 A 
ATOM     20  C   LIG    1      -38.895  76.955  24.072  0.00  0.00    +0.049 A 
ATOM     21  C   LIG    1      -39.078  78.145  24.790  0.00  0.00    +0.135 A 
ATOM     22  N   LIG    1      -39.848  77.963  25.853  0.00  0.00    -0.179 NA
ENDBRANCH  11  19
BRANCH  14  23
ATOM     23  C   LIG    1      -40.397  70.295  23.404  0.00  0.00    +0.417 C 
ATOM     24  F   LIG    1      -41.692  70.013  23.094  0.00  0.00    -0.166 F 
ATOM     25  F   LIG    1      -40.069  69.472  24.437  0.00  0.00    -0.166 F 
ATOM     26  F   LIG    1      -39.655  69.878  22.342  0.00  0.00    -0.166 F 
ENDBRANCH  14  23
ENDBRANCH   9  12
ENDBRANCH   7   9
BRANCH   7  27
ATOM     27  O   LIG    1      -37.404  75.232  27.162  0.00  0.00    -0.481 OA
ATOM     28  H   LIG    1      -38.331  75.443  27.331  0.00  0.00    +0.295 HD
ENDBRANCH   7  27
ENDBRANCH   1   8
BRANCH   4  29
ATOM     29  O   LIG    1      -35.981  67.938  25.910  0.00  0.00    -0.424 OA
BRANCH  29  30
ATOM     30  C   LIG    1      -36.059  67.746  24.548  0.00  0.00    +0.132 A 
ATOM     31  C   LIG    1      -34.970  67.589  23.698  0.00  0.00    +0.047 A 
ATOM     32  C   LIG    1      -35.130  67.455  22.328  0.00  0.00    +0.012 A 
ATOM     33  C   LIG    1      -36.388  67.307  21.743  0.00  0.00    -0.014 A 
ATOM     34  C   LIG    1      -37.493  67.413  22.612  0.00  0.00    +0.012 A 
ATOM     35  C   LIG    1      -37.334  67.658  23.989  0.00  0.00    +0.047 A 
BRANCH  33  36
ATOM     36  C   LIG    1      -36.517  67.041  20.286  0.00  0.00    +0.023 A 
ATOM     37  C   LIG    1      -37.238  67.873  19.391  0.00  0.00    +0.124 A 
ATOM     38  N   LIG    1      -37.380  67.618  18.074  0.00  0.00    -0.239 NA
ATOM     39  C   LIG    1      -36.769  66.520  17.584  0.00  0.00    +0.133 A 
ATOM     40  C   LIG    1      -36.025  65.651  18.356  0.00  0.00    +0.060 A 
ATOM     41 CL   LIG    1      -35.253  64.289  17.655  0.00  0.00    -0.082 Cl
ATOM     42  C   LIG    1      -35.909  65.908  19.716  0.00  0.00    +0.033 A 
BRANCH  37  43
ATOM     43  N   LIG    1      -37.891  69.040  19.784  0.00  0.00    -0.343 N 
ATOM     44  H   LIG    1      -38.683  69.244  19.183  0.00  0.00    +0.144 HD
ATOM     45  H   LIG    1      -38.158  68.933  20.757  0.00  0.00    +0.144 HD
ENDBRANCH  37  43
ENDBRANCH  33  36
ENDBRANCH  29  30
ENDBRANCH   4  29
TORSDOF 10
ENDMDL
MODEL 4
REMARK VINA RESULT:      -6.0     10.667     13.998
REMARK  Name = pdb/CHEMBL3914679.pdb
REMARK                            x       y       z     vdW  Elec       q    Type
REMARK                         _______ _______ _______ _____ _____    ______ ____
ROOT
ATOM      1  C   LIG    1      -28.776  75.369  32.303  0.00  0.00    +0.105 A 
ATOM      2  C   LIG    1      -27.483  74.980  32.095  0.00  0.00    +0.145 A 
ATOM      3  N   LIG    1      -26.536  75.789  31.591  0.00  0.00    -0.201 NA
ATOM      4  C   LIG    1      -26.861  77.065  31.338  0.00  0.00    +0.323 A 
ATOM      5  N   LIG    1      -28.099  77.557  31.468  0.00  0.00    -0.201 NA
ATOM      6  C   LIG    1      -29.016  76.694  31.971  0.00  0.00    +0.145 A 
ENDROOT
BRANCH   1   8
ATOM      7  C   LIG    1      -30.414  73.695  32.234  0.00  0.00    +0.285 C 
ATOM      8  N   LIG    1      -29.677  74.480  32.906  0.00  0.00    -0.196 NA
BRANCH   7   9
ATOM      9  N   LIG    1      -30.437  73.407  30.893  0.00  0.00    -0.269 N 
ATOM     10  H   LIG    1      -29.577  73.037  30.513  0.00  0.00    +0.157 HD
BRANCH   9  12
ATOM     11  C   LIG    1      -32.350  72.694  29.482  0.00  0.00    +0.021 A 
ATOM     12  C   LIG    1      -31.447  73.693  29.946  0.00  0.00    +0.045 A 
ATOM     13  C   LIG    1      -31.625  75.039  29.533  0.00  0.00    +0.036 A 
ATOM     14  C   LIG    1      -32.692  75.445  28.728  0.00  0.00    +0.057 A 
ATOM     15  C   LIG    1      -33.601  74.477  28.320  0.00  0.00    +0.013 A 
ATOM     16  C   LIG    1      -33.429  73.137  28.693  0.00  0.00    +0.012 A 
BRANCH  11  19
ATOM     17  C   LIG    1      -33.989  71.029  31.715  0.00  0.00    +0.173 C 
ATOM     18  N   LIG    1      -32.953  70.561  30.821  0.00  0.00    -0.267 N 
ATOM     19  C   LIG    1      -32.239  71.243  29.833  0.00  0.00    +0.070 A 
ATOM     20  C   LIG    1      -31.413  70.252  29.308  0.00  0.00    +0.049 A 
ATOM     21  C   LIG    1      -31.699  69.068  30.004  0.00  0.00    +0.135 A 
ATOM     22  N   LIG    1      -32.623  69.258  30.935  0.00  0.00    -0.179 NA
ENDBRANCH  11  19
BRANCH  14  23
ATOM     23  C   LIG    1      -32.841  76.897  28.350  0.00  0.00    +0.417 C 
ATOM     24  F   LIG    1      -33.191  77.058  27.045  0.00  0.00    -0.166 F 
ATOM     25  F   LIG    1      -31.683  77.594  28.518  0.00  0.00    -0.166 F 
ATOM     26  F   LIG    1      -33.784  77.555  29.078  0.00  0.00    -0.166 F 
ENDBRANCH  14  23
ENDBRANCH   9  12
ENDBRANCH   7   9
BRANCH   7  27
ATOM     27  O   LIG    1      -31.283  72.940  32.941  0.00  0.00    -0.481 OA
ATOM     28  H   LIG    1      -31.164  73.068  33.890  0.00  0.00    +0.295 HD
ENDBRANCH   7  27
ENDBRANCH   1   8
BRANCH   4  29
ATOM     29  O   LIG    1      -25.882  77.980  30.947  0.00  0.00    -0.424 OA
BRANCH  29  30
ATOM     30  C   LIG    1      -24.554  77.617  31.004  0.00  0.00    +0.132 A 
ATOM     31  C   LIG    1      -23.774  77.261  29.911  0.00  0.00    +0.047 A 
ATOM     32  C   LIG    1      -22.456  76.854  30.058  0.00  0.00    +0.012 A 
ATOM     33  C   LIG    1      -21.792  76.935  31.282  0.00  0.00    -0.014 A 
ATOM     34  C   LIG    1      -22.569  77.348  32.385  0.00  0.00    +0.012 A 
ATOM     35  C   LIG    1      -23.936  77.657  32.255  0.00  0.00    +0.047 A 
BRANCH  33  36
ATOM     36  C   LIG    1      -20.345  76.609  31.380  0.00  0.00    +0.023 A 
ATOM     37  C   LIG    1      -19.347  77.547  31.750  0.00  0.00    +0.124 A 
ATOM     38  N   LIG    1      -18.030  77.260  31.811  0.00  0.00    -0.239 NA
ATOM     39  C   LIG    1      -17.655  75.995  31.533  0.00  0.00    +0.133 A 
ATOM     40  C   LIG    1      -18.540  74.995  31.183  0.00  0.00    +0.060 A 
ATOM     41 CL   LIG    1      -17.991  73.400  30.871  0.00  0.00    -0.082 Cl
ATOM     42  C   LIG    1      -19.891  75.309  31.095  0.00  0.00    +0.033 A 
BRANCH  37  43
ATOM     43  N   LIG    1      -19.622  78.874  32.076  0.00  0.00    -0.343 N 
ATOM     44  H   LIG    1      -18.777  79.435  32.097  0.00  0.00    +0.144 HD
ATOM     45  H   LIG    1      -20.303  79.222  31.409  0.00  0.00    +0.144 HD
ENDBRANCH  37  43
ENDBRANCH  33  36
ENDBRANCH  29  30
ENDBRANCH   4  29
TORSDOF 10
ENDMDL
MODEL 5
REMARK VINA RESULT:      -6.0      4.209      6.998
REMARK  Name = pdb/CHEMBL3914679.pdb
REMARK                            x       y       z     vdW  Elec       q    Type
REMARK                         _______ _______ _______ _____ _____    ______ ____
ROOT
ATOM      1  C   LIG    1      -39.037  68.360  21.766  0.00  0.00    +0.105 A 
ATOM      2  C   LIG    1      -39.278  67.351  22.655  0.00  0.00    +0.145 A 
ATOM      3  N   LIG    1      -38.389  66.949  23.579  0.00  0.00    -0.201 NA
ATOM      4  C   LIG    1      -37.229  67.614  23.676  0.00  0.00    +0.323 A 
ATOM      5  N   LIG    1      -36.862  68.594  22.842  0.00  0.00    -0.201 NA
ATOM      6  C   LIG    1      -37.793  68.953  21.924  0.00  0.00    +0.145 A 
ENDROOT
BRANCH   1   8
ATOM      7  C   LIG    1      -41.060  69.433  21.273  0.00  0.00    +0.285 C 
ATOM      8  N   LIG    1      -40.053  68.765  20.888  0.00  0.00    -0.196 NA
BRANCH   7   9
ATOM      9  N   LIG    1      -41.346  70.020  22.479  0.00  0.00    -0.269 N 
ATOM     10  H   LIG    1      -41.961  69.493  23.084  0.00  0.00    +0.157 HD
BRANCH   9  12
ATOM     11  C   LIG    1      -41.923  72.412  22.797  0.00  0.00    +0.021 A 
ATOM     12  C   LIG    1      -41.019  71.320  22.928  0.00  0.00    +0.045 A 
ATOM     13  C   LIG    1      -39.795  71.508  23.622  0.00  0.00    +0.036 A 
ATOM     14  C   LIG    1      -39.458  72.714  24.240  0.00  0.00    +0.057 A 
ATOM     15  C   LIG    1      -40.367  73.763  24.156  0.00  0.00    +0.013 A 
ATOM     16  C   LIG    1      -41.568  73.608  23.451  0.00  0.00    +0.012 A 
BRANCH  11  19
ATOM     17  C   LIG    1      -44.709  71.096  23.774  0.00  0.00    +0.173 C 
ATOM     18  N   LIG    1      -44.407  71.736  22.512  0.00  0.00    -0.267 N 
ATOM     19  C   LIG    1      -43.227  72.332  22.064  0.00  0.00    +0.070 A 
ATOM     20  C   LIG    1      -43.572  72.785  20.792  0.00  0.00    +0.049 A 
ATOM     21  C   LIG    1      -44.915  72.440  20.585  0.00  0.00    +0.135 A 
ATOM     22  N   LIG    1      -45.420  71.789  21.622  0.00  0.00    -0.179 NA
ENDBRANCH  11  19
BRANCH  14  23
ATOM     23  C   LIG    1      -38.155  72.840  24.989  0.00  0.00    +0.417 C 
ATOM     24  F   LIG    1      -37.622  74.088  24.895  0.00  0.00    -0.166 F 
ATOM     25  F   LIG    1      -37.205  71.988  24.513  0.00  0.00    -0.166 F 
ATOM     26  F   LIG    1      -38.264  72.574  26.319  0.00  0.00    -0.166 F 
ENDBRANCH  14  23
ENDBRANCH   9  12
ENDBRANCH   7   9
BRANCH   7  27
ATOM     27  O   LIG    1      -41.995  69.698  20.335  0.00  0.00    -0.481 OA
ATOM     28  H   LIG    1      -42.054  68.983  19.689  0.00  0.00    +0.295 HD
ENDBRANCH   7  27
ENDBRANCH   1   8
BRANCH   4  29
ATOM     29  O   LIG    1      -36.333  67.326  24.706  0.00  0.00    -0.424 OA
BRANCH  29  30
ATOM     30  C   LIG    1      -35.869  68.348  25.506  0.00  0.00    +0.132 A 
ATOM     31  C   LIG    1      -36.651  69.113  26.362  0.00  0.00    +0.047 A 
ATOM     32  C   LIG    1      -36.117  70.162  27.094  0.00  0.00    +0.012 A 
ATOM     33  C   LIG    1      -34.744  70.406  27.140  0.00  0.00    -0.014 A 
ATOM     34  C   LIG    1      -33.941  69.594  26.312  0.00  0.00    +0.012 A 
ATOM     35  C   LIG    1      -34.496  68.600  25.485  0.00  0.00    +0.047 A 
BRANCH  33  36
ATOM     36  C   LIG    1      -34.193  71.460  28.032  0.00  0.00    +0.023 A 
ATOM     37  C   LIG    1      -33.627  71.199  29.307  0.00  0.00    +0.124 A 
ATOM     38  N   LIG    1      -33.152  72.158  30.129  0.00  0.00    -0.239 NA
ATOM     39  C   LIG    1      -33.193  73.432  29.689  0.00  0.00    +0.133 A 
ATOM     40  C   LIG    1      -33.701  73.800  28.459  0.00  0.00    +0.060 A 
ATOM     41 CL   LIG    1      -33.693  75.440  27.957  0.00  0.00    -0.082 Cl
ATOM     42  C   LIG    1      -34.214  72.808  27.633  0.00  0.00    +0.033 A 
BRANCH  37  43
ATOM     43  N   LIG    1      -33.516  69.922  29.852  0.00  0.00    -0.343 N 
ATOM     44  H   LIG    1      -33.803  69.906  30.826  0.00  0.00    +0.144 HD
ATOM     45  H   LIG    1      -34.063  69.291  29.276  0.00  0.00    +0.144 HD
ENDBRANCH  37  43
ENDBRANCH  33  36
ENDBRANCH  29  30
ENDBRANCH   4  29
TORSDOF 10
ENDMDL
MODEL 6
REMARK VINA RESULT:      -6.0      3.540      5.262
REMARK  Name = pdb/CHEMBL3914679.pdb
REMARK                            x       y       z     vdW  Elec       q    Type
REMARK                         _______ _______ _______ _____ _____    ______ ____
ROOT
ATOM      1  C   LIG    1      -43.504  72.161  23.513  0.00  0.00    +0.105 A 
ATOM      2  C   LIG    1      -43.001  71.096  24.207  0.00  0.00    +0.145 A 
ATOM      3  N   LIG    1      -42.688  69.920  23.637  0.00  0.00    -0.201 NA
ATOM      4  C   LIG    1      -42.817  69.805  22.307  0.00  0.00    +0.323 A 
ATOM      5  N   LIG    1      -43.330  70.762  21.525  0.00  0.00    -0.201 NA
ATOM      6  C   LIG    1      -43.637  71.923  22.153  0.00  0.00    +0.145 A 
ENDROOT
BRANCH   1   8
ATOM      7  C   LIG    1      -42.880  74.319  24.178  0.00  0.00    +0.285 C 
ATOM      8  N   LIG    1      -43.728  73.375  24.178  0.00  0.00    -0.196 NA
BRANCH   7   9
ATOM      9  N   LIG    1      -41.705  74.476  23.487  0.00  0.00    -0.269 N 
ATOM     10  H   LIG    1      -41.804  74.698  22.507  0.00  0.00    +0.157 HD
BRANCH   9  12
ATOM     11  C   LIG    1      -39.551  75.259  24.437  0.00  0.00    +0.021 A 
ATOM     12  C   LIG    1      -40.385  74.224  23.924  0.00  0.00    +0.045 A 
ATOM     13  C   LIG    1      -39.924  72.882  23.947  0.00  0.00    +0.036 A 
ATOM     14  C   LIG    1      -38.698  72.517  24.509  0.00  0.00    +0.057 A 
ATOM     15  C   LIG    1      -37.910  73.522  25.057  0.00  0.00    +0.013 A 
ATOM     16  C   LIG    1      -38.333  74.857  25.020  0.00  0.00    +0.012 A 
BRANCH  11  19
ATOM     17  C   LIG    1      -40.732  77.035  26.866  0.00  0.00    +0.173 C 
ATOM     18  N   LIG    1      -40.454  77.438  25.505  0.00  0.00    -0.267 N 
ATOM     19  C   LIG    1      -39.926  76.709  24.439  0.00  0.00    +0.070 A 
ATOM     20  C   LIG    1      -39.875  77.650  23.413  0.00  0.00    +0.049 A 
ATOM     21  C   LIG    1      -40.358  78.857  23.940  0.00  0.00    +0.135 A 
ATOM     22  N   LIG    1      -40.726  78.726  25.207  0.00  0.00    -0.179 NA
ENDBRANCH  11  19
BRANCH  14  23
ATOM     23  C   LIG    1      -38.280  71.068  24.529  0.00  0.00    +0.417 C 
ATOM     24  F   LIG    1      -37.753  70.698  25.727  0.00  0.00    -0.166 F 
ATOM     25  F   LIG    1      -37.325  70.795  23.597  0.00  0.00    -0.166 F 
ATOM     26  F   LIG    1      -39.302  70.203  24.282  0.00  0.00    -0.166 F 
ENDBRANCH  14  23
ENDBRANCH   9  12
ENDBRANCH   7   9
BRANCH   7  27
ATOM     27  O   LIG    1      -43.197  75.406  24.913  0.00  0.00    -0.481 OA
ATOM     28  H   LIG    1      -44.071  75.744  24.678  0.00  0.00    +0.295 HD
ENDBRANCH   7  27
ENDBRANCH   1   8
BRANCH   4  29
ATOM     29  O   LIG    1      -42.375  68.655  21.652  0.00  0.00    -0.424 OA
BRANCH  29  30
ATOM     30  C   LIG    1      -41.041  68.315  21.703  0.00  0.00    +0.132 A 
ATOM     31  C   LIG    1      -40.542  67.098  22.151  0.00  0.00    +0.047 A 
ATOM     32  C   LIG    1      -39.179  66.852  22.224  0.00  0.00    +0.012 A 
ATOM     33  C   LIG    1      -38.241  67.743  21.703  0.00  0.00    -0.014 A 
ATOM     34  C   LIG    1      -38.749  68.957  21.198  0.00  0.00    +0.012 A 
ATOM     35  C   LIG    1      -40.126  69.253  21.224  0.00  0.00    +0.047 A 
BRANCH  33  36
ATOM     36  C   LIG    1      -36.796  67.393  21.685  0.00  0.00    +0.023 A 
ATOM     37  C   LIG    1      -35.936  67.524  22.806  0.00  0.00    +0.124 A 
ATOM     38  N   LIG    1      -34.619  67.233  22.783  0.00  0.00    -0.239 NA
ATOM     39  C   LIG    1      -34.106  66.761  21.628  0.00  0.00    +0.133 A 
ATOM     40  C   LIG    1      -34.851  66.572  20.482  0.00  0.00    +0.060 A 
ATOM     41 CL   LIG    1      -34.134  65.940  19.058  0.00  0.00    -0.082 Cl
ATOM     42  C   LIG    1      -36.201  66.902  20.508  0.00  0.00    +0.033 A 
BRANCH  37  43
ATOM     43  N   LIG    1      -36.362  67.982  24.051  0.00  0.00    -0.343 N 
ATOM     44  H   LIG    1      -35.681  68.607  24.471  0.00  0.00    +0.144 HD
ATOM     45  H   LIG    1      -37.268  68.422  23.926  0.00  0.00    +0.144 HD
ENDBRANCH  37  43
ENDBRANCH  33  36
ENDBRANCH  29  30
ENDBRANCH   4  29
TORSDOF 10
ENDMDL
MODEL 7
REMARK VINA RESULT:      -5.9     19.403     20.971
REMARK  Name = pdb/CHEMBL3914679.pdb
REMARK                            x       y       z     vdW  Elec       q    Type
REMARK                         _______ _______ _______ _____ _____    ______ ____
ROOT
ATOM      1  C   LIG    1      -23.473  80.756  15.587  0.00  0.00    +0.105 A 
ATOM      2  C   LIG    1      -22.924  79.534  15.315  0.00  0.00    +0.145 A 
ATOM      3  N   LIG    1      -23.371  78.720  14.343  0.00  0.00    -0.201 NA
ATOM      4  C   LIG    1      -24.366  79.156  13.558  0.00  0.00    +0.323 A 
ATOM      5  N   LIG    1      -25.007  80.316  13.745  0.00  0.00    -0.201 NA
ATOM      6  C   LIG    1      -24.521  81.093  14.744  0.00  0.00    +0.145 A 
ENDROOT
BRANCH   1   8
ATOM      7  C   LIG    1      -22.632  82.798  16.370  0.00  0.00    +0.285 C 
ATOM      8  N   LIG    1      -22.891  81.572  16.568  0.00  0.00    -0.196 NA
BRANCH   7   9
ATOM      9  N   LIG    1      -22.944  83.628  15.324  0.00  0.00    -0.269 N 
ATOM     10  H   LIG    1      -23.851  83.479  14.906  0.00  0.00    +0.157 HD
BRANCH   9  12
ATOM     11  C   LIG    1      -21.026  84.148  13.838  0.00  0.00    +0.021 A 
ATOM     12  C   LIG    1      -22.114  84.560  14.659  0.00  0.00    +0.045 A 
ATOM     13  C   LIG    1      -22.448  85.937  14.734  0.00  0.00    +0.036 A 
ATOM     14  C   LIG    1      -21.787  86.913  13.985  0.00  0.00    +0.057 A 
ATOM     15  C   LIG    1      -20.761  86.502  13.144  0.00  0.00    +0.013 A 
ATOM     16  C   LIG    1      -20.395  85.150  13.076  0.00  0.00    +0.012 A 
BRANCH  11  19
ATOM     17  C   LIG    1      -22.192  81.827  11.914  0.00  0.00    +0.173 C 
ATOM     18  N   LIG    1      -21.115  81.745  12.876  0.00  0.00    -0.267 N 
ATOM     19  C   LIG    1      -20.572  82.727  13.706  0.00  0.00    +0.070 A 
ATOM     20  C   LIG    1      -19.555  82.043  14.371  0.00  0.00    +0.049 A 
ATOM     21  C   LIG    1      -19.561  80.728  13.887  0.00  0.00    +0.135 A 
ATOM     22  N   LIG    1      -20.519  80.540  12.990  0.00  0.00    -0.179 NA
ENDBRANCH  11  19
BRANCH  14  23
ATOM     23  C   LIG    1      -22.212  88.357  14.087  0.00  0.00    +0.417 C 
ATOM     24  F   LIG    1      -23.182  88.676  13.188  0.00  0.00    -0.166 F 
ATOM     25  F   LIG    1      -21.181  89.214  13.847  0.00  0.00    -0.166 F 
ATOM     26  F   LIG    1      -22.704  88.695  15.310  0.00  0.00    -0.166 F 
ENDBRANCH  14  23
ENDBRANCH   9  12
ENDBRANCH   7   9
BRANCH   7  27
ATOM     27  O   LIG    1      -22.011  83.447  17.378  0.00  0.00    -0.481 OA
ATOM     28  H   LIG    1      -21.940  84.392  17.193  0.00  0.00    +0.295 HD
ENDBRANCH   7  27
ENDBRANCH   1   8
BRANCH   4  29
ATOM     29  O   LIG    1      -24.771  78.409  12.451  0.00  0.00    -0.424 OA
BRANCH  29  30
ATOM     30  C   LIG    1      -26.112  78.328  12.142  0.00  0.00    +0.132 A 
ATOM     31  C   LIG    1      -27.106  77.879  13.003  0.00  0.00    +0.047 A 
ATOM     32  C   LIG    1      -28.428  77.775  12.597  0.00  0.00    +0.012 A 
ATOM     33  C   LIG    1      -28.862  78.265  11.365  0.00  0.00    -0.014 A 
ATOM     34  C   LIG    1      -27.861  78.772  10.510  0.00  0.00    +0.012 A 
ATOM     35  C   LIG    1      -26.503  78.777  10.880  0.00  0.00    +0.047 A 
BRANCH  33  36
ATOM     36  C   LIG    1      -30.306  78.251  11.013  0.00  0.00    +0.023 A 
ATOM     37  C   LIG    1      -31.000  77.097  10.566  0.00  0.00    +0.124 A 
ATOM     38  N   LIG    1      -32.303  77.089  10.219  0.00  0.00    -0.239 NA
ATOM     39  C   LIG    1      -32.986  78.247  10.338  0.00  0.00    +0.133 A 
ATOM     40  C   LIG    1      -32.420  79.425  10.782  0.00  0.00    +0.060 A 
ATOM     41 CL   LIG    1      -33.360  80.852  10.933  0.00  0.00    -0.082 Cl
ATOM     42  C   LIG    1      -31.070  79.428  11.108  0.00  0.00    +0.033 A 
BRANCH  37  43
ATOM     43  N   LIG    1      -30.401  75.847  10.425  0.00  0.00    -0.343 N 
ATOM     44  H   LIG    1      -30.093  75.477  11.319  0.00  0.00    +0.144 HD
ATOM     45  H   LIG    1      -31.064  75.236   9.959  0.00  0.00    +0.144 HD
ENDBRANCH  37  43
ENDBRANCH  33  36
ENDBRANCH  29  30
ENDBRANCH   4  29
TORSDOF 10
ENDMDL
MODEL 8
REMARK VINA RESULT:      -5.9     10.410     13.601
REMARK  Name = pdb/CHEMBL3914679.pdb
REMARK                            x       y       z     vdW  Elec       q    Type
REMARK                         _______ _______ _______ _____ _____    ______ ____
ROOT
ATOM      1  C   LIG    1      -30.071  76.105  32.394  0.00  0.00    +0.105 A 
ATOM      2  C   LIG    1      -29.431  74.897  32.371  0.00  0.00    +0.145 A 
ATOM      3  N   LIG    1      -28.151  74.743  31.993  0.00  0.00    -0.201 NA
ATOM      4  C   LIG    1      -27.444  75.839  31.682  0.00  0.00    +0.323 A 
ATOM      5  N   LIG    1      -27.966  77.070  31.632  0.00  0.00    -0.201 NA
ATOM      6  C   LIG    1      -29.263  77.167  32.015  0.00  0.00    +0.145 A 
ENDROOT
BRANCH   1   8
ATOM      7  C   LIG    1      -32.373  76.449  32.128  0.00  0.00    +0.285 C 
ATOM      8  N   LIG    1      -31.385  76.182  32.877  0.00  0.00    -0.196 NA
BRANCH   7   9
ATOM      9  N   LIG    1      -32.463  76.574  30.765  0.00  0.00    -0.269 N 
ATOM     10  H   LIG    1      -32.214  77.479  30.393  0.00  0.00    +0.157 HD
BRANCH   9  12
ATOM     11  C   LIG    1      -33.630  76.091  28.629  0.00  0.00    +0.021 A 
ATOM     12  C   LIG    1      -32.995  75.658  29.828  0.00  0.00    +0.045 A 
ATOM     13  C   LIG    1      -32.793  74.271  30.048  0.00  0.00    +0.036 A 
ATOM     14  C   LIG    1      -33.140  73.301  29.105  0.00  0.00    +0.057 A 
ATOM     15  C   LIG    1      -33.710  73.730  27.912  0.00  0.00    +0.013 A 
ATOM     16  C   LIG    1      -33.945  75.093  27.686  0.00  0.00    +0.012 A 
BRANCH  11  19
ATOM     17  C   LIG    1      -32.162  78.008  26.480  0.00  0.00    +0.173 C 
ATOM     18  N   LIG    1      -33.246  78.329  27.384  0.00  0.00    -0.267 N 
ATOM     19  C   LIG    1      -33.916  77.525  28.307  0.00  0.00    +0.070 A 
ATOM     20  C   LIG    1      -34.864  78.394  28.845  0.00  0.00    +0.049 A 
ATOM     21  C   LIG    1      -34.697  79.630  28.203  0.00  0.00    +0.135 A 
ATOM     22  N   LIG    1      -33.704  79.597  27.326  0.00  0.00    -0.179 NA
ENDBRANCH  11  19
BRANCH  14  23
ATOM     23  C   LIG    1      -32.869  71.844  29.387  0.00  0.00    +0.417 C 
ATOM     24  F   LIG    1      -31.539  71.571  29.469  0.00  0.00    -0.166 F 
ATOM     25  F   LIG    1      -33.361  71.031  28.412  0.00  0.00    -0.166 F 
ATOM     26  F   LIG    1      -33.418  71.405  30.553  0.00  0.00    -0.166 F 
ENDBRANCH  14  23
ENDBRANCH   9  12
ENDBRANCH   7   9
BRANCH   7  27
ATOM     27  O   LIG    1      -33.573  76.557  32.737  0.00  0.00    -0.481 OA
ATOM     28  H   LIG    1      -33.478  76.553  33.698  0.00  0.00    +0.295 HD
ENDBRANCH   7  27
ENDBRANCH   1   8
BRANCH   4  29
ATOM     29  O   LIG    1      -26.077  75.747  31.418  0.00  0.00    -0.424 OA
BRANCH  29  30
ATOM     30  C   LIG    1      -25.206  76.612  32.045  0.00  0.00    +0.132 A 
ATOM     31  C   LIG    1      -24.562  77.681  31.434  0.00  0.00    +0.047 A 
ATOM     32  C   LIG    1      -23.655  78.474  32.121  0.00  0.00    +0.012 A 
ATOM     33  C   LIG    1      -23.461  78.348  33.497  0.00  0.00    -0.014 A 
ATOM     34  C   LIG    1      -24.155  77.296  34.129  0.00  0.00    +0.012 A 
ATOM     35  C   LIG    1      -24.993  76.422  33.411  0.00  0.00    +0.047 A 
BRANCH  33  36
ATOM     36  C   LIG    1      -22.575  79.295  34.224  0.00  0.00    +0.023 A 
ATOM     37  C   LIG    1      -21.166  79.150  34.314  0.00  0.00    +0.124 A 
ATOM     38  N   LIG    1      -20.365  79.993  34.998  0.00  0.00    -0.239 NA
ATOM     39  C   LIG    1      -20.945  81.051  35.601  0.00  0.00    +0.133 A 
ATOM     40  C   LIG    1      -22.301  81.304  35.562  0.00  0.00    +0.060 A 
ATOM     41 CL   LIG    1      -22.962  82.688  36.331  0.00  0.00    -0.082 Cl
ATOM     42  C   LIG    1      -23.121  80.413  34.880  0.00  0.00    +0.033 A 
BRANCH  37  43
ATOM     43  N   LIG    1      -20.462  78.108  33.716  0.00  0.00    -0.343 N 
ATOM     44  H   LIG    1      -20.986  77.694  32.951  0.00  0.00    +0.144 HD
ATOM     45  H   LIG    1      -19.563  78.473  33.417  0.00  0.00    +0.144 HD
ENDBRANCH  37  43
ENDBRANCH  33  36
ENDBRANCH  29  30
ENDBRANCH   4  29
TORSDOF 10
ENDMDL
MODEL 9
REMARK VINA RESULT:      -5.8     20.016     21.237
REMARK  Name = pdb/CHEMBL3914679.pdb
REMARK                            x       y       z     vdW  Elec       q    Type
REMARK                         _______ _______ _______ _____ _____    ______ ____
ROOT
ATOM      1  C   LIG    1      -19.909  81.534  14.629  0.00  0.00    +0.105 A 
ATOM      2  C   LIG    1      -20.245  80.559  13.732  0.00  0.00    +0.145 A 
ATOM      3  N   LIG    1      -21.078  79.544  14.019  0.00  0.00    -0.201 NA
ATOM      4  C   LIG    1      -21.659  79.521  15.227  0.00  0.00    +0.323 A 
ATOM      5  N   LIG    1      -21.385  80.397  16.200  0.00  0.00    -0.201 NA
ATOM      6  C   LIG    1      -20.531  81.394  15.860  0.00  0.00    +0.145 A 
ENDROOT
BRANCH   1   8
ATOM      7  C   LIG    1      -19.551  83.761  13.993  0.00  0.00    +0.285 C 
ATOM      8  N   LIG    1      -19.093  82.599  14.218  0.00  0.00    -0.196 NA
BRANCH   7   9
ATOM      9  N   LIG    1      -20.796  84.297  14.206  0.00  0.00    -0.269 N 
ATOM     10  H   LIG    1      -20.994  84.570  15.158  0.00  0.00    +0.157 HD
BRANCH   9  12
ATOM     11  C   LIG    1      -22.105  85.529  12.496  0.00  0.00    +0.021 A 
ATOM     12  C   LIG    1      -21.886  84.381  13.310  0.00  0.00    +0.045 A 
ATOM     13  C   LIG    1      -22.717  83.243  13.147  0.00  0.00    +0.036 A 
ATOM     14  C   LIG    1      -23.717  83.174  12.174  0.00  0.00    +0.057 A 
ATOM     15  C   LIG    1      -23.893  84.275  11.345  0.00  0.00    +0.013 A 
ATOM     16  C   LIG    1      -23.102  85.420  11.507  0.00  0.00    +0.012 A 
BRANCH  11  19
ATOM     17  C   LIG    1      -22.331  87.882  14.700  0.00  0.00    +0.173 C 
ATOM     18  N   LIG    1      -21.446  87.796  13.559  0.00  0.00    -0.267 N 
ATOM     19  C   LIG    1      -21.305  86.791  12.601  0.00  0.00    +0.070 A 
ATOM     20  C   LIG    1      -20.282  87.276  11.789  0.00  0.00    +0.049 A 
ATOM     21  C   LIG    1      -19.887  88.512  12.323  0.00  0.00    +0.135 A 
ATOM     22  N   LIG    1      -20.604  88.837  13.389  0.00  0.00    -0.179 NA
ENDBRANCH  11  19
BRANCH  14  23
ATOM     23  C   LIG    1      -24.547  81.922  12.033  0.00  0.00    +0.417 C 
ATOM     24  F   LIG    1      -23.836  80.796  12.315  0.00  0.00    -0.166 F 
ATOM     25  F   LIG    1      -25.022  81.760  10.767  0.00  0.00    -0.166 F 
ATOM     26  F   LIG    1      -25.636  81.896  12.849  0.00  0.00    -0.166 F 
ENDBRANCH  14  23
ENDBRANCH   9  12
ENDBRANCH   7   9
BRANCH   7  27
ATOM     27  O   LIG    1      -18.666  84.674  13.539  0.00  0.00    -0.481 OA
ATOM     28  H   LIG    1      -18.718  84.764  12.579  0.00  0.00    +0.295 HD
ENDBRANCH   7  27
ENDBRANCH   1   8
BRANCH   4  29
ATOM     29  O   LIG    1      -22.635  78.569  15.523  0.00  0.00    -0.424 OA
BRANCH  29  30
ATOM     30  C   LIG    1      -23.807  78.550  14.798  0.00  0.00    +0.132 A 
ATOM     31  C   LIG    1      -24.934  79.313  15.079  0.00  0.00    +0.047 A 
ATOM     32  C   LIG    1      -26.096  79.196  14.332  0.00  0.00    +0.012 A 
ATOM     33  C   LIG    1      -26.150  78.433  13.165  0.00  0.00    -0.014 A 
ATOM     34  C   LIG    1      -24.988  77.700  12.848  0.00  0.00    +0.012 A 
ATOM     35  C   LIG    1      -23.843  77.734  13.667  0.00  0.00    +0.047 A 
BRANCH  33  36
ATOM     36  C   LIG    1      -27.373  78.429  12.321  0.00  0.00    +0.023 A 
ATOM     37  C   LIG    1      -28.510  77.620  12.580  0.00  0.00    +0.124 A 
ATOM     38  N   LIG    1      -29.609  77.594  11.798  0.00  0.00    -0.239 NA
ATOM     39  C   LIG    1      -29.631  78.414  10.727  0.00  0.00    +0.133 A 
ATOM     40  C   LIG    1      -28.593  79.259  10.390  0.00  0.00    +0.060 A 
ATOM     41 CL   LIG    1      -28.705  80.294   9.027  0.00  0.00    -0.082 Cl
ATOM     42  C   LIG    1      -27.453  79.256  11.186  0.00  0.00    +0.033 A 
BRANCH  37  43
ATOM     43  N   LIG    1      -28.604  76.752  13.666  0.00  0.00    -0.343 N 
ATOM     44  H   LIG    1      -27.714  76.306  13.865  0.00  0.00    +0.144 HD
ATOM     45  H   LIG    1      -28.958  77.282  14.456  0.00  0.00    +0.144 HD
ENDBRANCH  37  43
ENDBRANCH  33  36
ENDBRANCH  29  30
ENDBRANCH   4  29
TORSDOF 10
ENDMDL
