MODEL 1
REMARK VINA RESULT:      -7.1      0.000      0.000
REMARK  Name = pdb/CHEMBL3936597.pdb
REMARK                            x       y       z     vdW  Elec       q    Type
REMARK                         _______ _______ _______ _____ _____    ______ ____
ROOT
ATOM      1  C   LIG    1      -38.452  76.339  25.904  0.00  0.00    +0.149 A 
ATOM      2  N   LIG    1      -39.658  75.926  25.483  0.00  0.00    -0.160 NA
ATOM      3  N   LIG    1      -39.433  74.744  24.850  0.00  0.00    -0.218 N 
ATOM      4  C   LIG    1      -38.116  74.311  25.018  0.00  0.00    +0.129 A 
ATOM      5  C   LIG    1      -37.487  75.329  25.698  0.00  0.00    +0.078 A 
ENDROOT
BRANCH   3   6
ATOM      6  C   LIG    1      -40.476  74.135  24.097  0.00  0.00    +0.067 A 
ATOM      7  C   LIG    1      -40.492  72.754  23.859  0.00  0.00    +0.028 A 
ATOM      8  C   LIG    1      -41.524  72.184  23.109  0.00  0.00    +0.002 A 
ATOM      9  C   LIG    1      -42.542  72.983  22.594  0.00  0.00    +0.000 A 
ATOM     10  C   LIG    1      -42.521  74.361  22.805  0.00  0.00    +0.002 A 
ATOM     11  C   LIG    1      -41.484  74.940  23.539  0.00  0.00    +0.028 A 
ENDBRANCH   3   6
BRANCH   4  12
ATOM     12  N   LIG    1      -37.542  73.085  24.648  0.00  0.00    -0.266 N 
ATOM     13  H   LIG    1      -37.181  73.009  23.702  0.00  0.00    +0.157 HD
ATOM     14  C   LIG    1      -37.449  71.963  25.543  0.00  0.00    +0.251 C 
ATOM     15  O   LIG    1      -37.844  72.070  26.693  0.00  0.00    -0.270 OA
BRANCH  14  16
ATOM     16  C   LIG    1      -36.825  70.684  25.105  0.00  0.00    +0.056 A 
ATOM     17  C   LIG    1      -35.643  70.141  25.600  0.00  0.00    +0.054 A 
ATOM     18 CL   LIG    1      -34.641  70.918  26.772  0.00  0.00    -0.083 Cl
ATOM     19  C   LIG    1      -35.199  68.904  25.127  0.00  0.00    +0.041 A 
ATOM     20  C   LIG    1      -35.898  68.212  24.118  0.00  0.00    +0.052 A 
ATOM     21 CL   LIG    1      -35.167  66.725  23.612  0.00  0.00    -0.083 Cl
ATOM     22  C   LIG    1      -37.071  68.743  23.552  0.00  0.00    +0.022 A 
ATOM     23  C   LIG    1      -37.520  69.971  24.096  0.00  0.00    +0.026 A 
BRANCH  22  24
ATOM     24  C   LIG    1      -37.815  68.109  22.431  0.00  0.00    +0.107 A 
ATOM     25  C   LIG    1      -37.713  68.543  21.103  0.00  0.00    +0.149 A 
ATOM     26  F   LIG    1      -36.968  69.607  20.769  0.00  0.00    -0.203 F 
ATOM     27  C   LIG    1      -38.371  67.851  20.089  0.00  0.00    +0.042 A 
ATOM     28  C   LIG    1      -39.115  66.728  20.411  0.00  0.00    +0.023 A 
ATOM     29  C   LIG    1      -39.199  66.366  21.745  0.00  0.00    +0.111 A 
ATOM     30  N   LIG    1      -38.592  67.042  22.749  0.00  0.00    -0.252 NA
ENDBRANCH  22  24
ENDBRANCH  14  16
ENDBRANCH   4  12
BRANCH   1  32
ATOM     31  N   LIG    1      -37.484  77.770  27.571  0.00  0.00    -0.241 NA
ATOM     32  C   LIG    1      -38.189  77.649  26.513  0.00  0.00    +0.236 C 
BRANCH  32  33
ATOM     33  O   LIG    1      -38.786  78.674  25.855  0.00  0.00    -0.491 OA
ATOM     34  H   LIG    1      -38.150  79.188  25.332  0.00  0.00    +0.294 HD
ENDBRANCH  32  33
BRANCH  31  35
ATOM     35  C   LIG    1      -37.251  79.080  28.175  0.00  0.00    +0.223 C 
BRANCH  35  41
ATOM     36  C   LIG    1      -32.410  79.198  27.127  0.00  0.00    +0.087 C 
ATOM     37  C   LIG    1      -33.807  79.555  27.451  0.00  0.00    +0.122 A 
ATOM     38  N   LIG    1      -34.239  80.845  27.607  0.00  0.00    -0.263 N 
ATOM     39  H   LIG    1      -33.707  81.703  27.543  0.00  0.00    +0.190 HD
ATOM     40  N   LIG    1      -35.560  80.891  27.885  0.00  0.00    -0.156 NA
ATOM     41  C   LIG    1      -35.872  79.585  27.897  0.00  0.00    +0.172 A 
ATOM     42  N   LIG    1      -34.820  78.741  27.638  0.00  0.00    -0.215 NA
ENDBRANCH  35  41
ENDBRANCH  31  35
ENDBRANCH   1  32
TORSDOF 8
ENDMDL
MODEL 2
REMARK VINA RESULT:      -7.0      5.823      9.382
REMARK  Name = pdb/CHEMBL3936597.pdb
REMARK                            x       y       z     vdW  Elec       q    Type
REMARK                         _______ _______ _______ _____ _____    ______ ____
ROOT
ATOM      1  C   LIG    1      -31.809  74.163  30.147  0.00  0.00    +0.149 A 
ATOM      2  N   LIG    1      -31.910  75.492  29.987  0.00  0.00    -0.160 NA
ATOM      3  N   LIG    1      -32.769  75.665  28.946  0.00  0.00    -0.218 N 
ATOM      4  C   LIG    1      -33.356  74.459  28.557  0.00  0.00    +0.129 A 
ATOM      5  C   LIG    1      -32.746  73.496  29.328  0.00  0.00    +0.078 A 
ENDROOT
BRANCH   3   6
ATOM      6  C   LIG    1      -32.935  76.958  28.374  0.00  0.00    +0.067 A 
ATOM      7  C   LIG    1      -33.827  77.888  28.926  0.00  0.00    +0.028 A 
ATOM      8  C   LIG    1      -33.978  79.147  28.338  0.00  0.00    +0.002 A 
ATOM      9  C   LIG    1      -33.243  79.486  27.204  0.00  0.00    +0.000 A 
ATOM     10  C   LIG    1      -32.372  78.557  26.636  0.00  0.00    +0.002 A 
ATOM     11  C   LIG    1      -32.229  77.291  27.207  0.00  0.00    +0.028 A 
ENDBRANCH   3   6
BRANCH   4  12
ATOM     12  N   LIG    1      -34.390  74.247  27.632  0.00  0.00    -0.266 N 
ATOM     13  H   LIG    1      -34.122  73.973  26.692  0.00  0.00    +0.157 HD
ATOM     14  C   LIG    1      -35.781  74.397  27.966  0.00  0.00    +0.251 C 
ATOM     15  O   LIG    1      -36.103  74.683  29.108  0.00  0.00    -0.270 OA
BRANCH  14  16
ATOM     16  C   LIG    1      -36.843  74.153  26.951  0.00  0.00    +0.056 A 
ATOM     17  C   LIG    1      -37.184  72.918  26.408  0.00  0.00    +0.054 A 
ATOM     18 CL   LIG    1      -36.361  71.445  26.770  0.00  0.00    -0.083 Cl
ATOM     19  C   LIG    1      -38.239  72.833  25.496  0.00  0.00    +0.041 A 
ATOM     20  C   LIG    1      -38.936  73.982  25.072  0.00  0.00    +0.052 A 
ATOM     21 CL   LIG    1      -40.169  73.693  23.891  0.00  0.00    -0.083 Cl
ATOM     22  C   LIG    1      -38.595  75.258  25.555  0.00  0.00    +0.022 A 
ATOM     23  C   LIG    1      -37.559  75.299  26.520  0.00  0.00    +0.026 A 
BRANCH  22  24
ATOM     24  C   LIG    1      -39.232  76.520  25.094  0.00  0.00    +0.107 A 
ATOM     25  C   LIG    1      -38.671  77.344  24.109  0.00  0.00    +0.149 A 
ATOM     26  F   LIG    1      -37.482  77.065  23.556  0.00  0.00    -0.203 F 
ATOM     27  C   LIG    1      -39.362  78.468  23.663  0.00  0.00    +0.042 A 
ATOM     28  C   LIG    1      -40.608  78.751  24.196  0.00  0.00    +0.023 A 
ATOM     29  C   LIG    1      -41.096  77.914  25.185  0.00  0.00    +0.111 A 
ATOM     30  N   LIG    1      -40.428  76.833  25.655  0.00  0.00    -0.252 NA
ENDBRANCH  22  24
ENDBRANCH  14  16
ENDBRANCH   4  12
BRANCH   1  32
ATOM     31  N   LIG    1      -30.010  72.658  30.655  0.00  0.00    -0.241 NA
ATOM     32  C   LIG    1      -30.870  73.507  31.066  0.00  0.00    +0.236 C 
BRANCH  32  33
ATOM     33  O   LIG    1      -31.038  73.881  32.359  0.00  0.00    -0.491 OA
ATOM     34  H   LIG    1      -30.217  74.221  32.748  0.00  0.00    +0.294 HD
ENDBRANCH  32  33
BRANCH  31  35
ATOM     35  C   LIG    1      -29.097  71.999  31.589  0.00  0.00    +0.223 C 
BRANCH  35  41
ATOM     36  C   LIG    1      -25.588  69.494  29.147  0.00  0.00    +0.087 C 
ATOM     37  C   LIG    1      -26.807  69.886  29.886  0.00  0.00    +0.122 A 
ATOM     38  N   LIG    1      -27.800  69.005  30.222  0.00  0.00    -0.263 N 
ATOM     39  H   LIG    1      -27.863  68.016  30.023  0.00  0.00    +0.190 HD
ATOM     40  N   LIG    1      -28.791  69.620  30.904  0.00  0.00    -0.156 NA
ATOM     41  C   LIG    1      -28.343  70.885  30.938  0.00  0.00    +0.172 A 
ATOM     42  N   LIG    1      -27.132  71.082  30.320  0.00  0.00    -0.215 NA
ENDBRANCH  35  41
ENDBRANCH  31  35
ENDBRANCH   1  32
TORSDOF 8
ENDMDL
MODEL 3
REMARK VINA RESULT:      -7.0      5.119      8.611
REMARK  Name = pdb/CHEMBL3936597.pdb
REMARK                            x       y       z     vdW  Elec       q    Type
REMARK                         _______ _______ _______ _____ _____    ______ ____
ROOT
ATOM      1  C   LIG    1      -31.616  75.342  30.186  0.00  0.00    +0.149 A 
ATOM      2  N   LIG    1      -32.163  76.568  30.204  0.00  0.00    -0.160 NA
ATOM      3  N   LIG    1      -33.105  76.556  29.222  0.00  0.00    -0.218 N 
ATOM      4  C   LIG    1      -33.285  75.275  28.697  0.00  0.00    +0.129 A 
ATOM      5  C   LIG    1      -32.336  74.494  29.317  0.00  0.00    +0.078 A 
ENDROOT
BRANCH   3   6
ATOM      6  C   LIG    1      -33.732  77.772  28.829  0.00  0.00    +0.067 A 
ATOM      7  C   LIG    1      -35.021  78.101  29.269  0.00  0.00    +0.028 A 
ATOM      8  C   LIG    1      -35.616  79.297  28.860  0.00  0.00    +0.002 A 
ATOM      9  C   LIG    1      -34.934  80.170  28.016  0.00  0.00    +0.000 A 
ATOM     10  C   LIG    1      -33.660  79.838  27.555  0.00  0.00    +0.002 A 
ATOM     11  C   LIG    1      -33.066  78.637  27.945  0.00  0.00    +0.028 A 
ENDBRANCH   3   6
BRANCH   4  12
ATOM     12  N   LIG    1      -34.255  74.830  27.786  0.00  0.00    -0.266 N 
ATOM     13  H   LIG    1      -33.963  74.709  26.820  0.00  0.00    +0.157 HD
ATOM     14  C   LIG    1      -35.613  74.546  28.165  0.00  0.00    +0.251 C 
ATOM     15  O   LIG    1      -35.951  74.649  29.333  0.00  0.00    -0.270 OA
BRANCH  14  16
ATOM     16  C   LIG    1      -36.605  74.070  27.162  0.00  0.00    +0.056 A 
ATOM     17  C   LIG    1      -36.767  72.755  26.734  0.00  0.00    +0.054 A 
ATOM     18 CL   LIG    1      -35.768  71.444  27.248  0.00  0.00    -0.083 Cl
ATOM     19  C   LIG    1      -37.775  72.445  25.818  0.00  0.00    +0.041 A 
ATOM     20  C   LIG    1      -38.604  73.447  25.275  0.00  0.00    +0.052 A 
ATOM     21 CL   LIG    1      -39.755  72.888  24.108  0.00  0.00    -0.083 Cl
ATOM     22  C   LIG    1      -38.447  74.796  25.639  0.00  0.00    +0.022 A 
ATOM     23  C   LIG    1      -37.452  75.064  26.611  0.00  0.00    +0.026 A 
BRANCH  22  24
ATOM     24  C   LIG    1      -39.230  75.914  25.048  0.00  0.00    +0.107 A 
ATOM     25  C   LIG    1      -38.681  76.845  24.158  0.00  0.00    +0.149 A 
ATOM     26  F   LIG    1      -37.383  76.815  23.824  0.00  0.00    -0.203 F 
ATOM     27  C   LIG    1      -39.492  77.818  23.576  0.00  0.00    +0.042 A 
ATOM     28  C   LIG    1      -40.842  77.841  23.881  0.00  0.00    +0.023 A 
ATOM     29  C   LIG    1      -41.319  76.911  24.788  0.00  0.00    +0.111 A 
ATOM     30  N   LIG    1      -40.543  75.977  25.389  0.00  0.00    -0.252 NA
ENDBRANCH  22  24
ENDBRANCH  14  16
ENDBRANCH   4  12
BRANCH   1  32
ATOM     31  N   LIG    1      -29.583  75.795  31.381  0.00  0.00    -0.241 NA
ATOM     32  C   LIG    1      -30.447  74.943  30.982  0.00  0.00    +0.236 C 
BRANCH  32  33
ATOM     33  O   LIG    1      -30.388  73.608  31.211  0.00  0.00    -0.491 OA
ATOM     34  H   LIG    1      -29.534  73.232  30.944  0.00  0.00    +0.294 HD
ENDBRANCH  32  33
BRANCH  31  35
ATOM     35  C   LIG    1      -28.415  75.375  32.154  0.00  0.00    +0.223 C 
BRANCH  35  41
ATOM     36  C   LIG    1      -23.755  76.162  30.666  0.00  0.00    +0.087 C 
ATOM     37  C   LIG    1      -25.167  76.320  31.073  0.00  0.00    +0.122 A 
ATOM     38  N   LIG    1      -25.807  77.530  31.122  0.00  0.00    -0.263 N 
ATOM     39  H   LIG    1      -25.439  78.449  30.915  0.00  0.00    +0.190 HD
ATOM     40  N   LIG    1      -27.093  77.390  31.512  0.00  0.00    -0.156 NA
ATOM     41  C   LIG    1      -27.169  76.063  31.698  0.00  0.00    +0.172 A 
ATOM     42  N   LIG    1      -26.006  75.379  31.441  0.00  0.00    -0.215 NA
ENDBRANCH  35  41
ENDBRANCH  31  35
ENDBRANCH   1  32
TORSDOF 8
ENDMDL
MODEL 4
REMARK VINA RESULT:      -7.0      6.611      8.966
REMARK  Name = pdb/CHEMBL3936597.pdb
REMARK                            x       y       z     vdW  Elec       q    Type
REMARK                         _______ _______ _______ _____ _____    ______ ____
ROOT
ATOM      1  C   LIG    1      -29.631  75.802  31.228  0.00  0.00    +0.149 A 
ATOM      2  N   LIG    1      -30.620  76.407  30.552  0.00  0.00    -0.160 NA
ATOM      3  N   LIG    1      -31.393  75.397  30.068  0.00  0.00    -0.218 N 
ATOM      4  C   LIG    1      -31.004  74.158  30.579  0.00  0.00    +0.129 A 
ATOM      5  C   LIG    1      -29.878  74.415  31.328  0.00  0.00    +0.078 A 
ENDROOT
BRANCH   3   6
ATOM      6  C   LIG    1      -32.418  75.684  29.122  0.00  0.00    +0.067 A 
ATOM      7  C   LIG    1      -33.571  74.892  29.036  0.00  0.00    +0.028 A 
ATOM      8  C   LIG    1      -34.557  75.190  28.092  0.00  0.00    +0.002 A 
ATOM      9  C   LIG    1      -34.402  76.275  27.232  0.00  0.00    +0.000 A 
ATOM     10  C   LIG    1      -33.246  77.053  27.295  0.00  0.00    +0.002 A 
ATOM     11  C   LIG    1      -32.249  76.751  28.223  0.00  0.00    +0.028 A 
ENDBRANCH   3   6
BRANCH   4  12
ATOM     12  N   LIG    1      -31.637  72.913  30.437  0.00  0.00    -0.266 N 
ATOM     13  H   LIG    1      -32.554  72.808  30.861  0.00  0.00    +0.157 HD
ATOM     14  C   LIG    1      -31.044  71.811  29.728  0.00  0.00    +0.251 C 
ATOM     15  O   LIG    1      -29.961  71.953  29.182  0.00  0.00    -0.270 OA
BRANCH  14  16
ATOM     16  C   LIG    1      -31.758  70.511  29.599  0.00  0.00    +0.056 A 
ATOM     17  C   LIG    1      -31.364  69.304  30.168  0.00  0.00    +0.054 A 
ATOM     18 CL   LIG    1      -29.907  69.092  31.070  0.00  0.00    -0.083 Cl
ATOM     19  C   LIG    1      -32.161  68.169  30.002  0.00  0.00    +0.041 A 
ATOM     20  C   LIG    1      -33.336  68.206  29.224  0.00  0.00    +0.052 A 
ATOM     21 CL   LIG    1      -34.162  66.691  29.077  0.00  0.00    -0.083 Cl
ATOM     22  C   LIG    1      -33.749  69.391  28.589  0.00  0.00    +0.022 A 
ATOM     23  C   LIG    1      -32.946  70.534  28.826  0.00  0.00    +0.026 A 
BRANCH  22  24
ATOM     24  C   LIG    1      -34.930  69.485  27.690  0.00  0.00    +0.107 A 
ATOM     25  C   LIG    1      -34.917  69.045  26.361  0.00  0.00    +0.149 A 
ATOM     26  F   LIG    1      -33.804  68.555  25.796  0.00  0.00    -0.203 F 
ATOM     27  C   LIG    1      -36.083  69.084  25.600  0.00  0.00    +0.042 A 
ATOM     28  C   LIG    1      -37.251  69.553  26.178  0.00  0.00    +0.023 A 
ATOM     29  C   LIG    1      -37.193  69.999  27.487  0.00  0.00    +0.111 A 
ATOM     30  N   LIG    1      -36.064  69.997  28.235  0.00  0.00    -0.252 NA
ENDBRANCH  22  24
ENDBRANCH  14  16
ENDBRANCH   4  12
BRANCH   1  32
ATOM     31  N   LIG    1      -27.274  76.166  31.506  0.00  0.00    -0.241 NA
ATOM     32  C   LIG    1      -28.471  76.498  31.801  0.00  0.00    +0.236 C 
BRANCH  32  33
ATOM     33  O   LIG    1      -28.814  77.483  32.668  0.00  0.00    -0.491 OA
ATOM     34  H   LIG    1      -29.777  77.571  32.754  0.00  0.00    +0.294 HD
ENDBRANCH  32  33
BRANCH  31  35
ATOM     35  C   LIG    1      -26.133  76.857  32.103  0.00  0.00    +0.223 C 
BRANCH  35  41
ATOM     36  C   LIG    1      -21.949  76.570  29.465  0.00  0.00    +0.087 C 
ATOM     37  C   LIG    1      -23.262  76.966  30.016  0.00  0.00    +0.122 A 
ATOM     38  N   LIG    1      -23.986  78.028  29.547  0.00  0.00    -0.263 N 
ATOM     39  H   LIG    1      -23.752  78.677  28.808  0.00  0.00    +0.190 HD
ATOM     40  N   LIG    1      -25.152  78.162  30.217  0.00  0.00    -0.156 NA
ATOM     41  C   LIG    1      -25.069  77.149  31.095  0.00  0.00    +0.172 A 
ATOM     42  N   LIG    1      -23.922  76.401  31.000  0.00  0.00    -0.215 NA
ENDBRANCH  35  41
ENDBRANCH  31  35
ENDBRANCH   1  32
TORSDOF 8
ENDMDL
MODEL 5
REMARK VINA RESULT:      -6.9      5.748      9.216
REMARK  Name = pdb/CHEMBL3936597.pdb
REMARK                            x       y       z     vdW  Elec       q    Type
REMARK                         _______ _______ _______ _____ _____    ______ ____
ROOT
ATOM      1  C   LIG    1      -31.781  74.061  30.075  0.00  0.00    +0.149 A 
ATOM      2  N   LIG    1      -31.846  75.394  29.927  0.00  0.00    -0.160 NA
ATOM      3  N   LIG    1      -32.707  75.599  28.894  0.00  0.00    -0.218 N 
ATOM      4  C   LIG    1      -33.329  74.413  28.498  0.00  0.00    +0.129 A 
ATOM      5  C   LIG    1      -32.741  73.427  29.256  0.00  0.00    +0.078 A 
ENDROOT
BRANCH   3   6
ATOM      6  C   LIG    1      -32.842  76.901  28.335  0.00  0.00    +0.067 A 
ATOM      7  C   LIG    1      -33.701  77.851  28.903  0.00  0.00    +0.028 A 
ATOM      8  C   LIG    1      -33.820  79.119  28.328  0.00  0.00    +0.002 A 
ATOM      9  C   LIG    1      -33.088  79.447  27.189  0.00  0.00    +0.000 A 
ATOM     10  C   LIG    1      -32.250  78.498  26.604  0.00  0.00    +0.002 A 
ATOM     11  C   LIG    1      -32.138  77.224  27.162  0.00  0.00    +0.028 A 
ENDBRANCH   3   6
BRANCH   4  12
ATOM     12  N   LIG    1      -34.374  74.237  27.578  0.00  0.00    -0.266 N 
ATOM     13  H   LIG    1      -34.121  73.942  26.639  0.00  0.00    +0.157 HD
ATOM     14  C   LIG    1      -35.756  74.453  27.914  0.00  0.00    +0.251 C 
ATOM     15  O   LIG    1      -36.062  74.764  29.053  0.00  0.00    -0.270 OA
BRANCH  14  16
ATOM     16  C   LIG    1      -36.831  74.246  26.904  0.00  0.00    +0.056 A 
ATOM     17  C   LIG    1      -37.192  73.029  26.335  0.00  0.00    +0.054 A 
ATOM     18 CL   LIG    1      -36.383  71.537  26.652  0.00  0.00    -0.083 Cl
ATOM     19  C   LIG    1      -38.257  72.977  25.432  0.00  0.00    +0.041 A 
ATOM     20  C   LIG    1      -38.945  74.144  25.043  0.00  0.00    +0.052 A 
ATOM     21 CL   LIG    1      -40.193  73.898  23.867  0.00  0.00    -0.083 Cl
ATOM     22  C   LIG    1      -38.584  75.404  25.553  0.00  0.00    +0.022 A 
ATOM     23  C   LIG    1      -37.537  75.409  26.508  0.00  0.00    +0.026 A 
BRANCH  22  24
ATOM     24  C   LIG    1      -39.210  76.684  25.128  0.00  0.00    +0.107 A 
ATOM     25  C   LIG    1      -38.692  77.486  24.103  0.00  0.00    +0.149 A 
ATOM     26  F   LIG    1      -37.553  77.167  23.472  0.00  0.00    -0.203 F 
ATOM     27  C   LIG    1      -39.376  78.630  23.698  0.00  0.00    +0.042 A 
ATOM     28  C   LIG    1      -40.573  78.955  24.313  0.00  0.00    +0.023 A 
ATOM     29  C   LIG    1      -41.018  78.138  25.338  0.00  0.00    +0.111 A 
ATOM     30  N   LIG    1      -40.354  77.038  25.768  0.00  0.00    -0.252 NA
ENDBRANCH  22  24
ENDBRANCH  14  16
ENDBRANCH   4  12
BRANCH   1  32
ATOM     31  N   LIG    1      -30.079  72.443  30.573  0.00  0.00    -0.241 NA
ATOM     32  C   LIG    1      -30.854  73.371  30.982  0.00  0.00    +0.236 C 
BRANCH  32  33
ATOM     33  O   LIG    1      -30.937  73.807  32.264  0.00  0.00    -0.491 OA
ATOM     34  H   LIG    1      -30.504  73.198  32.883  0.00  0.00    +0.294 HD
ENDBRANCH  32  33
BRANCH  31  35
ATOM     35  C   LIG    1      -29.178  71.753  31.495  0.00  0.00    +0.223 C 
BRANCH  35  41
ATOM     36  C   LIG    1      -24.403  72.951  30.937  0.00  0.00    +0.087 C 
ATOM     37  C   LIG    1      -25.823  72.907  31.344  0.00  0.00    +0.122 A 
ATOM     38  N   LIG    1      -26.388  73.808  32.206  0.00  0.00    -0.263 N 
ATOM     39  H   LIG    1      -25.954  74.588  32.681  0.00  0.00    +0.190 HD
ATOM     40  N   LIG    1      -27.700  73.548  32.398  0.00  0.00    -0.156 NA
ATOM     41  C   LIG    1      -27.869  72.460  31.629  0.00  0.00    +0.172 A 
ATOM     42  N   LIG    1      -26.738  72.040  30.973  0.00  0.00    -0.215 NA
ENDBRANCH  35  41
ENDBRANCH  31  35
ENDBRANCH   1  32
TORSDOF 8
ENDMDL
MODEL 6
REMARK VINA RESULT:      -6.8      3.620      6.341
REMARK  Name = pdb/CHEMBL3936597.pdb
REMARK                            x       y       z     vdW  Elec       q    Type
REMARK                         _______ _______ _______ _____ _____    ______ ____
ROOT
ATOM      1  C   LIG    1      -37.052  80.097  27.636  0.00  0.00    +0.149 A 
ATOM      2  N   LIG    1      -35.934  79.402  27.900  0.00  0.00    -0.160 NA
ATOM      3  N   LIG    1      -36.270  78.097  27.715  0.00  0.00    -0.218 N 
ATOM      4  C   LIG    1      -37.546  77.966  27.163  0.00  0.00    +0.129 A 
ATOM      5  C   LIG    1      -38.047  79.247  27.106  0.00  0.00    +0.078 A 
ENDROOT
BRANCH   3   6
ATOM      6  C   LIG    1      -35.369  77.071  28.117  0.00  0.00    +0.067 A 
ATOM      7  C   LIG    1      -35.278  76.667  29.456  0.00  0.00    +0.028 A 
ATOM      8  C   LIG    1      -34.377  75.664  29.825  0.00  0.00    +0.002 A 
ATOM      9  C   LIG    1      -33.566  75.059  28.867  0.00  0.00    +0.000 A 
ATOM     10  C   LIG    1      -33.635  75.473  27.537  0.00  0.00    +0.002 A 
ATOM     11  C   LIG    1      -34.519  76.487  27.163  0.00  0.00    +0.028 A 
ENDBRANCH   3   6
BRANCH   4  12
ATOM     12  N   LIG    1      -38.183  76.807  26.695  0.00  0.00    -0.266 N 
ATOM     13  H   LIG    1      -38.824  76.341  27.330  0.00  0.00    +0.157 HD
ATOM     14  C   LIG    1      -37.965  76.272  25.377  0.00  0.00    +0.251 C 
ATOM     15  O   LIG    1      -37.228  76.856  24.599  0.00  0.00    -0.270 OA
BRANCH  14  16
ATOM     16  C   LIG    1      -38.671  75.041  24.924  0.00  0.00    +0.056 A 
ATOM     17  C   LIG    1      -39.858  75.002  24.199  0.00  0.00    +0.054 A 
ATOM     18 CL   LIG    1      -40.771  76.401  23.767  0.00  0.00    -0.083 Cl
ATOM     19  C   LIG    1      -40.382  73.770  23.799  0.00  0.00    +0.041 A 
ATOM     20  C   LIG    1      -39.761  72.558  24.158  0.00  0.00    +0.052 A 
ATOM     21 CL   LIG    1      -40.586  71.130  23.629  0.00  0.00    -0.083 Cl
ATOM     22  C   LIG    1      -38.586  72.544  24.931  0.00  0.00    +0.022 A 
ATOM     23  C   LIG    1      -38.053  73.813  25.270  0.00  0.00    +0.026 A 
BRANCH  22  24
ATOM     24  C   LIG    1      -37.921  71.305  25.413  0.00  0.00    +0.107 A 
ATOM     25  C   LIG    1      -37.282  70.398  24.559  0.00  0.00    +0.149 A 
ATOM     26  F   LIG    1      -37.280  70.569  23.229  0.00  0.00    -0.203 F 
ATOM     27  C   LIG    1      -36.605  69.300  25.085  0.00  0.00    +0.042 A 
ATOM     28  C   LIG    1      -36.565  69.126  26.459  0.00  0.00    +0.023 A 
ATOM     29  C   LIG    1      -37.239  70.043  27.248  0.00  0.00    +0.111 A 
ATOM     30  N   LIG    1      -37.928  71.099  26.755  0.00  0.00    -0.252 NA
ENDBRANCH  22  24
ENDBRANCH  14  16
ENDBRANCH   4  12
BRANCH   1  32
ATOM     31  N   LIG    1      -36.249  82.360  27.604  0.00  0.00    -0.241 NA
ATOM     32  C   LIG    1      -37.200  81.543  27.849  0.00  0.00    +0.236 C 
BRANCH  32  33
ATOM     33  O   LIG    1      -38.415  81.888  28.342  0.00  0.00    -0.491 OA
ATOM     34  H   LIG    1      -38.421  81.907  29.312  0.00  0.00    +0.294 HD
ENDBRANCH  32  33
BRANCH  31  35
ATOM     35  C   LIG    1      -36.409  83.793  27.843  0.00  0.00    +0.223 C 
BRANCH  35  41
ATOM     36  C   LIG    1      -38.026  85.782  23.603  0.00  0.00    +0.087 C 
ATOM     37  C   LIG    1      -37.212  85.379  24.769  0.00  0.00    +0.122 A 
ATOM     38  N   LIG    1      -35.914  85.775  24.955  0.00  0.00    -0.263 N 
ATOM     39  H   LIG    1      -35.338  86.356  24.361  0.00  0.00    +0.190 HD
ATOM     40  N   LIG    1      -35.409  85.276  26.104  0.00  0.00    -0.156 NA
ATOM     41  C   LIG    1      -36.453  84.569  26.567  0.00  0.00    +0.172 A 
ATOM     42  N   LIG    1      -37.571  84.609  25.770  0.00  0.00    -0.215 NA
ENDBRANCH  35  41
ENDBRANCH  31  35
ENDBRANCH   1  32
TORSDOF 8
ENDMDL
MODEL 7
REMARK VINA RESULT:      -6.8      6.186      9.713
REMARK  Name = pdb/CHEMBL3936597.pdb
REMARK                            x       y       z     vdW  Elec       q    Type
REMARK                         _______ _______ _______ _____ _____    ______ ____
ROOT
ATOM      1  C   LIG    1      -30.216  75.212  30.978  0.00  0.00    +0.149 A 
ATOM      2  N   LIG    1      -30.565  74.067  30.371  0.00  0.00    -0.160 NA
ATOM      3  N   LIG    1      -31.855  74.246  29.979  0.00  0.00    -0.218 N 
ATOM      4  C   LIG    1      -32.275  75.563  30.175  0.00  0.00    +0.129 A 
ATOM      5  C   LIG    1      -31.225  76.186  30.810  0.00  0.00    +0.078 A 
ENDROOT
BRANCH   3   6
ATOM      6  C   LIG    1      -32.604  73.141  29.487  0.00  0.00    +0.067 A 
ATOM      7  C   LIG    1      -32.410  71.848  29.992  0.00  0.00    +0.028 A 
ATOM      8  C   LIG    1      -33.153  70.779  29.484  0.00  0.00    +0.002 A 
ATOM      9  C   LIG    1      -34.091  70.990  28.476  0.00  0.00    +0.000 A 
ATOM     10  C   LIG    1      -34.272  72.269  27.952  0.00  0.00    +0.002 A 
ATOM     11  C   LIG    1      -33.522  73.339  28.442  0.00  0.00    +0.028 A 
ENDBRANCH   3   6
BRANCH   4  12
ATOM     12  N   LIG    1      -33.473  76.171  29.768  0.00  0.00    -0.266 N 
ATOM     13  H   LIG    1      -34.262  76.112  30.404  0.00  0.00    +0.157 HD
ATOM     14  C   LIG    1      -33.613  76.858  28.512  0.00  0.00    +0.251 C 
ATOM     15  O   LIG    1      -32.651  76.966  27.768  0.00  0.00    -0.270 OA
BRANCH  14  16
ATOM     16  C   LIG    1      -34.904  77.493  28.127  0.00  0.00    +0.056 A 
ATOM     17  C   LIG    1      -35.260  78.820  28.351  0.00  0.00    +0.054 A 
ATOM     18 CL   LIG    1      -34.274  79.952  29.204  0.00  0.00    -0.083 Cl
ATOM     19  C   LIG    1      -36.491  79.293  27.890  0.00  0.00    +0.041 A 
ATOM     20  C   LIG    1      -37.408  78.440  27.244  0.00  0.00    +0.052 A 
ATOM     21 CL   LIG    1      -38.907  79.183  26.799  0.00  0.00    -0.083 Cl
ATOM     22  C   LIG    1      -37.114  77.080  27.038  0.00  0.00    +0.022 A 
ATOM     23  C   LIG    1      -35.834  76.650  27.468  0.00  0.00    +0.026 A 
BRANCH  22  24
ATOM     24  C   LIG    1      -38.063  76.105  26.437  0.00  0.00    +0.107 A 
ATOM     25  C   LIG    1      -38.164  75.887  25.057  0.00  0.00    +0.149 A 
ATOM     26  F   LIG    1      -37.438  76.595  24.181  0.00  0.00    -0.203 F 
ATOM     27  C   LIG    1      -39.014  74.898  24.566  0.00  0.00    +0.042 A 
ATOM     28  C   LIG    1      -39.744  74.132  25.459  0.00  0.00    +0.023 A 
ATOM     29  C   LIG    1      -39.621  74.414  26.809  0.00  0.00    +0.111 A 
ATOM     30  N   LIG    1      -38.824  75.390  27.305  0.00  0.00    -0.252 NA
ENDBRANCH  22  24
ENDBRANCH  14  16
ENDBRANCH   4  12
BRANCH   1  32
ATOM     31  N   LIG    1      -28.366  76.556  31.710  0.00  0.00    -0.241 NA
ATOM     32  C   LIG    1      -28.949  75.421  31.693  0.00  0.00    +0.236 C 
BRANCH  32  33
ATOM     33  O   LIG    1      -28.481  74.296  32.288  0.00  0.00    -0.491 OA
ATOM     34  H   LIG    1      -27.754  73.895  31.786  0.00  0.00    +0.294 HD
ENDBRANCH  32  33
BRANCH  31  35
ATOM     35  C   LIG    1      -27.095  76.738  32.409  0.00  0.00    +0.223 C 
BRANCH  35  41
ATOM     36  C   LIG    1      -22.805  76.444  29.947  0.00  0.00    +0.087 C 
ATOM     37  C   LIG    1      -24.129  76.855  30.458  0.00  0.00    +0.122 A 
ATOM     38  N   LIG    1      -24.801  77.961  30.010  0.00  0.00    -0.263 N 
ATOM     39  H   LIG    1      -24.514  78.636  29.314  0.00  0.00    +0.190 HD
ATOM     40  N   LIG    1      -25.991  78.098  30.633  0.00  0.00    -0.156 NA
ATOM     41  C   LIG    1      -25.978  77.044  31.464  0.00  0.00    +0.172 A 
ATOM     42  N   LIG    1      -24.850  76.265  31.384  0.00  0.00    -0.215 NA
ENDBRANCH  35  41
ENDBRANCH  31  35
ENDBRANCH   1  32
TORSDOF 8
ENDMDL
MODEL 8
REMARK VINA RESULT:      -6.8     17.708     20.910
REMARK  Name = pdb/CHEMBL3936597.pdb
REMARK                            x       y       z     vdW  Elec       q    Type
REMARK                         _______ _______ _______ _____ _____    ______ ____
ROOT
ATOM      1  C   LIG    1      -24.568  82.885  37.243  0.00  0.00    +0.149 A 
ATOM      2  N   LIG    1      -23.504  83.385  37.893  0.00  0.00    -0.160 NA
ATOM      3  N   LIG    1      -22.527  82.449  37.757  0.00  0.00    -0.218 N 
ATOM      4  C   LIG    1      -22.904  81.434  36.875  0.00  0.00    +0.129 A 
ATOM      5  C   LIG    1      -24.209  81.715  36.539  0.00  0.00    +0.078 A 
ENDROOT
BRANCH   3   6
ATOM      6  C   LIG    1      -21.325  82.568  38.510  0.00  0.00    +0.067 A 
ATOM      7  C   LIG    1      -21.065  81.729  39.603  0.00  0.00    +0.028 A 
ATOM      8  C   LIG    1      -19.881  81.874  40.330  0.00  0.00    +0.002 A 
ATOM      9  C   LIG    1      -18.952  82.849  39.975  0.00  0.00    +0.000 A 
ATOM     10  C   LIG    1      -19.215  83.703  38.904  0.00  0.00    +0.002 A 
ATOM     11  C   LIG    1      -20.403  83.576  38.183  0.00  0.00    +0.028 A 
ENDBRANCH   3   6
BRANCH   4  12
ATOM     12  N   LIG    1      -22.127  80.382  36.367  0.00  0.00    -0.266 N 
ATOM     13  H   LIG    1      -22.376  79.440  36.656  0.00  0.00    +0.157 HD
ATOM     14  C   LIG    1      -21.021  80.588  35.471  0.00  0.00    +0.251 C 
ATOM     15  O   LIG    1      -20.751  81.715  35.089  0.00  0.00    -0.270 OA
BRANCH  14  16
ATOM     16  C   LIG    1      -20.230  79.437  34.953  0.00  0.00    +0.056 A 
ATOM     17  C   LIG    1      -19.064  78.928  35.518  0.00  0.00    +0.054 A 
ATOM     18 CL   LIG    1      -18.281  79.614  36.895  0.00  0.00    -0.083 Cl
ATOM     19  C   LIG    1      -18.452  77.809  34.949  0.00  0.00    +0.041 A 
ATOM     20  C   LIG    1      -18.963  77.209  33.781  0.00  0.00    +0.052 A 
ATOM     21 CL   LIG    1      -18.039  75.871  33.183  0.00  0.00    -0.083 Cl
ATOM     22  C   LIG    1      -20.111  77.717  33.146  0.00  0.00    +0.022 A 
ATOM     23  C   LIG    1      -20.735  78.818  33.782  0.00  0.00    +0.026 A 
BRANCH  22  24
ATOM     24  C   LIG    1      -20.659  77.187  31.869  0.00  0.00    +0.107 A 
ATOM     25  C   LIG    1      -21.812  76.396  31.802  0.00  0.00    +0.149 A 
ATOM     26  F   LIG    1      -22.470  76.020  32.908  0.00  0.00    -0.203 F 
ATOM     27  C   LIG    1      -22.319  76.003  30.565  0.00  0.00    +0.042 A 
ATOM     28  C   LIG    1      -21.675  76.413  29.410  0.00  0.00    +0.023 A 
ATOM     29  C   LIG    1      -20.524  77.171  29.544  0.00  0.00    +0.111 A 
ATOM     30  N   LIG    1      -19.997  77.538  30.736  0.00  0.00    -0.252 NA
ENDBRANCH  22  24
ENDBRANCH  14  16
ENDBRANCH   4  12
BRANCH   1  32
ATOM     31  N   LIG    1      -26.373  84.100  36.229  0.00  0.00    -0.241 NA
ATOM     32  C   LIG    1      -25.905  83.492  37.250  0.00  0.00    +0.236 C 
BRANCH  32  33
ATOM     33  O   LIG    1      -26.548  83.355  38.436  0.00  0.00    -0.491 OA
ATOM     34  H   LIG    1      -26.752  84.214  38.839  0.00  0.00    +0.294 HD
ENDBRANCH  32  33
BRANCH  31  35
ATOM     35  C   LIG    1      -27.698  84.716  36.262  0.00  0.00    +0.223 C 
BRANCH  35  41
ATOM     36  C   LIG    1      -29.225  88.145  33.027  0.00  0.00    +0.087 C 
ATOM     37  C   LIG    1      -28.469  87.374  34.036  0.00  0.00    +0.122 A 
ATOM     38  N   LIG    1      -27.287  87.801  34.580  0.00  0.00    -0.263 N 
ATOM     39  H   LIG    1      -26.769  88.647  34.385  0.00  0.00    +0.190 HD
ATOM     40  N   LIG    1      -26.814  86.916  35.485  0.00  0.00    -0.156 NA
ATOM     41  C   LIG    1      -27.755  85.959  35.434  0.00  0.00    +0.172 A 
ATOM     42  N   LIG    1      -28.780  86.209  34.554  0.00  0.00    -0.215 NA
ENDBRANCH  35  41
ENDBRANCH  31  35
ENDBRANCH   1  32
TORSDOF 8
ENDMDL
MODEL 9
REMARK VINA RESULT:      -6.8     16.607     18.871
REMARK  Name = pdb/CHEMBL3936597.pdb
REMARK                            x       y       z     vdW  Elec       q    Type
REMARK                         _______ _______ _______ _____ _____    ______ ____
ROOT
ATOM      1  C   LIG    1      -22.874  81.370  15.427  0.00  0.00    +0.149 A 
ATOM      2  N   LIG    1      -22.029  80.328  15.406  0.00  0.00    -0.160 NA
ATOM      3  N   LIG    1      -22.739  79.300  14.865  0.00  0.00    -0.218 N 
ATOM      4  C   LIG    1      -23.975  79.728  14.377  0.00  0.00    +0.129 A 
ATOM      5  C   LIG    1      -24.062  81.055  14.731  0.00  0.00    +0.078 A 
ENDROOT
BRANCH   3   6
ATOM      6  C   LIG    1      -22.204  77.981  14.892  0.00  0.00    +0.067 A 
ATOM      7  C   LIG    1      -20.930  77.703  14.380  0.00  0.00    +0.028 A 
ATOM      8  C   LIG    1      -20.433  76.396  14.411  0.00  0.00    +0.002 A 
ATOM      9  C   LIG    1      -21.199  75.366  14.950  0.00  0.00    +0.000 A 
ATOM     10  C   LIG    1      -22.477  75.631  15.440  0.00  0.00    +0.002 A 
ATOM     11  C   LIG    1      -22.987  76.930  15.397  0.00  0.00    +0.028 A 
ENDBRANCH   3   6
BRANCH   4  12
ATOM     12  N   LIG    1      -24.918  79.008  13.628  0.00  0.00    -0.266 N 
ATOM     13  H   LIG    1      -24.794  78.992  12.620  0.00  0.00    +0.157 HD
ATOM     14  C   LIG    1      -26.023  78.308  14.226  0.00  0.00    +0.251 C 
ATOM     15  O   LIG    1      -26.145  78.292  15.441  0.00  0.00    -0.270 OA
BRANCH  14  16
ATOM     16  C   LIG    1      -26.994  77.552  13.388  0.00  0.00    +0.056 A 
ATOM     17  C   LIG    1      -27.021  76.171  13.215  0.00  0.00    +0.054 A 
ATOM     18 CL   LIG    1      -25.857  75.091  13.893  0.00  0.00    -0.083 Cl
ATOM     19  C   LIG    1      -28.024  75.592  12.435  0.00  0.00    +0.041 A 
ATOM     20  C   LIG    1      -28.985  76.382  11.773  0.00  0.00    +0.052 A 
ATOM     21 CL   LIG    1      -30.112  75.497  10.799  0.00  0.00    -0.083 Cl
ATOM     22  C   LIG    1      -28.970  77.784  11.878  0.00  0.00    +0.022 A 
ATOM     23  C   LIG    1      -27.973  78.332  12.723  0.00  0.00    +0.026 A 
BRANCH  22  24
ATOM     24  C   LIG    1      -29.901  78.683  11.146  0.00  0.00    +0.107 A 
ATOM     25  C   LIG    1      -29.749  79.003   9.791  0.00  0.00    +0.149 A 
ATOM     26  F   LIG    1      -28.707  78.553   9.078  0.00  0.00    -0.203 F 
ATOM     27  C   LIG    1      -30.705  79.784   9.146  0.00  0.00    +0.042 A 
ATOM     28  C   LIG    1      -31.807  80.228   9.857  0.00  0.00    +0.023 A 
ATOM     29  C   LIG    1      -31.887  79.901  11.200  0.00  0.00    +0.111 A 
ATOM     30  N   LIG    1      -30.953  79.169  11.854  0.00  0.00    -0.252 NA
ENDBRANCH  22  24
ENDBRANCH  14  16
ENDBRANCH   4  12
BRANCH   1  32
ATOM     31  N   LIG    1      -22.852  83.770  15.492  0.00  0.00    -0.241 NA
ATOM     32  C   LIG    1      -22.585  82.661  16.065  0.00  0.00    +0.236 C 
BRANCH  32  33
ATOM     33  O   LIG    1      -21.997  82.535  17.281  0.00  0.00    -0.491 OA
ATOM     34  H   LIG    1      -22.342  81.773  17.774  0.00  0.00    +0.294 HD
ENDBRANCH  32  33
BRANCH  31  35
ATOM     35  C   LIG    1      -22.537  85.045  16.134  0.00  0.00    +0.223 C 
BRANCH  35  41
ATOM     36  C   LIG    1      -22.895  87.610  11.911  0.00  0.00    +0.087 C 
ATOM     37  C   LIG    1      -22.694  87.200  13.316  0.00  0.00    +0.122 A 
ATOM     38  N   LIG    1      -22.345  88.071  14.313  0.00  0.00    -0.263 N 
ATOM     39  H   LIG    1      -22.168  89.065  14.252  0.00  0.00    +0.190 HD
ATOM     40  N   LIG    1      -22.239  87.439  15.502  0.00  0.00    -0.156 NA
ATOM     41  C   LIG    1      -22.526  86.174  15.156  0.00  0.00    +0.172 A 
ATOM     42  N   LIG    1      -22.805  85.994  13.823  0.00  0.00    -0.215 NA
ENDBRANCH  35  41
ENDBRANCH  31  35
ENDBRANCH   1  32
TORSDOF 8
ENDMDL
