MODEL 1
REMARK VINA RESULT:      -6.1      0.000      0.000
REMARK  Name = pdb/CHEMBL3671415.pdb
REMARK                            x       y       z     vdW  Elec       q    Type
REMARK                         _______ _______ _______ _____ _____    ______ ____
ROOT
ATOM      1  C   LIG    1      -33.040  73.530  29.052  0.00  0.00    +0.042 A 
ATOM      2  C   LIG    1      -33.865  73.387  27.922  0.00  0.00    +0.038 A 
ATOM      3  C   LIG    1      -34.530  72.175  27.694  0.00  0.00    +0.052 A 
ATOM      4  C   LIG    1      -34.285  71.138  28.596  0.00  0.00    +0.134 A 
ATOM      5  N   LIG    1      -33.465  71.230  29.668  0.00  0.00    -0.261 NA
ATOM      6  C   LIG    1      -32.855  72.416  29.864  0.00  0.00    +0.122 A 
ENDROOT
BRANCH   3   7
ATOM      7  N   LIG    1      -35.397  72.049  26.581  0.00  0.00    -0.284 N 
ATOM      8  H   LIG    1      -34.981  72.091  25.657  0.00  0.00    +0.155 HD
ATOM      9  C   LIG    1      -36.787  72.041  26.670  0.00  0.00    +0.222 C 
ATOM     10  O   LIG    1      -37.419  72.304  27.688  0.00  0.00    -0.275 OA
BRANCH   9  11
ATOM     11  C   LIG    1      -37.492  71.727  25.359  0.00  0.00    +0.131 C 
BRANCH  11  12
ATOM     12  C   LIG    1      -38.376  72.864  24.885  0.00  0.00    -0.038 A 
ATOM     13  C   LIG    1      -39.612  72.594  24.277  0.00  0.00    +0.007 A 
ATOM     14  C   LIG    1      -40.445  73.640  23.875  0.00  0.00    +0.038 A 
ATOM     15  C   LIG    1      -40.050  74.954  24.089  0.00  0.00    +0.123 A 
ATOM     16  F   LIG    1      -40.853  75.956  23.706  0.00  0.00    -0.205 F 
ATOM     17  C   LIG    1      -38.838  75.245  24.701  0.00  0.00    +0.038 A 
ATOM     18  C   LIG    1      -38.001  74.201  25.104  0.00  0.00    +0.007 A 
ENDBRANCH  11  12
ENDBRANCH   9  11
ENDBRANCH   3   7
BRANCH   1  19
ATOM     19  C   LIG    1      -32.347  74.811  29.343  0.00  0.00    +0.197 C 
ATOM     20  O   LIG    1      -31.203  74.763  29.807  0.00  0.00    -0.287 OA
BRANCH  19  28
ATOM     21  N   LIG    1      -34.383  77.890  29.371  0.00  0.00    -0.323 N 
ATOM     22  C   LIG    1      -33.626  78.114  28.236  0.00  0.00    +0.145 A 
ATOM     23  N   LIG    1      -33.673  79.203  27.448  0.00  0.00    -0.218 NA
ATOM     24  C   LIG    1      -32.822  79.126  26.409  0.00  0.00    +0.223 A 
ATOM     25  N   LIG    1      -31.991  78.117  26.092  0.00  0.00    -0.243 NA
ATOM     26  C   LIG    1      -31.978  77.038  26.905  0.00  0.00    +0.124 A 
ATOM     27  C   LIG    1      -32.802  77.007  28.035  0.00  0.00    +0.048 A 
ATOM     28  C   LIG    1      -33.019  76.089  29.102  0.00  0.00    +0.051 A 
ATOM     29  C   LIG    1      -34.055  76.625  29.854  0.00  0.00    +0.100 A 
BRANCH  21  30
ATOM     30  C   LIG    1      -35.465  78.741  29.935  0.00  0.00    +0.065 C 
ATOM     31  C   LIG    1      -36.144  77.973  31.091  0.00  0.00    +0.036 C 
ATOM     32  C   LIG    1      -34.876  80.055  30.522  0.00  0.00    +0.036 C 
BRANCH  30  33
ATOM     33  C   LIG    1      -36.547  79.185  28.898  0.00  0.00    +0.187 C 
BRANCH  33  35
ATOM     34  C   LIG    1      -37.249  77.648  27.212  0.00  0.00    +0.194 C 
ATOM     35  O   LIG    1      -37.388  78.065  28.563  0.00  0.00    -0.381 OA
ENDBRANCH  33  35
ENDBRANCH  30  33
ENDBRANCH  21  30
ENDBRANCH  19  28
ENDBRANCH   1  19
TORSDOF 8
ENDMDL
MODEL 2
REMARK VINA RESULT:      -5.9     11.526     15.511
REMARK  Name = pdb/CHEMBL3671415.pdb
REMARK                            x       y       z     vdW  Elec       q    Type
REMARK                         _______ _______ _______ _____ _____    ______ ____
ROOT
ATOM      1  C   LIG    1      -20.574  76.945  30.669  0.00  0.00    +0.042 A 
ATOM      2  C   LIG    1      -20.741  77.901  31.687  0.00  0.00    +0.038 A 
ATOM      3  C   LIG    1      -19.618  78.430  32.336  0.00  0.00    +0.052 A 
ATOM      4  C   LIG    1      -18.372  77.925  31.961  0.00  0.00    +0.134 A 
ATOM      5  N   LIG    1      -18.181  76.975  31.017  0.00  0.00    -0.261 NA
ATOM      6  C   LIG    1      -19.284  76.501  30.403  0.00  0.00    +0.122 A 
ENDROOT
BRANCH   3   7
ATOM      7  N   LIG    1      -19.786  79.428  33.328  0.00  0.00    -0.284 N 
ATOM      8  H   LIG    1      -19.599  80.389  33.060  0.00  0.00    +0.155 HD
ATOM      9  C   LIG    1      -20.022  79.161  34.674  0.00  0.00    +0.222 C 
ATOM     10  O   LIG    1      -19.950  78.047  35.184  0.00  0.00    -0.275 OA
BRANCH   9  11
ATOM     11  C   LIG    1      -20.330  80.394  35.508  0.00  0.00    +0.131 C 
BRANCH  11  12
ATOM     12  C   LIG    1      -21.810  80.553  35.793  0.00  0.00    -0.038 A 
ATOM     13  C   LIG    1      -22.256  81.517  36.710  0.00  0.00    +0.007 A 
ATOM     14  C   LIG    1      -23.621  81.692  36.944  0.00  0.00    +0.038 A 
ATOM     15  C   LIG    1      -24.542  80.912  36.256  0.00  0.00    +0.123 A 
ATOM     16  F   LIG    1      -25.852  81.084  36.480  0.00  0.00    -0.205 F 
ATOM     17  C   LIG    1      -24.124  79.961  35.334  0.00  0.00    +0.038 A 
ATOM     18  C   LIG    1      -22.759  79.784  35.098  0.00  0.00    +0.007 A 
ENDBRANCH  11  12
ENDBRANCH   9  11
ENDBRANCH   3   7
BRANCH   1  19
ATOM     19  C   LIG    1      -21.741  76.387  29.937  0.00  0.00    +0.197 C 
ATOM     20  O   LIG    1      -21.734  76.441  28.703  0.00  0.00    -0.287 OA
BRANCH  19  28
ATOM     21  N   LIG    1      -24.121  74.391  31.930  0.00  0.00    -0.323 N 
ATOM     22  C   LIG    1      -24.896  75.509  31.680  0.00  0.00    +0.145 A 
ATOM     23  N   LIG    1      -26.149  75.724  32.119  0.00  0.00    -0.218 NA
ATOM     24  C   LIG    1      -26.646  76.903  31.703  0.00  0.00    +0.223 A 
ATOM     25  N   LIG    1      -26.052  77.824  30.923  0.00  0.00    -0.243 NA
ATOM     26  C   LIG    1      -24.795  77.568  30.498  0.00  0.00    +0.124 A 
ATOM     27  C   LIG    1      -24.158  76.383  30.883  0.00  0.00    +0.048 A 
ATOM     28  C   LIG    1      -22.870  75.813  30.670  0.00  0.00    +0.051 A 
ATOM     29  C   LIG    1      -22.914  74.555  31.254  0.00  0.00    +0.100 A 
BRANCH  21  30
ATOM     30  C   LIG    1      -24.507  73.150  32.655  0.00  0.00    +0.065 C 
ATOM     31  C   LIG    1      -23.386  72.103  32.470  0.00  0.00    +0.036 C 
ATOM     32  C   LIG    1      -24.647  73.429  34.179  0.00  0.00    +0.036 C 
BRANCH  30  33
ATOM     33  C   LIG    1      -25.873  72.537  32.207  0.00  0.00    +0.187 C 
BRANCH  33  35
ATOM     34  C   LIG    1      -26.287  70.843  30.577  0.00  0.00    +0.194 C 
ATOM     35  O   LIG    1      -25.804  72.157  30.819  0.00  0.00    -0.381 OA
ENDBRANCH  33  35
ENDBRANCH  30  33
ENDBRANCH  21  30
ENDBRANCH  19  28
ENDBRANCH   1  19
TORSDOF 8
ENDMDL
MODEL 3
REMARK VINA RESULT:      -5.9      1.394      1.861
REMARK  Name = pdb/CHEMBL3671415.pdb
REMARK                            x       y       z     vdW  Elec       q    Type
REMARK                         _______ _______ _______ _____ _____    ______ ____
ROOT
ATOM      1  C   LIG    1      -34.306  73.328  28.389  0.00  0.00    +0.042 A 
ATOM      2  C   LIG    1      -35.513  73.593  27.717  0.00  0.00    +0.038 A 
ATOM      3  C   LIG    1      -36.383  72.540  27.408  0.00  0.00    +0.052 A 
ATOM      4  C   LIG    1      -35.965  71.251  27.747  0.00  0.00    +0.134 A 
ATOM      5  N   LIG    1      -34.792  70.960  28.354  0.00  0.00    -0.261 NA
ATOM      6  C   LIG    1      -33.988  72.000  28.651  0.00  0.00    +0.122 A 
ENDROOT
BRANCH   3   7
ATOM      7  N   LIG    1      -37.620  72.814  26.773  0.00  0.00    -0.284 N 
ATOM      8  H   LIG    1      -38.408  73.047  27.368  0.00  0.00    +0.155 HD
ATOM      9  C   LIG    1      -37.862  72.619  25.416  0.00  0.00    +0.222 C 
ATOM     10  O   LIG    1      -37.098  72.040  24.650  0.00  0.00    -0.275 OA
BRANCH   9  11
ATOM     11  C   LIG    1      -39.211  73.140  24.944  0.00  0.00    +0.131 C 
BRANCH  11  12
ATOM     12  C   LIG    1      -39.183  74.619  24.613  0.00  0.00    -0.038 A 
ATOM     13  C   LIG    1      -38.000  75.359  24.772  0.00  0.00    +0.007 A 
ATOM     14  C   LIG    1      -37.962  76.712  24.430  0.00  0.00    +0.038 A 
ATOM     15  C   LIG    1      -39.099  77.325  23.921  0.00  0.00    +0.123 A 
ATOM     16  F   LIG    1      -39.058  78.622  23.590  0.00  0.00    -0.205 F 
ATOM     17  C   LIG    1      -40.277  76.610  23.743  0.00  0.00    +0.038 A 
ATOM     18  C   LIG    1      -40.319  75.256  24.085  0.00  0.00    +0.007 A 
ENDBRANCH  11  12
ENDBRANCH   9  11
ENDBRANCH   3   7
BRANCH   1  19
ATOM     19  C   LIG    1      -33.376  74.425  28.762  0.00  0.00    +0.197 C 
ATOM     20  O   LIG    1      -32.274  74.120  29.230  0.00  0.00    -0.287 OA
BRANCH  19  28
ATOM     21  N   LIG    1      -34.846  77.808  28.896  0.00  0.00    -0.323 N 
ATOM     22  C   LIG    1      -33.877  78.006  27.929  0.00  0.00    +0.145 A 
ATOM     23  N   LIG    1      -33.605  79.161  27.298  0.00  0.00    -0.218 NA
ATOM     24  C   LIG    1      -32.612  79.037  26.400  0.00  0.00    +0.223 A 
ATOM     25  N   LIG    1      -31.918  77.931  26.079  0.00  0.00    -0.243 NA
ATOM     26  C   LIG    1      -32.225  76.789  26.731  0.00  0.00    +0.124 A 
ATOM     27  C   LIG    1      -33.226  76.792  27.709  0.00  0.00    +0.048 A 
ATOM     28  C   LIG    1      -33.774  75.823  28.597  0.00  0.00    +0.051 A 
ATOM     29  C   LIG    1      -34.821  76.460  29.248  0.00  0.00    +0.100 A 
BRANCH  21  30
ATOM     30  C   LIG    1      -35.852  78.781  29.399  0.00  0.00    +0.065 C 
ATOM     31  C   LIG    1      -36.991  77.999  30.090  0.00  0.00    +0.036 C 
ATOM     32  C   LIG    1      -35.216  79.726  30.459  0.00  0.00    +0.036 C 
BRANCH  30  33
ATOM     33  C   LIG    1      -36.454  79.717  28.301  0.00  0.00    +0.187 C 
BRANCH  33  35
ATOM     34  C   LIG    1      -38.407  79.429  26.960  0.00  0.00    +0.194 C 
ATOM     35  O   LIG    1      -37.124  78.926  27.301  0.00  0.00    -0.381 OA
ENDBRANCH  33  35
ENDBRANCH  30  33
ENDBRANCH  21  30
ENDBRANCH  19  28
ENDBRANCH   1  19
TORSDOF 8
ENDMDL
MODEL 4
REMARK VINA RESULT:      -5.7      1.896      2.230
REMARK  Name = pdb/CHEMBL3671415.pdb
REMARK                            x       y       z     vdW  Elec       q    Type
REMARK                         _______ _______ _______ _____ _____    ______ ____
ROOT
ATOM      1  C   LIG    1      -34.584  74.539  29.551  0.00  0.00    +0.042 A 
ATOM      2  C   LIG    1      -35.294  74.585  28.338  0.00  0.00    +0.038 A 
ATOM      3  C   LIG    1      -35.983  73.450  27.891  0.00  0.00    +0.052 A 
ATOM      4  C   LIG    1      -35.878  72.296  28.671  0.00  0.00    +0.134 A 
ATOM      5  N   LIG    1      -35.168  72.208  29.820  0.00  0.00    -0.261 NA
ATOM      6  C   LIG    1      -34.532  73.325  30.226  0.00  0.00    +0.122 A 
ENDROOT
BRANCH   3   7
ATOM      7  N   LIG    1      -36.736  73.512  26.693  0.00  0.00    -0.284 N 
ATOM      8  H   LIG    1      -36.222  73.538  25.819  0.00  0.00    +0.155 HD
ATOM      9  C   LIG    1      -38.114  73.708  26.645  0.00  0.00    +0.222 C 
ATOM     10  O   LIG    1      -38.806  74.012  27.611  0.00  0.00    -0.275 OA
BRANCH   9  11
ATOM     11  C   LIG    1      -38.713  73.571  25.254  0.00  0.00    +0.131 C 
BRANCH  11  12
ATOM     12  C   LIG    1      -39.083  74.908  24.643  0.00  0.00    -0.038 A 
ATOM     13  C   LIG    1      -40.362  75.110  24.101  0.00  0.00    +0.007 A 
ATOM     14  C   LIG    1      -40.718  76.353  23.574  0.00  0.00    +0.038 A 
ATOM     15  C   LIG    1      -39.802  77.397  23.595  0.00  0.00    +0.123 A 
ATOM     16  F   LIG    1      -40.147  78.589  23.091  0.00  0.00    -0.205 F 
ATOM     17  C   LIG    1      -38.535  77.223  24.137  0.00  0.00    +0.038 A 
ATOM     18  C   LIG    1      -38.176  75.981  24.665  0.00  0.00    +0.007 A 
ENDBRANCH  11  12
ENDBRANCH   9  11
ENDBRANCH   3   7
BRANCH   1  19
ATOM     19  C   LIG    1      -33.870  75.734  30.071  0.00  0.00    +0.197 C 
ATOM     20  O   LIG    1      -33.165  75.599  31.077  0.00  0.00    -0.287 OA
BRANCH  19  28
ATOM     21  N   LIG    1      -34.699  79.163  28.986  0.00  0.00    -0.323 N 
ATOM     22  C   LIG    1      -33.786  78.816  28.007  0.00  0.00    +0.145 A 
ATOM     23  N   LIG    1      -33.360  79.600  27.001  0.00  0.00    -0.218 NA
ATOM     24  C   LIG    1      -32.475  78.977  26.202  0.00  0.00    +0.223 A 
ATOM     25  N   LIG    1      -32.015  77.717  26.297  0.00  0.00    -0.243 NA
ATOM     26  C   LIG    1      -32.472  76.960  27.319  0.00  0.00    +0.124 A 
ATOM     27  C   LIG    1      -33.380  77.502  28.235  0.00  0.00    +0.048 A 
ATOM     28  C   LIG    1      -34.024  77.033  29.415  0.00  0.00    +0.051 A 
ATOM     29  C   LIG    1      -34.889  78.048  29.799  0.00  0.00    +0.100 A 
BRANCH  21  30
ATOM     30  C   LIG    1      -35.476  80.426  29.110  0.00  0.00    +0.065 C 
ATOM     31  C   LIG    1      -36.632  80.197  30.108  0.00  0.00    +0.036 C 
ATOM     32  C   LIG    1      -34.580  81.564  29.678  0.00  0.00    +0.036 C 
BRANCH  30  33
ATOM     33  C   LIG    1      -36.050  80.969  27.762  0.00  0.00    +0.187 C 
BRANCH  33  35
ATOM     34  C   LIG    1      -36.334  82.995  26.533  0.00  0.00    +0.194 C 
ATOM     35  O   LIG    1      -36.123  82.407  27.808  0.00  0.00    -0.381 OA
ENDBRANCH  33  35
ENDBRANCH  30  33
ENDBRANCH  21  30
ENDBRANCH  19  28
ENDBRANCH   1  19
TORSDOF 8
ENDMDL
MODEL 5
REMARK VINA RESULT:      -5.6      2.469      5.801
REMARK  Name = pdb/CHEMBL3671415.pdb
REMARK                            x       y       z     vdW  Elec       q    Type
REMARK                         _______ _______ _______ _____ _____    ______ ____
ROOT
ATOM      1  C   LIG    1      -37.559  79.991  28.404  0.00  0.00    +0.042 A 
ATOM      2  C   LIG    1      -37.897  79.166  27.316  0.00  0.00    +0.038 A 
ATOM      3  C   LIG    1      -38.980  79.505  26.496  0.00  0.00    +0.052 A 
ATOM      4  C   LIG    1      -39.710  80.642  26.847  0.00  0.00    +0.134 A 
ATOM      5  N   LIG    1      -39.437  81.432  27.911  0.00  0.00    -0.261 NA
ATOM      6  C   LIG    1      -38.378  81.083  28.668  0.00  0.00    +0.122 A 
ENDROOT
BRANCH   3   7
ATOM      7  N   LIG    1      -39.290  78.698  25.373  0.00  0.00    -0.284 N 
ATOM      8  H   LIG    1      -38.917  78.986  24.474  0.00  0.00    +0.155 HD
ATOM      9  C   LIG    1      -40.202  77.646  25.394  0.00  0.00    +0.222 C 
ATOM     10  O   LIG    1      -40.957  77.400  26.329  0.00  0.00    -0.275 OA
BRANCH   9  11
ATOM     11  C   LIG    1      -40.238  76.830  24.111  0.00  0.00    +0.131 C 
BRANCH  11  12
ATOM     12  C   LIG    1      -39.764  75.404  24.311  0.00  0.00    -0.038 A 
ATOM     13  C   LIG    1      -40.528  74.329  23.834  0.00  0.00    +0.007 A 
ATOM     14  C   LIG    1      -40.073  73.017  23.982  0.00  0.00    +0.038 A 
ATOM     15  C   LIG    1      -38.852  72.779  24.599  0.00  0.00    +0.123 A 
ATOM     16  F   LIG    1      -38.416  71.520  24.737  0.00  0.00    -0.205 F 
ATOM     17  C   LIG    1      -38.072  73.828  25.068  0.00  0.00    +0.038 A 
ATOM     18  C   LIG    1      -38.525  75.142  24.921  0.00  0.00    +0.007 A 
ENDBRANCH  11  12
ENDBRANCH   9  11
ENDBRANCH   3   7
BRANCH   1  19
ATOM     19  C   LIG    1      -36.396  79.679  29.275  0.00  0.00    +0.197 C 
ATOM     20  O   LIG    1      -36.229  80.364  30.291  0.00  0.00    -0.287 OA
BRANCH  19  28
ATOM     21  N   LIG    1      -34.494  76.553  28.797  0.00  0.00    -0.323 N 
ATOM     22  C   LIG    1      -33.791  77.393  27.952  0.00  0.00    +0.145 A 
ATOM     23  N   LIG    1      -32.739  77.054  27.186  0.00  0.00    -0.218 NA
ATOM     24  C   LIG    1      -32.260  78.093  26.479  0.00  0.00    +0.223 A 
ATOM     25  N   LIG    1      -32.696  79.365  26.477  0.00  0.00    -0.243 NA
ATOM     26  C   LIG    1      -33.751  79.667  27.264  0.00  0.00    +0.124 A 
ATOM     27  C   LIG    1      -34.355  78.665  28.033  0.00  0.00    +0.048 A 
ATOM     28  C   LIG    1      -35.469  78.605  28.918  0.00  0.00    +0.051 A 
ATOM     29  C   LIG    1      -35.471  77.316  29.432  0.00  0.00    +0.100 A 
BRANCH  21  30
ATOM     30  C   LIG    1      -34.211  75.128  29.118  0.00  0.00    +0.065 C 
ATOM     31  C   LIG    1      -34.853  74.794  30.483  0.00  0.00    +0.036 C 
ATOM     32  C   LIG    1      -34.850  74.191  28.053  0.00  0.00    +0.036 C 
BRANCH  30  33
ATOM     33  C   LIG    1      -32.692  74.761  29.152  0.00  0.00    +0.187 C 
BRANCH  33  35
ATOM     34  C   LIG    1      -31.176  72.970  29.591  0.00  0.00    +0.194 C 
ATOM     35  O   LIG    1      -32.535  73.375  29.513  0.00  0.00    -0.381 OA
ENDBRANCH  33  35
ENDBRANCH  30  33
ENDBRANCH  21  30
ENDBRANCH  19  28
ENDBRANCH   1  19
TORSDOF 8
ENDMDL
MODEL 6
REMARK VINA RESULT:      -5.4     19.383     23.347
REMARK  Name = pdb/CHEMBL3671415.pdb
REMARK                            x       y       z     vdW  Elec       q    Type
REMARK                         _______ _______ _______ _____ _____    ______ ____
ROOT
ATOM      1  C   LIG    1      -21.159  86.829  14.180  0.00  0.00    +0.042 A 
ATOM      2  C   LIG    1      -21.659  87.945  13.484  0.00  0.00    +0.038 A 
ATOM      3  C   LIG    1      -20.806  88.690  12.660  0.00  0.00    +0.052 A 
ATOM      4  C   LIG    1      -19.465  88.303  12.619  0.00  0.00    +0.134 A 
ATOM      5  N   LIG    1      -18.945  87.262  13.309  0.00  0.00    -0.261 NA
ATOM      6  C   LIG    1      -19.799  86.559  14.078  0.00  0.00    +0.122 A 
ENDROOT
BRANCH   3   7
ATOM      7  N   LIG    1      -21.322  89.785  11.922  0.00  0.00    -0.284 N 
ATOM      8  H   LIG    1      -21.250  90.706  12.342  0.00  0.00    +0.155 HD
ATOM      9  C   LIG    1      -22.063  89.658  10.751  0.00  0.00    +0.222 C 
ATOM     10  O   LIG    1      -22.494  88.596  10.313  0.00  0.00    -0.275 OA
BRANCH   9  11
ATOM     11  C   LIG    1      -22.362  90.979  10.058  0.00  0.00    +0.131 C 
BRANCH  11  12
ATOM     12  C   LIG    1      -23.579  91.678  10.631  0.00  0.00    -0.038 A 
ATOM     13  C   LIG    1      -24.595  90.936  11.252  0.00  0.00    +0.007 A 
ATOM     14  C   LIG    1      -25.698  91.580  11.815  0.00  0.00    +0.038 A 
ATOM     15  C   LIG    1      -25.782  92.966  11.767  0.00  0.00    +0.123 A 
ATOM     16  F   LIG    1      -26.840  93.582  12.311  0.00  0.00    -0.205 F 
ATOM     17  C   LIG    1      -24.783  93.722  11.169  0.00  0.00    +0.038 A 
ATOM     18  C   LIG    1      -23.678  93.080  10.604  0.00  0.00    +0.007 A 
ENDBRANCH  11  12
ENDBRANCH   9  11
ENDBRANCH   3   7
BRANCH   1  19
ATOM     19  C   LIG    1      -22.043  85.997  15.036  0.00  0.00    +0.197 C 
ATOM     20  O   LIG    1      -22.438  86.475  16.104  0.00  0.00    -0.287 OA
BRANCH  19  28
ATOM     21  N   LIG    1      -22.824  82.404  14.701  0.00  0.00    -0.323 N 
ATOM     22  C   LIG    1      -23.155  82.841  13.431  0.00  0.00    +0.145 A 
ATOM     23  N   LIG    1      -23.650  82.088  12.433  0.00  0.00    -0.218 NA
ATOM     24  C   LIG    1      -23.864  82.796  11.310  0.00  0.00    +0.223 A 
ATOM     25  N   LIG    1      -23.628  84.103  11.096  0.00  0.00    -0.243 NA
ATOM     26  C   LIG    1      -23.125  84.824  12.122  0.00  0.00    +0.124 A 
ATOM     27  C   LIG    1      -22.881  84.206  13.353  0.00  0.00    +0.048 A 
ATOM     28  C   LIG    1      -22.409  84.640  14.625  0.00  0.00    +0.051 A 
ATOM     29  C   LIG    1      -22.307  83.493  15.400  0.00  0.00    +0.100 A 
BRANCH  21  30
ATOM     30  C   LIG    1      -22.855  81.015  15.231  0.00  0.00    +0.065 C 
ATOM     31  C   LIG    1      -22.372  81.036  16.698  0.00  0.00    +0.036 C 
ATOM     32  C   LIG    1      -24.308  80.458  15.219  0.00  0.00    +0.036 C 
BRANCH  30  33
ATOM     33  C   LIG    1      -22.001  79.992  14.415  0.00  0.00    +0.187 C 
BRANCH  33  35
ATOM     34  C   LIG    1      -22.455  78.646  12.496  0.00  0.00    +0.194 C 
ATOM     35  O   LIG    1      -22.865  79.013  13.805  0.00  0.00    -0.381 OA
ENDBRANCH  33  35
ENDBRANCH  30  33
ENDBRANCH  21  30
ENDBRANCH  19  28
ENDBRANCH   1  19
TORSDOF 8
ENDMDL
MODEL 7
REMARK VINA RESULT:      -5.4      7.493     11.232
REMARK  Name = pdb/CHEMBL3671415.pdb
REMARK                            x       y       z     vdW  Elec       q    Type
REMARK                         _______ _______ _______ _____ _____    ______ ____
ROOT
ATOM      1  C   LIG    1      -29.170  75.628  31.988  0.00  0.00    +0.042 A 
ATOM      2  C   LIG    1      -27.834  75.332  31.662  0.00  0.00    +0.038 A 
ATOM      3  C   LIG    1      -26.793  76.032  32.286  0.00  0.00    +0.052 A 
ATOM      4  C   LIG    1      -27.155  77.045  33.176  0.00  0.00    +0.134 A 
ATOM      5  N   LIG    1      -28.429  77.383  33.478  0.00  0.00    -0.261 NA
ATOM      6  C   LIG    1      -29.404  76.677  32.872  0.00  0.00    +0.122 A 
ENDROOT
BRANCH   3   7
ATOM      7  N   LIG    1      -25.448  75.700  31.991  0.00  0.00    -0.284 N 
ATOM      8  H   LIG    1      -24.913  75.234  32.717  0.00  0.00    +0.155 HD
ATOM      9  C   LIG    1      -24.771  76.118  30.848  0.00  0.00    +0.222 C 
ATOM     10  O   LIG    1      -25.199  76.948  30.052  0.00  0.00    -0.275 OA
BRANCH   9  11
ATOM     11  C   LIG    1      -23.394  75.496  30.679  0.00  0.00    +0.131 C 
BRANCH  11  12
ATOM     12  C   LIG    1      -22.273  76.454  31.029  0.00  0.00    -0.038 A 
ATOM     13  C   LIG    1      -22.284  77.142  32.252  0.00  0.00    +0.007 A 
ATOM     14  C   LIG    1      -21.233  77.996  32.593  0.00  0.00    +0.038 A 
ATOM     15  C   LIG    1      -20.166  78.155  31.718  0.00  0.00    +0.123 A 
ATOM     16  F   LIG    1      -19.157  78.971  32.049  0.00  0.00    -0.205 F 
ATOM     17  C   LIG    1      -20.127  77.475  30.508  0.00  0.00    +0.038 A 
ATOM     18  C   LIG    1      -21.177  76.620  30.164  0.00  0.00    +0.007 A 
ENDBRANCH  11  12
ENDBRANCH   9  11
ENDBRANCH   3   7
BRANCH   1  19
ATOM     19  C   LIG    1      -30.297  74.882  31.372  0.00  0.00    +0.197 C 
ATOM     20  O   LIG    1      -30.230  73.649  31.338  0.00  0.00    -0.287 OA
BRANCH  19  28
ATOM     21  N   LIG    1      -32.771  76.702  29.325  0.00  0.00    -0.323 N 
ATOM     22  C   LIG    1      -33.491  76.556  30.496  0.00  0.00    +0.145 A 
ATOM     23  N   LIG    1      -34.752  76.969  30.714  0.00  0.00    -0.218 NA
ATOM     24  C   LIG    1      -35.178  76.692  31.960  0.00  0.00    +0.223 A 
ATOM     25  N   LIG    1      -34.499  76.092  32.953  0.00  0.00    -0.243 NA
ATOM     26  C   LIG    1      -33.233  75.697  32.697  0.00  0.00    +0.124 A 
ATOM     27  C   LIG    1      -32.681  75.907  31.428  0.00  0.00    +0.048 A 
ATOM     28  C   LIG    1      -31.439  75.601  30.804  0.00  0.00    +0.051 A 
ATOM     29  C   LIG    1      -31.499  76.178  29.543  0.00  0.00    +0.100 A 
BRANCH  21  30
ATOM     30  C   LIG    1      -33.177  77.410  28.081  0.00  0.00    +0.065 C 
ATOM     31  C   LIG    1      -33.597  78.850  28.447  0.00  0.00    +0.036 C 
ATOM     32  C   LIG    1      -31.981  77.503  27.091  0.00  0.00    +0.036 C 
BRANCH  30  33
ATOM     33  C   LIG    1      -34.331  76.716  27.288  0.00  0.00    +0.187 C 
BRANCH  33  35
ATOM     34  C   LIG    1      -36.692  76.918  26.996  0.00  0.00    +0.194 C 
ATOM     35  O   LIG    1      -35.464  77.602  27.203  0.00  0.00    -0.381 OA
ENDBRANCH  33  35
ENDBRANCH  30  33
ENDBRANCH  21  30
ENDBRANCH  19  28
ENDBRANCH   1  19
TORSDOF 8
ENDMDL
MODEL 8
REMARK VINA RESULT:      -5.4     10.709     13.704
REMARK  Name = pdb/CHEMBL3671415.pdb
REMARK                            x       y       z     vdW  Elec       q    Type
REMARK                         _______ _______ _______ _____ _____    ______ ____
ROOT
ATOM      1  C   LIG    1      -25.755  75.636  31.420  0.00  0.00    +0.042 A 
ATOM      2  C   LIG    1      -25.240  74.336  31.266  0.00  0.00    +0.038 A 
ATOM      3  C   LIG    1      -26.003  73.233  31.669  0.00  0.00    +0.052 A 
ATOM      4  C   LIG    1      -27.239  73.499  32.263  0.00  0.00    +0.134 A 
ATOM      5  N   LIG    1      -27.743  74.738  32.464  0.00  0.00    -0.261 NA
ATOM      6  C   LIG    1      -26.988  75.774  32.049  0.00  0.00    +0.122 A 
ENDROOT
BRANCH   3   7
ATOM      7  N   LIG    1      -25.503  71.922  31.469  0.00  0.00    -0.284 N 
ATOM      8  H   LIG    1      -24.528  71.756  31.695  0.00  0.00    +0.155 HD
ATOM      9  C   LIG    1      -26.208  70.905  30.832  0.00  0.00    +0.222 C 
ATOM     10  O   LIG    1      -27.265  71.065  30.229  0.00  0.00    -0.275 OA
BRANCH   9  11
ATOM     11  C   LIG    1      -25.526  69.547  30.888  0.00  0.00    +0.131 C 
BRANCH  11  12
ATOM     12  C   LIG    1      -24.343  69.448  29.946  0.00  0.00    -0.038 A 
ATOM     13  C   LIG    1      -24.516  69.642  28.567  0.00  0.00    +0.007 A 
ATOM     14  C   LIG    1      -23.420  69.590  27.703  0.00  0.00    +0.038 A 
ATOM     15  C   LIG    1      -22.151  69.355  28.216  0.00  0.00    +0.123 A 
ATOM     16  F   LIG    1      -21.101  69.310  27.385  0.00  0.00    -0.205 F 
ATOM     17  C   LIG    1      -21.954  69.173  29.578  0.00  0.00    +0.038 A 
ATOM     18  C   LIG    1      -23.048  69.224  30.446  0.00  0.00    +0.007 A 
ENDBRANCH  11  12
ENDBRANCH   9  11
ENDBRANCH   3   7
BRANCH   1  19
ATOM     19  C   LIG    1      -24.987  76.827  30.973  0.00  0.00    +0.197 C 
ATOM     20  O   LIG    1      -25.508  77.577  30.140  0.00  0.00    -0.287 OA
BRANCH  19  28
ATOM     21  N   LIG    1      -21.947  77.563  32.932  0.00  0.00    -0.323 N 
ATOM     22  C   LIG    1      -21.378  77.277  31.704  0.00  0.00    +0.145 A 
ATOM     23  N   LIG    1      -20.064  77.265  31.418  0.00  0.00    -0.218 NA
ATOM     24  C   LIG    1      -19.819  76.959  30.132  0.00  0.00    +0.223 A 
ATOM     25  N   LIG    1      -20.708  76.695  29.158  0.00  0.00    -0.243 NA
ATOM     26  C   LIG    1      -22.019  76.723  29.485  0.00  0.00    +0.124 A 
ATOM     27  C   LIG    1      -22.404  77.006  30.800  0.00  0.00    +0.048 A 
ATOM     28  C   LIG    1      -23.644  77.081  31.495  0.00  0.00    +0.051 A 
ATOM     29  C   LIG    1      -23.330  77.508  32.778  0.00  0.00    +0.100 A 
BRANCH  21  30
ATOM     30  C   LIG    1      -21.265  77.999  34.180  0.00  0.00    +0.065 C 
ATOM     31  C   LIG    1      -20.447  79.274  33.876  0.00  0.00    +0.036 C 
ATOM     32  C   LIG    1      -22.310  78.357  35.276  0.00  0.00    +0.036 C 
BRANCH  30  33
ATOM     33  C   LIG    1      -20.331  76.921  34.819  0.00  0.00    +0.187 C 
BRANCH  33  35
ATOM     34  C   LIG    1      -18.246  77.095  35.967  0.00  0.00    +0.194 C 
ATOM     35  O   LIG    1      -18.964  77.372  34.774  0.00  0.00    -0.381 OA
ENDBRANCH  33  35
ENDBRANCH  30  33
ENDBRANCH  21  30
ENDBRANCH  19  28
ENDBRANCH   1  19
TORSDOF 8
ENDMDL
MODEL 9
REMARK VINA RESULT:      -5.4     17.015     20.033
REMARK  Name = pdb/CHEMBL3671415.pdb
REMARK                            x       y       z     vdW  Elec       q    Type
REMARK                         _______ _______ _______ _____ _____    ______ ____
ROOT
ATOM      1  C   LIG    1      -20.663  80.768  15.738  0.00  0.00    +0.042 A 
ATOM      2  C   LIG    1      -20.979  79.403  15.610  0.00  0.00    +0.038 A 
ATOM      3  C   LIG    1      -19.955  78.466  15.419  0.00  0.00    +0.052 A 
ATOM      4  C   LIG    1      -18.654  78.961  15.311  0.00  0.00    +0.134 A 
ATOM      5  N   LIG    1      -18.322  80.271  15.387  0.00  0.00    -0.261 NA
ATOM      6  C   LIG    1      -19.332  81.141  15.587  0.00  0.00    +0.122 A 
ENDROOT
BRANCH   3   7
ATOM      7  N   LIG    1      -20.271  77.087  15.339  0.00  0.00    -0.284 N 
ATOM      8  H   LIG    1      -21.127  76.831  14.858  0.00  0.00    +0.155 HD
ATOM      9  C   LIG    1      -19.579  76.086  16.015  0.00  0.00    +0.222 C 
ATOM     10  O   LIG    1      -18.731  76.290  16.879  0.00  0.00    -0.275 OA
BRANCH   9  11
ATOM     11  C   LIG    1      -20.002  74.675  15.639  0.00  0.00    +0.131 C 
BRANCH  11  12
ATOM     12  C   LIG    1      -20.852  74.015  16.706  0.00  0.00    -0.038 A 
ATOM     13  C   LIG    1      -20.253  73.230  17.704  0.00  0.00    +0.007 A 
ATOM     14  C   LIG    1      -21.030  72.653  18.711  0.00  0.00    +0.038 A 
ATOM     15  C   LIG    1      -22.402  72.868  18.728  0.00  0.00    +0.123 A 
ATOM     16  F   LIG    1      -23.144  72.317  19.698  0.00  0.00    -0.205 F 
ATOM     17  C   LIG    1      -23.014  73.651  17.759  0.00  0.00    +0.038 A 
ATOM     18  C   LIG    1      -22.240  74.229  16.750  0.00  0.00    +0.007 A 
ENDBRANCH  11  12
ENDBRANCH   9  11
ENDBRANCH   3   7
BRANCH   1  19
ATOM     19  C   LIG    1      -21.720  81.784  15.974  0.00  0.00    +0.197 C 
ATOM     20  O   LIG    1      -22.076  81.994  17.139  0.00  0.00    -0.287 OA
BRANCH  19  28
ATOM     21  N   LIG    1      -22.678  84.024  13.201  0.00  0.00    -0.323 N 
ATOM     22  C   LIG    1      -23.681  83.077  13.102  0.00  0.00    +0.145 A 
ATOM     23  N   LIG    1      -24.666  83.053  12.188  0.00  0.00    -0.218 NA
ATOM     24  C   LIG    1      -25.498  82.009  12.353  0.00  0.00    +0.223 A 
ATOM     25  N   LIG    1      -25.451  81.054  13.298  0.00  0.00    -0.243 NA
ATOM     26  C   LIG    1      -24.449  81.116  14.202  0.00  0.00    +0.124 A 
ATOM     27  C   LIG    1      -23.503  82.144  14.122  0.00  0.00    +0.048 A 
ATOM     28  C   LIG    1      -22.330  82.495  14.849  0.00  0.00    +0.051 A 
ATOM     29  C   LIG    1      -21.900  83.699  14.310  0.00  0.00    +0.100 A 
BRANCH  21  30
ATOM     30  C   LIG    1      -22.501  85.261  12.394  0.00  0.00    +0.065 C 
ATOM     31  C   LIG    1      -21.275  86.030  12.933  0.00  0.00    +0.036 C 
ATOM     32  C   LIG    1      -22.220  84.906  10.906  0.00  0.00    +0.036 C 
BRANCH  30  33
ATOM     33  C   LIG    1      -23.744  86.208  12.378  0.00  0.00    +0.187 C 
BRANCH  33  35
ATOM     34  C   LIG    1      -24.579  87.825  10.833  0.00  0.00    +0.194 C 
ATOM     35  O   LIG    1      -24.121  86.494  11.017  0.00  0.00    -0.381 OA
ENDBRANCH  33  35
ENDBRANCH  30  33
ENDBRANCH  21  30
ENDBRANCH  19  28
ENDBRANCH   1  19
TORSDOF 8
ENDMDL
