MODEL 1
REMARK VINA RESULT:      -7.7      0.000      0.000
REMARK  Name = modded_pdb/CHEMBL2037208_nitrogen_modded_with_ethanol_version_2.pdb
REMARK                            x       y       z     vdW  Elec       q    Type
REMARK                         _______ _______ _______ _____ _____    ______ ____
ROOT
ATOM      1  N   LIG    1      -25.564  77.168  32.429  0.00  0.00    -0.298 N 
ENDROOT
BRANCH   1   2
ATOM      2  C   LIG    1      -24.726  77.963  33.283  0.00  0.00    +0.036 A 
ATOM      3  C   LIG    1      -25.263  78.678  34.372  0.00  0.00    +0.047 A 
ATOM      4  C   LIG    1      -24.442  79.522  35.107  0.00  0.00    +0.043 A 
ATOM      5  N   LIG    1      -24.824  80.353  36.154  0.00  0.00    -0.281 N 
ATOM      6  H   LIG    1      -25.759  80.457  36.516  0.00  0.00    +0.155 HD
ATOM      7  C   LIG    1      -23.746  81.069  36.669  0.00  0.00    +0.249 C 
ATOM      8  O   LIG    1      -23.774  81.834  37.587  0.00  0.00    -0.270 OA
ATOM      9  C   LIG    1      -22.555  80.620  35.841  0.00  0.00    +0.048 C 
ATOM     10  C   LIG    1      -21.265  80.985  35.916  0.00  0.00    +0.039 C 
ATOM     11  C   LIG    1      -23.076  79.651  34.862  0.00  0.00    +0.008 A 
ATOM     12  C   LIG    1      -22.497  78.919  33.853  0.00  0.00    +0.012 A 
ATOM     13  C   LIG    1      -23.321  78.078  33.085  0.00  0.00    +0.024 A 
BRANCH  10  14
ATOM     14  C   LIG    1      -20.673  81.915  36.811  0.00  0.00    +0.040 A 
ATOM     15  N   LIG    1      -20.878  83.271  36.698  0.00  0.00    -0.361 N 
ATOM     16  H   LIG    1      -21.377  83.726  35.941  0.00  0.00    +0.165 HD
ATOM     17  C   LIG    1      -20.222  83.933  37.705  0.00  0.00    +0.083 A 
ATOM     18  C   LIG    1      -19.581  82.996  38.482  0.00  0.00    +0.019 A 
ATOM     19  C   LIG    1      -19.879  81.727  37.930  0.00  0.00    +0.027 A 
ENDBRANCH  10  14
ENDBRANCH   1   2
BRANCH   1  22
ATOM     20  C   LIG    1      -29.247  76.314  31.953  0.00  0.00    +0.035 A 
ATOM     21  C   LIG    1      -27.928  76.747  31.695  0.00  0.00    +0.046 A 
ATOM     22  C   LIG    1      -26.909  76.735  32.681  0.00  0.00    +0.036 A 
ATOM     23  C   LIG    1      -27.293  76.267  33.950  0.00  0.00    +0.023 A 
ATOM     24  C   LIG    1      -28.584  75.800  34.213  0.00  0.00    +0.004 A 
ATOM     25  C   LIG    1      -29.557  75.832  33.221  0.00  0.00    +0.023 A 
BRANCH  20  27
ATOM     26  C   LIG    1      -30.915  75.351  30.360  0.00  0.00    +0.248 C 
ATOM     27  N   LIG    1      -30.206  76.407  30.910  0.00  0.00    -0.281 N 
ATOM     28  H   LIG    1      -30.313  77.314  30.478  0.00  0.00    +0.155 HD
ATOM     29  O   LIG    1      -30.759  74.159  30.600  0.00  0.00    -0.270 OA
BRANCH  26  32
ATOM     30  C   LIG    1      -32.648  77.360  27.686  0.00  0.00    +0.056 A 
ATOM     31  C   LIG    1      -31.773  76.950  28.701  0.00  0.00    +0.025 A 
ATOM     32  C   LIG    1      -31.912  75.699  29.315  0.00  0.00    +0.038 A 
ATOM     33  C   LIG    1      -32.920  74.827  28.891  0.00  0.00    +0.013 A 
ATOM     34  C   LIG    1      -33.794  75.220  27.872  0.00  0.00    +0.001 A 
ATOM     35  C   LIG    1      -33.662  76.482  27.277  0.00  0.00    +0.012 A 
BRANCH  30  37
ATOM     36  F   LIG    1      -31.400  79.414  27.599  0.00  0.00    -0.166 F 
ATOM     37  C   LIG    1      -32.457  78.727  27.088  0.00  0.00    +0.417 C 
ATOM     38  F   LIG    1      -32.250  78.663  25.743  0.00  0.00    -0.166 F 
ATOM     39  F   LIG    1      -33.545  79.524  27.260  0.00  0.00    -0.166 F 
ENDBRANCH  30  37
ENDBRANCH  26  32
ENDBRANCH  20  27
ENDBRANCH   1  22
BRANCH   1  40
ATOM     40  C   LIG    1      -25.063  76.966  31.045  0.00  0.00    +0.138 C 
BRANCH  40  41
ATOM     41  C   LIG    1      -25.007  78.270  30.231  0.00  0.00    +0.175 C 
BRANCH  41  42
ATOM     42  O   LIG    1      -23.784  78.320  29.497  0.00  0.00    -0.393 OA
ATOM     43  H   LIG    1      -23.181  78.914  29.981  0.00  0.00    +0.209 HD
ENDBRANCH  41  42
ENDBRANCH  40  41
ENDBRANCH   1  40
TORSDOF 9
ENDMDL
MODEL 2
REMARK VINA RESULT:      -7.5     10.467     17.643
REMARK  Name = modded_pdb/CHEMBL2037208_nitrogen_modded_with_ethanol_version_2.pdb
REMARK                            x       y       z     vdW  Elec       q    Type
REMARK                         _______ _______ _______ _____ _____    ______ ____
ROOT
ATOM      1  N   LIG    1      -40.170  72.274  24.384  0.00  0.00    -0.298 N 
ENDROOT
BRANCH   1   2
ATOM      2  C   LIG    1      -39.492  71.151  23.798  0.00  0.00    +0.036 A 
ATOM      3  C   LIG    1      -38.197  70.783  24.214  0.00  0.00    +0.047 A 
ATOM      4  C   LIG    1      -37.530  69.764  23.550  0.00  0.00    +0.043 A 
ATOM      5  N   LIG    1      -36.228  69.331  23.779  0.00  0.00    -0.281 N 
ATOM      6  H   LIG    1      -35.590  69.710  24.460  0.00  0.00    +0.155 HD
ATOM      7  C   LIG    1      -35.871  68.286  22.930  0.00  0.00    +0.249 C 
ATOM      8  O   LIG    1      -34.828  67.702  22.921  0.00  0.00    -0.270 OA
ATOM      9  C   LIG    1      -37.106  68.042  22.079  0.00  0.00    +0.048 C 
ATOM     10  C   LIG    1      -37.317  67.143  21.104  0.00  0.00    +0.039 C 
ATOM     11  C   LIG    1      -38.109  69.026  22.519  0.00  0.00    +0.008 A 
ATOM     12  C   LIG    1      -39.397  69.305  22.128  0.00  0.00    +0.012 A 
ATOM     13  C   LIG    1      -40.076  70.352  22.776  0.00  0.00    +0.024 A 
BRANCH  10  14
ATOM     14  C   LIG    1      -36.413  66.170  20.604  0.00  0.00    +0.040 A 
ATOM     15  N   LIG    1      -35.250  66.516  19.957  0.00  0.00    -0.361 N 
ATOM     16  H   LIG    1      -34.980  67.461  19.705  0.00  0.00    +0.165 HD
ATOM     17  C   LIG    1      -34.549  65.389  19.611  0.00  0.00    +0.083 A 
ATOM     18  C   LIG    1      -35.266  64.295  20.037  0.00  0.00    +0.019 A 
ATOM     19  C   LIG    1      -36.429  64.787  20.676  0.00  0.00    +0.027 A 
ENDBRANCH  10  14
ENDBRANCH   1   2
BRANCH   1  22
ATOM     20  C   LIG    1      -38.018  75.337  25.094  0.00  0.00    +0.035 A 
ATOM     21  C   LIG    1      -38.463  73.998  25.026  0.00  0.00    +0.046 A 
ATOM     22  C   LIG    1      -39.710  73.630  24.462  0.00  0.00    +0.036 A 
ATOM     23  C   LIG    1      -40.495  74.690  23.974  0.00  0.00    +0.023 A 
ATOM     24  C   LIG    1      -40.056  76.016  23.999  0.00  0.00    +0.004 A 
ATOM     25  C   LIG    1      -38.827  76.338  24.564  0.00  0.00    +0.023 A 
BRANCH  20  27
ATOM     26  C   LIG    1      -36.559  75.755  27.079  0.00  0.00    +0.248 C 
ATOM     27  N   LIG    1      -36.771  75.606  25.718  0.00  0.00    -0.281 N 
ATOM     28  H   LIG    1      -35.990  75.786  25.103  0.00  0.00    +0.155 HD
ATOM     29  O   LIG    1      -37.415  75.790  27.956  0.00  0.00    -0.270 OA
BRANCH  26  32
ATOM     30  C   LIG    1      -33.243  77.492  27.501  0.00  0.00    +0.056 A 
ATOM     31  C   LIG    1      -34.556  77.182  27.124  0.00  0.00    +0.025 A 
ATOM     32  C   LIG    1      -35.153  75.974  27.507  0.00  0.00    +0.038 A 
ATOM     33  C   LIG    1      -34.442  75.072  28.305  0.00  0.00    +0.013 A 
ATOM     34  C   LIG    1      -33.133  75.374  28.696  0.00  0.00    +0.001 A 
ATOM     35  C   LIG    1      -32.535  76.576  28.291  0.00  0.00    +0.012 A 
BRANCH  30  37
ATOM     36  F   LIG    1      -31.546  79.183  27.717  0.00  0.00    -0.166 F 
ATOM     37  C   LIG    1      -32.655  78.796  27.032  0.00  0.00    +0.417 C 
ATOM     38  F   LIG    1      -32.289  78.740  25.721  0.00  0.00    -0.166 F 
ATOM     39  F   LIG    1      -33.538  79.826  27.129  0.00  0.00    -0.166 F 
ENDBRANCH  30  37
ENDBRANCH  26  32
ENDBRANCH  20  27
ENDBRANCH   1  22
BRANCH   1  40
ATOM     40  C   LIG    1      -41.593  72.047  24.745  0.00  0.00    +0.138 C 
BRANCH  40  41
ATOM     41  C   LIG    1      -41.764  71.128  25.966  0.00  0.00    +0.175 C 
BRANCH  41  42
ATOM     42  O   LIG    1      -40.857  71.530  26.993  0.00  0.00    -0.393 OA
ATOM     43  H   LIG    1      -40.346  72.284  26.647  0.00  0.00    +0.209 HD
ENDBRANCH  41  42
ENDBRANCH  40  41
ENDBRANCH   1  40
TORSDOF 9
ENDMDL
MODEL 3
REMARK VINA RESULT:      -7.2      5.250     12.071
REMARK  Name = modded_pdb/CHEMBL2037208_nitrogen_modded_with_ethanol_version_2.pdb
REMARK                            x       y       z     vdW  Elec       q    Type
REMARK                         _______ _______ _______ _____ _____    ______ ____
ROOT
ATOM      1  N   LIG    1      -29.616  74.432  31.678  0.00  0.00    -0.298 N 
ENDROOT
BRANCH   1   2
ATOM      2  C   LIG    1      -30.718  74.754  30.814  0.00  0.00    +0.036 A 
ATOM      3  C   LIG    1      -30.744  75.958  30.083  0.00  0.00    +0.047 A 
ATOM      4  C   LIG    1      -31.872  76.286  29.346  0.00  0.00    +0.043 A 
ATOM      5  N   LIG    1      -32.093  77.461  28.636  0.00  0.00    -0.281 N 
ATOM      6  H   LIG    1      -31.456  78.240  28.569  0.00  0.00    +0.155 HD
ATOM      7  C   LIG    1      -33.337  77.465  28.010  0.00  0.00    +0.249 C 
ATOM      8  O   LIG    1      -33.780  78.330  27.313  0.00  0.00    -0.270 OA
ATOM      9  C   LIG    1      -33.955  76.126  28.374  0.00  0.00    +0.048 C 
ATOM     10  C   LIG    1      -35.143  75.603  28.031  0.00  0.00    +0.039 C 
ATOM     11  C   LIG    1      -32.975  75.442  29.234  0.00  0.00    +0.008 A 
ATOM     12  C   LIG    1      -32.964  74.225  29.875  0.00  0.00    +0.012 A 
ATOM     13  C   LIG    1      -31.836  73.890  30.645  0.00  0.00    +0.024 A 
BRANCH  10  14
ATOM     14  C   LIG    1      -36.153  76.188  27.223  0.00  0.00    +0.040 A 
ATOM     15  N   LIG    1      -36.488  75.682  25.988  0.00  0.00    -0.361 N 
ATOM     16  H   LIG    1      -36.003  74.926  25.515  0.00  0.00    +0.165 HD
ATOM     17  C   LIG    1      -37.511  76.411  25.440  0.00  0.00    +0.083 A 
ATOM     18  C   LIG    1      -37.847  77.407  26.329  0.00  0.00    +0.019 A 
ATOM     19  C   LIG    1      -37.004  77.255  27.456  0.00  0.00    +0.027 A 
ENDBRANCH  10  14
ENDBRANCH   1   2
BRANCH   1  22
ATOM     20  C   LIG    1      -26.513  76.438  32.607  0.00  0.00    +0.035 A 
ATOM     21  C   LIG    1      -27.378  75.535  31.951  0.00  0.00    +0.046 A 
ATOM     22  C   LIG    1      -28.728  75.343  32.339  0.00  0.00    +0.036 A 
ATOM     23  C   LIG    1      -29.161  76.108  33.437  0.00  0.00    +0.023 A 
ATOM     24  C   LIG    1      -28.330  77.033  34.075  0.00  0.00    +0.004 A 
ATOM     25  C   LIG    1      -27.011  77.190  33.666  0.00  0.00    +0.023 A 
BRANCH  20  27
ATOM     26  C   LIG    1      -24.740  77.003  30.940  0.00  0.00    +0.248 C 
ATOM     27  N   LIG    1      -25.165  76.525  32.168  0.00  0.00    -0.281 N 
ATOM     28  H   LIG    1      -24.467  76.121  32.778  0.00  0.00    +0.155 HD
ATOM     29  O   LIG    1      -25.447  77.327  29.993  0.00  0.00    -0.270 OA
BRANCH  26  32
ATOM     30  C   LIG    1      -21.095  77.580  31.698  0.00  0.00    +0.056 A 
ATOM     31  C   LIG    1      -22.491  77.520  31.793  0.00  0.00    +0.025 A 
ATOM     32  C   LIG    1      -23.270  77.054  30.725  0.00  0.00    +0.038 A 
ATOM     33  C   LIG    1      -22.647  76.611  29.554  0.00  0.00    +0.013 A 
ATOM     34  C   LIG    1      -21.252  76.657  29.450  0.00  0.00    +0.001 A 
ATOM     35  C   LIG    1      -20.481  77.145  30.514  0.00  0.00    +0.012 A 
BRANCH  30  37
ATOM     36  F   LIG    1      -20.191  77.233  33.900  0.00  0.00    -0.166 F 
ATOM     37  C   LIG    1      -20.322  78.115  32.873  0.00  0.00    +0.417 C 
ATOM     38  F   LIG    1      -19.056  78.474  32.520  0.00  0.00    -0.166 F 
ATOM     39  F   LIG    1      -20.892  79.230  33.403  0.00  0.00    -0.166 F 
ENDBRANCH  30  37
ENDBRANCH  26  32
ENDBRANCH  20  27
ENDBRANCH   1  22
BRANCH   1  40
ATOM     40  C   LIG    1      -29.532  73.012  32.108  0.00  0.00    +0.138 C 
BRANCH  40  41
ATOM     41  C   LIG    1      -28.418  72.232  31.389  0.00  0.00    +0.175 C 
BRANCH  41  42
ATOM     42  O   LIG    1      -27.398  71.889  32.327  0.00  0.00    -0.393 OA
ATOM     43  H   LIG    1      -27.580  70.980  32.631  0.00  0.00    +0.209 HD
ENDBRANCH  41  42
ENDBRANCH  40  41
ENDBRANCH   1  40
TORSDOF 9
ENDMDL
MODEL 4
REMARK VINA RESULT:      -7.1      7.980     11.021
REMARK  Name = modded_pdb/CHEMBL2037208_nitrogen_modded_with_ethanol_version_2.pdb
REMARK                            x       y       z     vdW  Elec       q    Type
REMARK                         _______ _______ _______ _____ _____    ______ ____
ROOT
ATOM      1  N   LIG    1      -33.945  77.151  28.506  0.00  0.00    -0.298 N 
ENDROOT
BRANCH   1   2
ATOM      2  C   LIG    1      -33.256  75.964  28.930  0.00  0.00    +0.036 A 
ATOM      3  C   LIG    1      -32.236  76.020  29.901  0.00  0.00    +0.047 A 
ATOM      4  C   LIG    1      -31.518  74.873  30.205  0.00  0.00    +0.043 A 
ATOM      5  N   LIG    1      -30.437  74.771  31.074  0.00  0.00    -0.281 N 
ATOM      6  H   LIG    1      -30.026  75.528  31.597  0.00  0.00    +0.155 HD
ATOM      7  C   LIG    1      -29.947  73.469  31.144  0.00  0.00    +0.249 C 
ATOM      8  O   LIG    1      -29.045  73.085  31.828  0.00  0.00    -0.270 OA
ATOM      9  C   LIG    1      -30.838  72.672  30.208  0.00  0.00    +0.048 C 
ATOM     10  C   LIG    1      -30.818  71.364  29.903  0.00  0.00    +0.039 C 
ATOM     11  C   LIG    1      -31.799  73.631  29.638  0.00  0.00    +0.008 A 
ATOM     12  C   LIG    1      -32.832  73.516  28.738  0.00  0.00    +0.012 A 
ATOM     13  C   LIG    1      -33.553  74.676  28.403  0.00  0.00    +0.024 A 
BRANCH  10  14
ATOM     14  C   LIG    1      -29.928  70.370  30.387  0.00  0.00    +0.040 A 
ATOM     15  N   LIG    1      -28.584  70.386  30.095  0.00  0.00    -0.361 N 
ATOM     16  H   LIG    1      -28.132  71.033  29.456  0.00  0.00    +0.165 HD
ATOM     17  C   LIG    1      -27.953  69.337  30.714  0.00  0.00    +0.083 A 
ATOM     18  C   LIG    1      -28.899  68.628  31.417  0.00  0.00    +0.019 A 
ATOM     19  C   LIG    1      -30.137  69.288  31.226  0.00  0.00    +0.027 A 
ENDBRANCH  10  14
ENDBRANCH   1   2
BRANCH   1  22
ATOM     20  C   LIG    1      -34.881  80.516  30.028  0.00  0.00    +0.035 A 
ATOM     21  C   LIG    1      -34.274  79.537  29.211  0.00  0.00    +0.046 A 
ATOM     22  C   LIG    1      -34.552  78.153  29.333  0.00  0.00    +0.036 A 
ATOM     23  C   LIG    1      -35.475  77.803  30.336  0.00  0.00    +0.023 A 
ATOM     24  C   LIG    1      -36.113  78.760  31.129  0.00  0.00    +0.004 A 
ATOM     25  C   LIG    1      -35.810  80.109  30.981  0.00  0.00    +0.023 A 
BRANCH  20  27
ATOM     26  C   LIG    1      -35.234  82.845  29.193  0.00  0.00    +0.248 C 
ATOM     27  N   LIG    1      -34.500  81.873  29.856  0.00  0.00    -0.281 N 
ATOM     28  H   LIG    1      -33.574  82.125  30.173  0.00  0.00    +0.155 HD
ATOM     29  O   LIG    1      -36.268  82.677  28.557  0.00  0.00    -0.270 OA
BRANCH  26  32
ATOM     30  C   LIG    1      -32.821  85.647  29.912  0.00  0.00    +0.056 A 
ATOM     31  C   LIG    1      -33.454  84.398  29.879  0.00  0.00    +0.025 A 
ATOM     32  C   LIG    1      -34.660  84.216  29.191  0.00  0.00    +0.038 A 
ATOM     33  C   LIG    1      -35.231  85.287  28.497  0.00  0.00    +0.013 A 
ATOM     34  C   LIG    1      -34.604  86.538  28.515  0.00  0.00    +0.001 A 
ATOM     35  C   LIG    1      -33.408  86.718  29.224  0.00  0.00    +0.012 A 
BRANCH  30  37
ATOM     36  F   LIG    1      -30.539  86.401  30.016  0.00  0.00    -0.166 F 
ATOM     37  C   LIG    1      -31.541  85.777  30.693  0.00  0.00    +0.417 C 
ATOM     38  F   LIG    1      -31.722  86.489  31.840  0.00  0.00    -0.166 F 
ATOM     39  F   LIG    1      -31.043  84.572  31.077  0.00  0.00    -0.166 F 
ENDBRANCH  30  37
ENDBRANCH  26  32
ENDBRANCH  20  27
ENDBRANCH   1  22
BRANCH   1  40
ATOM     40  C   LIG    1      -33.818  77.486  27.064  0.00  0.00    +0.138 C 
BRANCH  40  41
ATOM     41  C   LIG    1      -32.362  77.725  26.630  0.00  0.00    +0.175 C 
BRANCH  41  42
ATOM     42  O   LIG    1      -32.318  78.791  25.682  0.00  0.00    -0.393 OA
ATOM     43  H   LIG    1      -33.017  79.424  25.927  0.00  0.00    +0.209 HD
ENDBRANCH  41  42
ENDBRANCH  40  41
ENDBRANCH   1  40
TORSDOF 9
ENDMDL
MODEL 5
REMARK VINA RESULT:      -7.0     17.683     21.247
REMARK  Name = modded_pdb/CHEMBL2037208_nitrogen_modded_with_ethanol_version_2.pdb
REMARK                            x       y       z     vdW  Elec       q    Type
REMARK                         _______ _______ _______ _____ _____    ______ ____
ROOT
ATOM      1  N   LIG    1      -29.273  78.074  10.351  0.00  0.00    -0.298 N 
ENDROOT
BRANCH   1   2
ATOM      2  C   LIG    1      -28.186  78.486  11.195  0.00  0.00    +0.036 A 
ATOM      3  C   LIG    1      -28.012  77.937  12.481  0.00  0.00    +0.047 A 
ATOM      4  C   LIG    1      -27.018  78.437  13.309  0.00  0.00    +0.043 A 
ATOM      5  N   LIG    1      -26.763  78.066  14.625  0.00  0.00    -0.281 N 
ATOM      6  H   LIG    1      -27.278  77.382  15.157  0.00  0.00    +0.155 HD
ATOM      7  C   LIG    1      -25.690  78.771  15.165  0.00  0.00    +0.249 C 
ATOM      8  O   LIG    1      -25.233  78.640  16.262  0.00  0.00    -0.270 OA
ATOM      9  C   LIG    1      -25.224  79.683  14.043  0.00  0.00    +0.048 C 
ATOM     10  C   LIG    1      -24.217  80.571  14.015  0.00  0.00    +0.039 C 
ATOM     11  C   LIG    1      -26.123  79.426  12.905  0.00  0.00    +0.008 A 
ATOM     12  C   LIG    1      -26.212  79.941  11.633  0.00  0.00    +0.012 A 
ATOM     13  C   LIG    1      -27.230  79.460  10.792  0.00  0.00    +0.024 A 
BRANCH  10  14
ATOM     14  C   LIG    1      -23.312  80.895  15.059  0.00  0.00    +0.040 A 
ATOM     15  N   LIG    1      -22.457  79.965  15.602  0.00  0.00    -0.361 N 
ATOM     16  H   LIG    1      -22.453  78.974  15.381  0.00  0.00    +0.165 HD
ATOM     17  C   LIG    1      -21.672  80.549  16.563  0.00  0.00    +0.083 A 
ATOM     18  C   LIG    1      -22.021  81.876  16.648  0.00  0.00    +0.019 A 
ATOM     19  C   LIG    1      -23.040  82.097  15.690  0.00  0.00    +0.027 A 
ENDBRANCH  10  14
ENDBRANCH   1   2
BRANCH   1  22
ATOM     20  C   LIG    1      -32.623  79.797  10.924  0.00  0.00    +0.035 A 
ATOM     21  C   LIG    1      -31.241  79.588  10.725  0.00  0.00    +0.046 A 
ATOM     22  C   LIG    1      -30.675  78.299  10.559  0.00  0.00    +0.036 A 
ATOM     23  C   LIG    1      -31.580  77.224  10.612  0.00  0.00    +0.023 A 
ATOM     24  C   LIG    1      -32.955  77.414  10.772  0.00  0.00    +0.004 A 
ATOM     25  C   LIG    1      -33.472  78.694  10.935  0.00  0.00    +0.023 A 
BRANCH  20  27
ATOM     26  C   LIG    1      -34.008  81.792  10.336  0.00  0.00    +0.248 C 
ATOM     27  N   LIG    1      -33.085  81.125  11.125  0.00  0.00    -0.281 N 
ATOM     28  H   LIG    1      -32.633  81.653  11.859  0.00  0.00    +0.155 HD
ATOM     29  O   LIG    1      -34.496  81.397   9.283  0.00  0.00    -0.270 OA
BRANCH  26  32
ATOM     30  C   LIG    1      -36.152  84.598  11.650  0.00  0.00    +0.056 A 
ATOM     31  C   LIG    1      -35.708  83.350  11.193  0.00  0.00    +0.025 A 
ATOM     32  C   LIG    1      -34.384  83.161  10.776  0.00  0.00    +0.038 A 
ATOM     33  C   LIG    1      -33.477  84.224  10.844  0.00  0.00    +0.013 A 
ATOM     34  C   LIG    1      -33.906  85.472  11.308  0.00  0.00    +0.001 A 
ATOM     35  C   LIG    1      -35.237  85.659  11.704  0.00  0.00    +0.012 A 
BRANCH  30  37
ATOM     36  F   LIG    1      -38.161  85.918  11.698  0.00  0.00    -0.166 F 
ATOM     37  C   LIG    1      -37.593  84.736  12.058  0.00  0.00    +0.417 C 
ATOM     38  F   LIG    1      -38.368  83.761  11.505  0.00  0.00    -0.166 F 
ATOM     39  F   LIG    1      -37.764  84.630  13.403  0.00  0.00    -0.166 F 
ENDBRANCH  30  37
ENDBRANCH  26  32
ENDBRANCH  20  27
ENDBRANCH   1  22
BRANCH   1  40
ATOM     40  C   LIG    1      -28.887  77.560   9.012  0.00  0.00    +0.138 C 
BRANCH  40  41
ATOM     41  C   LIG    1      -29.529  78.351   7.858  0.00  0.00    +0.175 C 
BRANCH  41  42
ATOM     42  O   LIG    1      -28.886  79.619   7.736  0.00  0.00    -0.393 OA
ATOM     43  H   LIG    1      -28.247  79.690   8.469  0.00  0.00    +0.209 HD
ENDBRANCH  41  42
ENDBRANCH  40  41
ENDBRANCH   1  40
TORSDOF 9
ENDMDL
MODEL 6
REMARK VINA RESULT:      -7.0     10.733     18.388
REMARK  Name = modded_pdb/CHEMBL2037208_nitrogen_modded_with_ethanol_version_2.pdb
REMARK                            x       y       z     vdW  Elec       q    Type
REMARK                         _______ _______ _______ _____ _____    ______ ____
ROOT
ATOM      1  N   LIG    1      -39.066  71.265  24.814  0.00  0.00    -0.298 N 
ENDROOT
BRANCH   1   2
ATOM      2  C   LIG    1      -38.807  70.338  23.747  0.00  0.00    +0.036 A 
ATOM      3  C   LIG    1      -37.570  69.672  23.645  0.00  0.00    +0.047 A 
ATOM      4  C   LIG    1      -37.315  68.870  22.541  0.00  0.00    +0.043 A 
ATOM      5  N   LIG    1      -36.127  68.209  22.247  0.00  0.00    -0.281 N 
ATOM      6  H   LIG    1      -35.285  68.231  22.801  0.00  0.00    +0.155 HD
ATOM      7  C   LIG    1      -36.213  67.492  21.056  0.00  0.00    +0.249 C 
ATOM      8  O   LIG    1      -35.358  66.810  20.573  0.00  0.00    -0.270 OA
ATOM      9  C   LIG    1      -37.627  67.738  20.560  0.00  0.00    +0.048 C 
ATOM     10  C   LIG    1      -38.247  67.279  19.460  0.00  0.00    +0.039 C 
ATOM     11  C   LIG    1      -38.259  68.632  21.544  0.00  0.00    +0.008 A 
ATOM     12  C   LIG    1      -39.504  69.207  21.640  0.00  0.00    +0.012 A 
ATOM     13  C   LIG    1      -39.768  70.041  22.741  0.00  0.00    +0.024 A 
BRANCH  10  14
ATOM     14  C   LIG    1      -37.721  66.429  18.453  0.00  0.00    +0.040 A 
ATOM     15  N   LIG    1      -37.919  65.068  18.466  0.00  0.00    -0.361 N 
ATOM     16  H   LIG    1      -38.366  64.549  19.215  0.00  0.00    +0.165 HD
ATOM     17  C   LIG    1      -37.336  64.495  17.365  0.00  0.00    +0.083 A 
ATOM     18  C   LIG    1      -36.750  65.496  16.625  0.00  0.00    +0.019 A 
ATOM     19  C   LIG    1      -37.006  66.713  17.301  0.00  0.00    +0.027 A 
ENDBRANCH  10  14
ENDBRANCH   1   2
BRANCH   1  22
ATOM     20  C   LIG    1      -38.023  74.914  25.149  0.00  0.00    +0.035 A 
ATOM     21  C   LIG    1      -38.009  73.504  25.225  0.00  0.00    +0.046 A 
ATOM     22  C   LIG    1      -39.072  72.698  24.746  0.00  0.00    +0.036 A 
ATOM     23  C   LIG    1      -40.162  73.392  24.191  0.00  0.00    +0.023 A 
ATOM     24  C   LIG    1      -40.178  74.784  24.075  0.00  0.00    +0.004 A 
ATOM     25  C   LIG    1      -39.117  75.541  24.559  0.00  0.00    +0.023 A 
BRANCH  20  27
ATOM     26  C   LIG    1      -36.635  75.765  27.045  0.00  0.00    +0.248 C 
ATOM     27  N   LIG    1      -36.928  75.633  25.697  0.00  0.00    -0.281 N 
ATOM     28  H   LIG    1      -36.366  76.162  25.045  0.00  0.00    +0.155 HD
ATOM     29  O   LIG    1      -37.321  75.383  27.986  0.00  0.00    -0.270 OA
BRANCH  26  32
ATOM     30  C   LIG    1      -34.454  78.643  28.120  0.00  0.00    +0.056 A 
ATOM     31  C   LIG    1      -35.557  77.857  27.760  0.00  0.00    +0.025 A 
ATOM     32  C   LIG    1      -35.398  76.518  27.380  0.00  0.00    +0.038 A 
ATOM     33  C   LIG    1      -34.125  75.941  27.388  0.00  0.00    +0.013 A 
ATOM     34  C   LIG    1      -33.016  76.712  27.754  0.00  0.00    +0.001 A 
ATOM     35  C   LIG    1      -33.180  78.058  28.113  0.00  0.00    +0.012 A 
BRANCH  30  37
ATOM     36  F   LIG    1      -34.162  80.440  29.691  0.00  0.00    -0.166 F 
ATOM     37  C   LIG    1      -34.693  80.081  28.492  0.00  0.00    +0.417 C 
ATOM     38  F   LIG    1      -34.161  80.933  27.572  0.00  0.00    -0.166 F 
ATOM     39  F   LIG    1      -36.017  80.385  28.559  0.00  0.00    -0.166 F 
ENDBRANCH  30  37
ENDBRANCH  26  32
ENDBRANCH  20  27
ENDBRANCH   1  22
BRANCH   1  40
ATOM     40  C   LIG    1      -39.606  70.670  26.063  0.00  0.00    +0.138 C 
BRANCH  40  41
ATOM     41  C   LIG    1      -38.523  70.423  27.128  0.00  0.00    +0.175 C 
BRANCH  41  42
ATOM     42  O   LIG    1      -38.251  69.025  27.214  0.00  0.00    -0.393 OA
ATOM     43  H   LIG    1      -38.835  68.660  27.904  0.00  0.00    +0.209 HD
ENDBRANCH  41  42
ENDBRANCH  40  41
ENDBRANCH   1  40
TORSDOF 9
ENDMDL
MODEL 7
REMARK VINA RESULT:      -6.9     15.876     17.686
REMARK  Name = modded_pdb/CHEMBL2037208_nitrogen_modded_with_ethanol_version_2.pdb
REMARK                            x       y       z     vdW  Elec       q    Type
REMARK                         _______ _______ _______ _____ _____    ______ ____
ROOT
ATOM      1  N   LIG    1      -30.339  69.157  17.426  0.00  0.00    -0.298 N 
ENDROOT
BRANCH   1   2
ATOM      2  C   LIG    1      -29.027  69.741  17.453  0.00  0.00    +0.036 A 
ATOM      3  C   LIG    1      -28.409  70.203  16.274  0.00  0.00    +0.047 A 
ATOM      4  C   LIG    1      -27.099  70.658  16.322  0.00  0.00    +0.043 A 
ATOM      5  N   LIG    1      -26.320  71.072  15.248  0.00  0.00    -0.281 N 
ATOM      6  H   LIG    1      -26.606  71.089  14.281  0.00  0.00    +0.155 HD
ATOM      7  C   LIG    1      -25.045  71.465  15.650  0.00  0.00    +0.249 C 
ATOM      8  O   LIG    1      -24.177  71.891  14.947  0.00  0.00    -0.270 OA
ATOM      9  C   LIG    1      -25.042  71.275  17.157  0.00  0.00    +0.048 C 
ATOM     10  C   LIG    1      -24.071  71.510  18.054  0.00  0.00    +0.039 C 
ATOM     11  C   LIG    1      -26.371  70.747  17.508  0.00  0.00    +0.008 A 
ATOM     12  C   LIG    1      -26.960  70.373  18.693  0.00  0.00    +0.012 A 
ATOM     13  C   LIG    1      -28.278  69.887  18.655  0.00  0.00    +0.024 A 
BRANCH  10  14
ATOM     14  C   LIG    1      -22.762  72.002  17.812  0.00  0.00    +0.040 A 
ATOM     15  N   LIG    1      -21.827  71.280  17.107  0.00  0.00    -0.361 N 
ATOM     16  H   LIG    1      -21.948  70.327  16.782  0.00  0.00    +0.165 HD
ATOM     17  C   LIG    1      -20.665  71.999  16.991  0.00  0.00    +0.083 A 
ATOM     18  C   LIG    1      -20.845  73.204  17.629  0.00  0.00    +0.019 A 
ATOM     19  C   LIG    1      -22.169  73.212  18.130  0.00  0.00    +0.027 A 
ENDBRANCH  10  14
ENDBRANCH   1   2
BRANCH   1  22
ATOM     20  C   LIG    1      -32.189  66.643  19.610  0.00  0.00    +0.035 A 
ATOM     21  C   LIG    1      -31.776  67.858  19.022  0.00  0.00    +0.046 A 
ATOM     22  C   LIG    1      -30.763  67.929  18.033  0.00  0.00    +0.036 A 
ATOM     23  C   LIG    1      -30.178  66.702  17.671  0.00  0.00    +0.023 A 
ATOM     24  C   LIG    1      -30.599  65.486  18.216  0.00  0.00    +0.004 A 
ATOM     25  C   LIG    1      -31.594  65.459  19.186  0.00  0.00    +0.023 A 
BRANCH  20  27
ATOM     26  C   LIG    1      -34.549  66.575  20.428  0.00  0.00    +0.248 C 
ATOM     27  N   LIG    1      -33.182  66.684  20.625  0.00  0.00    -0.281 N 
ATOM     28  H   LIG    1      -32.862  66.897  21.559  0.00  0.00    +0.155 HD
ATOM     29  O   LIG    1      -35.136  66.535  19.352  0.00  0.00    -0.270 OA
BRANCH  26  32
ATOM     30  C   LIG    1      -35.544  67.203  24.007  0.00  0.00    +0.056 A 
ATOM     31  C   LIG    1      -34.819  67.124  22.811  0.00  0.00    +0.025 A 
ATOM     32  C   LIG    1      -35.394  66.587  21.651  0.00  0.00    +0.038 A 
ATOM     33  C   LIG    1      -36.722  66.150  21.674  0.00  0.00    +0.013 A 
ATOM     34  C   LIG    1      -37.459  66.232  22.860  0.00  0.00    +0.001 A 
ATOM     35  C   LIG    1      -36.871  66.751  24.022  0.00  0.00    +0.012 A 
BRANCH  30  37
ATOM     36  F   LIG    1      -33.923  66.941  25.765  0.00  0.00    -0.166 F 
ATOM     37  C   LIG    1      -34.856  67.767  25.221  0.00  0.00    +0.417 C 
ATOM     38  F   LIG    1      -34.210  68.932  24.936  0.00  0.00    -0.166 F 
ATOM     39  F   LIG    1      -35.730  68.061  26.221  0.00  0.00    -0.166 F 
ENDBRANCH  30  37
ENDBRANCH  26  32
ENDBRANCH  20  27
ENDBRANCH   1  22
BRANCH   1  40
ATOM     40  C   LIG    1      -31.420  70.033  16.904  0.00  0.00    +0.138 C 
BRANCH  40  41
ATOM     41  C   LIG    1      -31.585  71.330  17.714  0.00  0.00    +0.175 C 
BRANCH  41  42
ATOM     42  O   LIG    1      -32.703  72.063  17.214  0.00  0.00    -0.393 OA
ATOM     43  H   LIG    1      -33.487  71.492  17.307  0.00  0.00    +0.209 HD
ENDBRANCH  41  42
ENDBRANCH  40  41
ENDBRANCH   1  40
TORSDOF 9
ENDMDL
MODEL 8
REMARK VINA RESULT:      -6.9     10.388     15.525
REMARK  Name = modded_pdb/CHEMBL2037208_nitrogen_modded_with_ethanol_version_2.pdb
REMARK                            x       y       z     vdW  Elec       q    Type
REMARK                         _______ _______ _______ _____ _____    ______ ____
ROOT
ATOM      1  N   LIG    1      -40.729  77.868  23.991  0.00  0.00    -0.298 N 
ENDROOT
BRANCH   1   2
ATOM      2  C   LIG    1      -40.333  79.233  24.197  0.00  0.00    +0.036 A 
ATOM      3  C   LIG    1      -40.228  80.133  23.118  0.00  0.00    +0.047 A 
ATOM      4  C   LIG    1      -39.737  81.411  23.340  0.00  0.00    +0.043 A 
ATOM      5  N   LIG    1      -39.496  82.390  22.382  0.00  0.00    -0.281 N 
ATOM      6  H   LIG    1      -39.643  82.295  21.389  0.00  0.00    +0.155 HD
ATOM      7  C   LIG    1      -38.999  83.562  22.950  0.00  0.00    +0.249 C 
ATOM      8  O   LIG    1      -38.730  84.573  22.372  0.00  0.00    -0.270 OA
ATOM      9  C   LIG    1      -38.931  83.269  24.438  0.00  0.00    +0.048 C 
ATOM     10  C   LIG    1      -38.533  84.053  25.454  0.00  0.00    +0.039 C 
ATOM     11  C   LIG    1      -39.399  81.883  24.607  0.00  0.00    +0.008 A 
ATOM     12  C   LIG    1      -39.553  81.062  25.699  0.00  0.00    +0.012 A 
ATOM     13  C   LIG    1      -40.027  79.755  25.485  0.00  0.00    +0.024 A 
BRANCH  10  14
ATOM     14  C   LIG    1      -38.056  85.388  25.389  0.00  0.00    +0.040 A 
ATOM     15  N   LIG    1      -36.961  85.738  24.634  0.00  0.00    -0.361 N 
ATOM     16  H   LIG    1      -36.358  85.087  24.141  0.00  0.00    +0.165 HD
ATOM     17  C   LIG    1      -36.739  87.089  24.722  0.00  0.00    +0.083 A 
ATOM     18  C   LIG    1      -37.700  87.625  25.547  0.00  0.00    +0.019 A 
ATOM     19  C   LIG    1      -38.538  86.558  25.952  0.00  0.00    +0.027 A 
ENDBRANCH  10  14
ENDBRANCH   1   2
BRANCH   1  22
ATOM     20  C   LIG    1      -38.015  75.532  25.295  0.00  0.00    +0.035 A 
ATOM     21  C   LIG    1      -38.739  76.704  24.986  0.00  0.00    +0.046 A 
ATOM     22  C   LIG    1      -39.983  76.683  24.306  0.00  0.00    +0.036 A 
ATOM     23  C   LIG    1      -40.459  75.410  23.944  0.00  0.00    +0.023 A 
ATOM     24  C   LIG    1      -39.774  74.237  24.273  0.00  0.00    +0.004 A 
ATOM     25  C   LIG    1      -38.555  74.300  24.938  0.00  0.00    +0.023 A 
BRANCH  20  27
ATOM     26  C   LIG    1      -36.501  75.418  27.279  0.00  0.00    +0.248 C 
ATOM     27  N   LIG    1      -36.757  75.663  25.940  0.00  0.00    -0.281 N 
ATOM     28  H   LIG    1      -36.006  76.050  25.386  0.00  0.00    +0.155 HD
ATOM     29  O   LIG    1      -37.325  75.157  28.149  0.00  0.00    -0.270 OA
BRANCH  26  32
ATOM     30  C   LIG    1      -33.092  76.968  27.691  0.00  0.00    +0.056 A 
ATOM     31  C   LIG    1      -34.417  76.725  27.307  0.00  0.00    +0.025 A 
ATOM     32  C   LIG    1      -35.089  75.566  27.718  0.00  0.00    +0.038 A 
ATOM     33  C   LIG    1      -34.442  74.648  28.551  0.00  0.00    +0.013 A 
ATOM     34  C   LIG    1      -33.121  74.884  28.949  0.00  0.00    +0.001 A 
ATOM     35  C   LIG    1      -32.448  76.036  28.517  0.00  0.00    +0.012 A 
BRANCH  30  37
ATOM     36  F   LIG    1      -33.286  79.226  26.885  0.00  0.00    -0.166 F 
ATOM     37  C   LIG    1      -32.423  78.220  27.192  0.00  0.00    +0.417 C 
ATOM     38  F   LIG    1      -31.561  78.731  28.115  0.00  0.00    -0.166 F 
ATOM     39  F   LIG    1      -31.684  78.001  26.072  0.00  0.00    -0.166 F 
ENDBRANCH  30  37
ENDBRANCH  26  32
ENDBRANCH  20  27
ENDBRANCH   1  22
BRANCH   1  40
ATOM     40  C   LIG    1      -42.153  77.661  23.621  0.00  0.00    +0.138 C 
BRANCH  40  41
ATOM     41  C   LIG    1      -43.119  77.907  24.792  0.00  0.00    +0.175 C 
BRANCH  41  42
ATOM     42  O   LIG    1      -43.645  76.659  25.244  0.00  0.00    -0.393 OA
ATOM     43  H   LIG    1      -42.956  75.985  25.095  0.00  0.00    +0.209 HD
ENDBRANCH  41  42
ENDBRANCH  40  41
ENDBRANCH   1  40
TORSDOF 9
ENDMDL
MODEL 9
REMARK VINA RESULT:      -6.9     16.804     20.605
REMARK  Name = modded_pdb/CHEMBL2037208_nitrogen_modded_with_ethanol_version_2.pdb
REMARK                            x       y       z     vdW  Elec       q    Type
REMARK                         _______ _______ _______ _____ _____    ______ ____
ROOT
ATOM      1  N   LIG    1      -35.626  65.973  22.231  0.00  0.00    -0.298 N 
ENDROOT
BRANCH   1   2
ATOM      2  C   LIG    1      -36.836  66.731  22.076  0.00  0.00    +0.036 A 
ATOM      3  C   LIG    1      -38.067  66.095  21.817  0.00  0.00    +0.047 A 
ATOM      4  C   LIG    1      -39.193  66.864  21.564  0.00  0.00    +0.043 A 
ATOM      5  N   LIG    1      -40.458  66.402  21.217  0.00  0.00    -0.281 N 
ATOM      6  H   LIG    1      -40.723  65.437  21.096  0.00  0.00    +0.155 HD
ATOM      7  C   LIG    1      -41.360  67.447  21.030  0.00  0.00    +0.249 C 
ATOM      8  O   LIG    1      -42.519  67.345  20.755  0.00  0.00    -0.270 OA
ATOM      9  C   LIG    1      -40.554  68.705  21.302  0.00  0.00    +0.048 C 
ATOM     10  C   LIG    1      -40.931  69.993  21.274  0.00  0.00    +0.039 C 
ATOM     11  C   LIG    1      -39.187  68.257  21.618  0.00  0.00    +0.008 A 
ATOM     12  C   LIG    1      -38.024  68.917  21.936  0.00  0.00    +0.012 A 
ATOM     13  C   LIG    1      -36.869  68.151  22.171  0.00  0.00    +0.024 A 
BRANCH  10  14
ATOM     14  C   LIG    1      -42.213  70.521  20.969  0.00  0.00    +0.040 A 
ATOM     15  N   LIG    1      -43.318  70.250  21.741  0.00  0.00    -0.361 N 
ATOM     16  H   LIG    1      -43.342  69.600  22.520  0.00  0.00    +0.165 HD
ATOM     17  C   LIG    1      -44.414  70.909  21.246  0.00  0.00    +0.083 A 
ATOM     18  C   LIG    1      -44.017  71.617  20.135  0.00  0.00    +0.019 A 
ATOM     19  C   LIG    1      -42.630  71.387  19.972  0.00  0.00    +0.027 A 
ENDBRANCH  10  14
ENDBRANCH   1   2
BRANCH   1  22
ATOM     20  C   LIG    1      -32.643  66.491  19.917  0.00  0.00    +0.035 A 
ATOM     21  C   LIG    1      -33.648  66.726  20.881  0.00  0.00    +0.046 A 
ATOM     22  C   LIG    1      -34.604  65.747  21.250  0.00  0.00    +0.036 A 
ATOM     23  C   LIG    1      -34.498  64.511  20.586  0.00  0.00    +0.023 A 
ATOM     24  C   LIG    1      -33.488  64.248  19.657  0.00  0.00    +0.004 A 
ATOM     25  C   LIG    1      -32.571  65.236  19.319  0.00  0.00    +0.023 A 
BRANCH  20  27
ATOM     26  C   LIG    1      -31.845  68.359  18.461  0.00  0.00    +0.248 C 
ATOM     27  N   LIG    1      -31.760  67.553  19.585  0.00  0.00    -0.281 N 
ATOM     28  H   LIG    1      -30.954  67.670  20.182  0.00  0.00    +0.155 HD
ATOM     29  O   LIG    1      -32.618  68.226  17.519  0.00  0.00    -0.270 OA
BRANCH  26  32
ATOM     30  C   LIG    1      -28.519  70.111  18.715  0.00  0.00    +0.056 A 
ATOM     31  C   LIG    1      -29.543  69.158  18.798  0.00  0.00    +0.025 A 
ATOM     32  C   LIG    1      -30.840  69.449  18.355  0.00  0.00    +0.038 A 
ATOM     33  C   LIG    1      -31.117  70.698  17.791  0.00  0.00    +0.013 A 
ATOM     34  C   LIG    1      -30.101  71.656  17.694  0.00  0.00    +0.001 A 
ATOM     35  C   LIG    1      -28.811  71.365  18.159  0.00  0.00    +0.012 A 
BRANCH  30  37
ATOM     36  F   LIG    1      -26.693  68.547  18.775  0.00  0.00    -0.166 F 
ATOM     37  C   LIG    1      -27.156  69.741  19.234  0.00  0.00    +0.417 C 
ATOM     38  F   LIG    1      -26.219  70.667  18.889  0.00  0.00    -0.166 F 
ATOM     39  F   LIG    1      -27.122  69.664  20.591  0.00  0.00    -0.166 F 
ENDBRANCH  30  37
ENDBRANCH  26  32
ENDBRANCH  20  27
ENDBRANCH   1  22
BRANCH   1  40
ATOM     40  C   LIG    1      -35.293  65.573  23.622  0.00  0.00    +0.138 C 
BRANCH  40  41
ATOM     41  C   LIG    1      -34.815  66.751  24.488  0.00  0.00    +0.175 C 
BRANCH  41  42
ATOM     42  O   LIG    1      -35.719  66.939  25.576  0.00  0.00    -0.393 OA
ATOM     43  H   LIG    1      -35.647  66.154  26.150  0.00  0.00    +0.209 HD
ENDBRANCH  41  42
ENDBRANCH  40  41
ENDBRANCH   1  40
TORSDOF 9
ENDMDL
