MODEL 1
REMARK VINA RESULT:      -6.0      0.000      0.000
REMARK  Name = pdb/CHEMBL3666256.pdb
REMARK                            x       y       z     vdW  Elec       q    Type
REMARK                         _______ _______ _______ _____ _____    ______ ____
ROOT
ATOM      1  C   LIG    1      -20.542  77.020  30.634  0.00  0.00    +0.042 A 
ATOM      2  C   LIG    1      -20.664  78.005  31.631  0.00  0.00    +0.038 A 
ATOM      3  C   LIG    1      -19.538  78.405  32.368  0.00  0.00    +0.052 A 
ATOM      4  C   LIG    1      -18.313  77.840  32.016  0.00  0.00    +0.134 A 
ATOM      5  N   LIG    1      -18.154  76.920  31.033  0.00  0.00    -0.261 NA
ATOM      6  C   LIG    1      -19.271  76.514  30.389  0.00  0.00    +0.122 A 
ENDROOT
BRANCH   3   7
ATOM      7  N   LIG    1      -19.714  79.315  33.440  0.00  0.00    -0.283 N 
ATOM      8  H   LIG    1      -20.144  80.212  33.207  0.00  0.00    +0.155 HD
ATOM      9  C   LIG    1      -19.696  79.000  34.793  0.00  0.00    +0.239 C 
ATOM     10  O   LIG    1      -19.381  77.905  35.265  0.00  0.00    -0.273 OA
BRANCH   9  11
ATOM     11  C   LIG    1      -20.085  80.140  35.717  0.00  0.00    +0.239 C 
BRANCH  11  12
ATOM     12  N   LIG    1      -21.512  80.399  35.673  0.00  0.00    -0.262 N 
ATOM     13  N   LIG    1      -22.352  79.404  35.321  0.00  0.00    -0.167 NA
ATOM     14  C   LIG    1      -23.584  79.929  35.504  0.00  0.00    +0.165 A 
ATOM     15  C   LIG    1      -23.493  81.304  35.850  0.00  0.00    +0.053 A 
ATOM     16  C   LIG    1      -22.149  81.576  35.935  0.00  0.00    +0.109 A 
BRANCH  14  17
ATOM     17  C   LIG    1      -24.844  79.118  35.361  0.00  0.00    +0.436 C 
ATOM     18  F   LIG    1      -25.915  79.735  35.928  0.00  0.00    -0.164 F 
ATOM     19  F   LIG    1      -24.740  77.892  35.937  0.00  0.00    -0.164 F 
ATOM     20  F   LIG    1      -25.166  78.907  34.055  0.00  0.00    -0.164 F 
ENDBRANCH  14  17
ENDBRANCH  11  12
ENDBRANCH   9  11
ENDBRANCH   3   7
BRANCH   1  21
ATOM     21  C   LIG    1      -21.729  76.461  29.920  0.00  0.00    +0.197 C 
ATOM     22  O   LIG    1      -21.719  76.442  28.681  0.00  0.00    -0.287 OA
BRANCH  21  30
ATOM     23  N   LIG    1      -24.085  74.397  31.814  0.00  0.00    -0.329 N 
ATOM     24  C   LIG    1      -24.922  75.449  31.532  0.00  0.00    +0.147 A 
ATOM     25  N   LIG    1      -26.235  75.490  31.815  0.00  0.00    -0.197 NA
ATOM     26  C   LIG    1      -26.800  76.663  31.517  0.00  0.00    +0.214 A 
ATOM     27  N   LIG    1      -26.165  77.743  31.042  0.00  0.00    -0.222 NA
ATOM     28  C   LIG    1      -24.835  77.662  30.766  0.00  0.00    +0.126 A 
ATOM     29  C   LIG    1      -24.163  76.453  30.943  0.00  0.00    +0.048 A 
ATOM     30  C   LIG    1      -22.854  75.911  30.684  0.00  0.00    +0.051 A 
ATOM     31  C   LIG    1      -22.854  74.645  31.265  0.00  0.00    +0.100 A 
BRANCH  23  33
ATOM     32  C   LIG    1      -23.765  71.962  32.063  0.00  0.00    +0.030 C 
ATOM     33  C   LIG    1      -24.456  73.216  32.591  0.00  0.00    +0.083 C 
ATOM     34  C   LIG    1      -24.190  73.379  34.093  0.00  0.00    +0.030 C 
ENDBRANCH  23  33
BRANCH  26  35
ATOM     35  N   LIG    1      -28.172  76.761  31.670  0.00  0.00    -0.327 N 
ATOM     36  H   LIG    1      -28.430  77.725  31.832  0.00  0.00    +0.145 HD
ATOM     37  H   LIG    1      -28.477  76.087  32.360  0.00  0.00    +0.145 HD
ENDBRANCH  26  35
ENDBRANCH  21  30
ENDBRANCH   1  21
TORSDOF 8
ENDMDL
MODEL 2
REMARK VINA RESULT:      -5.5      3.200      8.159
REMARK  Name = pdb/CHEMBL3666256.pdb
REMARK                            x       y       z     vdW  Elec       q    Type
REMARK                         _______ _______ _______ _____ _____    ______ ____
ROOT
ATOM      1  C   LIG    1      -23.502  80.250  35.160  0.00  0.00    +0.042 A 
ATOM      2  C   LIG    1      -23.584  79.444  34.010  0.00  0.00    +0.038 A 
ATOM      3  C   LIG    1      -24.652  78.547  33.852  0.00  0.00    +0.052 A 
ATOM      4  C   LIG    1      -25.639  78.551  34.837  0.00  0.00    +0.134 A 
ATOM      5  N   LIG    1      -25.612  79.345  35.936  0.00  0.00    -0.261 NA
ATOM      6  C   LIG    1      -24.536  80.149  36.084  0.00  0.00    +0.122 A 
ENDROOT
BRANCH   3   7
ATOM      7  N   LIG    1      -24.646  77.669  32.740  0.00  0.00    -0.283 N 
ATOM      8  H   LIG    1      -23.784  77.144  32.582  0.00  0.00    +0.155 HD
ATOM      9  C   LIG    1      -25.763  77.189  32.068  0.00  0.00    +0.239 C 
ATOM     10  O   LIG    1      -26.922  77.569  32.251  0.00  0.00    -0.273 OA
BRANCH   9  11
ATOM     11  C   LIG    1      -25.471  76.127  31.023  0.00  0.00    +0.239 C 
BRANCH  11  12
ATOM     12  N   LIG    1      -24.056  75.810  30.966  0.00  0.00    -0.262 N 
ATOM     13  N   LIG    1      -23.225  76.623  30.281  0.00  0.00    -0.167 NA
ATOM     14  C   LIG    1      -21.994  76.127  30.532  0.00  0.00    +0.165 A 
ATOM     15  C   LIG    1      -22.084  74.919  31.274  0.00  0.00    +0.053 A 
ATOM     16  C   LIG    1      -23.424  74.738  31.523  0.00  0.00    +0.109 A 
BRANCH  14  17
ATOM     17  C   LIG    1      -20.732  76.810  30.073  0.00  0.00    +0.436 C 
ATOM     18  F   LIG    1      -20.673  78.103  30.488  0.00  0.00    -0.164 F 
ATOM     19  F   LIG    1      -20.612  76.820  28.720  0.00  0.00    -0.164 F 
ATOM     20  F   LIG    1      -19.618  76.197  30.558  0.00  0.00    -0.164 F 
ENDBRANCH  14  17
ENDBRANCH  11  12
ENDBRANCH   9  11
ENDBRANCH   3   7
BRANCH   1  21
ATOM     21  C   LIG    1      -22.318  81.116  35.440  0.00  0.00    +0.197 C 
ATOM     22  O   LIG    1      -22.500  82.332  35.598  0.00  0.00    -0.287 OA
BRANCH  21  30
ATOM     23  N   LIG    1      -19.212  79.214  35.076  0.00  0.00    -0.329 N 
ATOM     24  C   LIG    1      -19.021  79.666  36.359  0.00  0.00    +0.147 A 
ATOM     25  N   LIG    1      -18.006  79.306  37.163  0.00  0.00    -0.197 NA
ATOM     26  C   LIG    1      -18.003  79.958  38.328  0.00  0.00    +0.214 A 
ATOM     27  N   LIG    1      -18.858  80.925  38.691  0.00  0.00    -0.222 NA
ATOM     28  C   LIG    1      -19.875  81.260  37.851  0.00  0.00    +0.126 A 
ATOM     29  C   LIG    1      -20.035  80.571  36.648  0.00  0.00    +0.048 A 
ATOM     30  C   LIG    1      -20.984  80.519  35.567  0.00  0.00    +0.051 A 
ATOM     31  C   LIG    1      -20.413  79.681  34.611  0.00  0.00    +0.100 A 
BRANCH  23  33
ATOM     32  C   LIG    1      -18.579  76.897  34.505  0.00  0.00    +0.030 C 
ATOM     33  C   LIG    1      -18.269  78.382  34.332  0.00  0.00    +0.083 C 
ATOM     34  C   LIG    1      -18.198  78.741  32.843  0.00  0.00    +0.030 C 
ENDBRANCH  23  33
BRANCH  26  35
ATOM     35  N   LIG    1      -17.060  79.574  39.266  0.00  0.00    -0.327 N 
ATOM     36  H   LIG    1      -16.751  78.631  39.074  0.00  0.00    +0.145 HD
ATOM     37  H   LIG    1      -17.422  79.754  40.192  0.00  0.00    +0.145 HD
ENDBRANCH  26  35
ENDBRANCH  21  30
ENDBRANCH   1  21
TORSDOF 8
ENDMDL
MODEL 3
REMARK VINA RESULT:      -5.5     12.832     17.313
REMARK  Name = pdb/CHEMBL3666256.pdb
REMARK                            x       y       z     vdW  Elec       q    Type
REMARK                         _______ _______ _______ _____ _____    ______ ____
ROOT
ATOM      1  C   LIG    1      -34.696  71.804  28.237  0.00  0.00    +0.042 A 
ATOM      2  C   LIG    1      -35.525  71.520  27.135  0.00  0.00    +0.038 A 
ATOM      3  C   LIG    1      -35.249  70.416  26.313  0.00  0.00    +0.052 A 
ATOM      4  C   LIG    1      -34.182  69.598  26.681  0.00  0.00    +0.134 A 
ATOM      5  N   LIG    1      -33.390  69.820  27.759  0.00  0.00    -0.261 NA
ATOM      6  C   LIG    1      -33.648  70.928  28.489  0.00  0.00    +0.122 A 
ENDROOT
BRANCH   3   7
ATOM      7  N   LIG    1      -36.033  70.222  25.149  0.00  0.00    -0.283 N 
ATOM      8  H   LIG    1      -35.683  70.653  24.291  0.00  0.00    +0.155 HD
ATOM      9  C   LIG    1      -37.005  69.247  24.968  0.00  0.00    +0.239 C 
ATOM     10  O   LIG    1      -37.431  68.495  25.847  0.00  0.00    -0.273 OA
BRANCH   9  11
ATOM     11  C   LIG    1      -37.566  69.159  23.560  0.00  0.00    +0.239 C 
BRANCH  11  12
ATOM     12  N   LIG    1      -38.793  69.923  23.426  0.00  0.00    -0.262 N 
ATOM     13  N   LIG    1      -38.878  71.140  24.003  0.00  0.00    -0.167 NA
ATOM     14  C   LIG    1      -40.069  71.622  23.586  0.00  0.00    +0.165 A 
ATOM     15  C   LIG    1      -40.778  70.634  22.851  0.00  0.00    +0.053 A 
ATOM     16  C   LIG    1      -39.934  69.551  22.780  0.00  0.00    +0.109 A 
BRANCH  14  17
ATOM     17  C   LIG    1      -40.527  73.027  23.881  0.00  0.00    +0.436 C 
ATOM     18  F   LIG    1      -41.084  73.132  25.116  0.00  0.00    -0.164 F 
ATOM     19  F   LIG    1      -41.451  73.468  22.988  0.00  0.00    -0.164 F 
ATOM     20  F   LIG    1      -39.496  73.914  23.844  0.00  0.00    -0.164 F 
ENDBRANCH  14  17
ENDBRANCH  11  12
ENDBRANCH   9  11
ENDBRANCH   3   7
BRANCH   1  21
ATOM     21  C   LIG    1      -34.864  73.041  29.058  0.00  0.00    +0.197 C 
ATOM     22  O   LIG    1      -34.822  72.940  30.292  0.00  0.00    -0.287 OA
BRANCH  21  30
ATOM     23  N   LIG    1      -35.978  75.958  27.148  0.00  0.00    -0.329 N 
ATOM     24  C   LIG    1      -34.673  76.336  27.348  0.00  0.00    +0.147 A 
ATOM     25  N   LIG    1      -34.091  77.422  26.810  0.00  0.00    -0.197 NA
ATOM     26  C   LIG    1      -32.839  77.610  27.234  0.00  0.00    +0.214 A 
ATOM     27  N   LIG    1      -32.197  76.866  28.147  0.00  0.00    -0.222 NA
ATOM     28  C   LIG    1      -32.819  75.774  28.667  0.00  0.00    +0.126 A 
ATOM     29  C   LIG    1      -34.093  75.422  28.219  0.00  0.00    +0.048 A 
ATOM     30  C   LIG    1      -35.027  74.342  28.401  0.00  0.00    +0.051 A 
ATOM     31  C   LIG    1      -36.186  74.737  27.735  0.00  0.00    +0.100 A 
BRANCH  23  33
ATOM     32  C   LIG    1      -37.372  76.091  25.115  0.00  0.00    +0.030 C 
ATOM     33  C   LIG    1      -36.979  76.749  26.435  0.00  0.00    +0.083 C 
ATOM     34  C   LIG    1      -38.227  77.037  27.279  0.00  0.00    +0.030 C 
ENDBRANCH  23  33
BRANCH  26  35
ATOM     35  N   LIG    1      -32.122  78.640  26.651  0.00  0.00    -0.327 N 
ATOM     36  H   LIG    1      -32.652  79.036  25.887  0.00  0.00    +0.145 HD
ATOM     37  H   LIG    1      -31.189  78.313  26.435  0.00  0.00    +0.145 HD
ENDBRANCH  26  35
ENDBRANCH  21  30
ENDBRANCH   1  21
TORSDOF 8
ENDMDL
MODEL 4
REMARK VINA RESULT:      -5.5     18.155     20.068
REMARK  Name = pdb/CHEMBL3666256.pdb
REMARK                            x       y       z     vdW  Elec       q    Type
REMARK                         _______ _______ _______ _____ _____    ______ ____
ROOT
ATOM      1  C   LIG    1      -21.127  80.813  15.031  0.00  0.00    +0.042 A 
ATOM      2  C   LIG    1      -20.720  82.112  14.675  0.00  0.00    +0.038 A 
ATOM      3  C   LIG    1      -19.378  82.367  14.352  0.00  0.00    +0.052 A 
ATOM      4  C   LIG    1      -18.510  81.277  14.332  0.00  0.00    +0.134 A 
ATOM      5  N   LIG    1      -18.878  80.006  14.629  0.00  0.00    -0.261 NA
ATOM      6  C   LIG    1      -20.164  79.812  14.997  0.00  0.00    +0.122 A 
ENDROOT
BRANCH   3   7
ATOM      7  N   LIG    1      -18.979  83.704  14.109  0.00  0.00    -0.283 N 
ATOM      8  H   LIG    1      -18.563  84.203  14.897  0.00  0.00    +0.155 HD
ATOM      9  C   LIG    1      -18.767  84.283  12.863  0.00  0.00    +0.239 C 
ATOM     10  O   LIG    1      -19.035  83.759  11.780  0.00  0.00    -0.273 OA
BRANCH   9  11
ATOM     11  C   LIG    1      -18.176  85.681  12.903  0.00  0.00    +0.239 C 
BRANCH  11  12
ATOM     12  N   LIG    1      -19.185  86.679  13.206  0.00  0.00    -0.262 N 
ATOM     13  N   LIG    1      -20.214  86.351  14.015  0.00  0.00    -0.167 NA
ATOM     14  C   LIG    1      -20.880  87.513  14.192  0.00  0.00    +0.165 A 
ATOM     15  C   LIG    1      -20.325  88.535  13.377  0.00  0.00    +0.053 A 
ATOM     16  C   LIG    1      -19.248  87.960  12.746  0.00  0.00    +0.109 A 
BRANCH  14  17
ATOM     17  C   LIG    1      -22.038  87.650  15.146  0.00  0.00    +0.436 C 
ATOM     18  F   LIG    1      -23.073  86.834  14.812  0.00  0.00    -0.164 F 
ATOM     19  F   LIG    1      -22.527  88.917  15.187  0.00  0.00    -0.164 F 
ATOM     20  F   LIG    1      -21.687  87.327  16.420  0.00  0.00    -0.164 F 
ENDBRANCH  14  17
ENDBRANCH  11  12
ENDBRANCH   9  11
ENDBRANCH   3   7
BRANCH   1  21
ATOM     21  C   LIG    1      -22.508  80.519  15.517  0.00  0.00    +0.197 C 
ATOM     22  O   LIG    1      -22.709  80.482  16.740  0.00  0.00    -0.287 OA
BRANCH  21  30
ATOM     23  N   LIG    1      -25.079  80.822  12.929  0.00  0.00    -0.329 N 
ATOM     24  C   LIG    1      -25.502  79.644  13.494  0.00  0.00    +0.147 A 
ATOM     25  N   LIG    1      -26.631  78.992  13.170  0.00  0.00    -0.197 NA
ATOM     26  C   LIG    1      -26.764  77.825  13.804  0.00  0.00    +0.214 A 
ATOM     27  N   LIG    1      -25.869  77.277  14.639  0.00  0.00    -0.222 NA
ATOM     28  C   LIG    1      -24.738  77.969  14.945  0.00  0.00    +0.126 A 
ATOM     29  C   LIG    1      -24.543  79.246  14.419  0.00  0.00    +0.048 A 
ATOM     30  C   LIG    1      -23.599  80.324  14.556  0.00  0.00    +0.051 A 
ATOM     31  C   LIG    1      -23.964  81.264  13.594  0.00  0.00    +0.100 A 
BRANCH  23  33
ATOM     32  C   LIG    1      -25.607  83.000  11.894  0.00  0.00    +0.030 C 
ATOM     33  C   LIG    1      -25.715  81.481  11.791  0.00  0.00    +0.083 C 
ATOM     34  C   LIG    1      -25.173  80.999  10.439  0.00  0.00    +0.030 C 
ENDBRANCH  23  33
BRANCH  26  35
ATOM     35  N   LIG    1      -27.949  77.135  13.618  0.00  0.00    -0.327 N 
ATOM     36  H   LIG    1      -28.702  77.614  14.092  0.00  0.00    +0.145 HD
ATOM     37  H   LIG    1      -27.807  76.163  13.858  0.00  0.00    +0.145 HD
ENDBRANCH  26  35
ENDBRANCH  21  30
ENDBRANCH   1  21
TORSDOF 8
ENDMDL
MODEL 5
REMARK VINA RESULT:      -5.5     16.073     19.713
REMARK  Name = pdb/CHEMBL3666256.pdb
REMARK                            x       y       z     vdW  Elec       q    Type
REMARK                         _______ _______ _______ _____ _____    ______ ____
ROOT
ATOM      1  C   LIG    1      -40.060  70.321  22.984  0.00  0.00    +0.042 A 
ATOM      2  C   LIG    1      -38.719  70.005  23.265  0.00  0.00    +0.038 A 
ATOM      3  C   LIG    1      -37.988  69.188  22.389  0.00  0.00    +0.052 A 
ATOM      4  C   LIG    1      -38.625  68.778  21.219  0.00  0.00    +0.134 A 
ATOM      5  N   LIG    1      -39.903  69.099  20.897  0.00  0.00    -0.261 NA
ATOM      6  C   LIG    1      -40.594  69.834  21.796  0.00  0.00    +0.122 A 
ENDROOT
BRANCH   3   7
ATOM      7  N   LIG    1      -36.677  68.796  22.757  0.00  0.00    -0.283 N 
ATOM      8  H   LIG    1      -35.996  69.548  22.877  0.00  0.00    +0.155 HD
ATOM      9  C   LIG    1      -36.311  67.573  23.305  0.00  0.00    +0.239 C 
ATOM     10  O   LIG    1      -37.051  66.593  23.418  0.00  0.00    -0.273 OA
BRANCH   9  11
ATOM     11  C   LIG    1      -34.866  67.488  23.764  0.00  0.00    +0.239 C 
BRANCH  11  12
ATOM     12  N   LIG    1      -34.673  68.144  25.044  0.00  0.00    -0.262 N 
ATOM     13  N   LIG    1      -34.996  69.448  25.171  0.00  0.00    -0.167 NA
ATOM     14  C   LIG    1      -34.824  69.706  26.487  0.00  0.00    +0.165 A 
ATOM     15  C   LIG    1      -34.265  68.578  27.146  0.00  0.00    +0.053 A 
ATOM     16  C   LIG    1      -34.168  67.599  26.187  0.00  0.00    +0.109 A 
BRANCH  14  17
ATOM     17  C   LIG    1      -35.201  71.021  27.115  0.00  0.00    +0.436 C 
ATOM     18  F   LIG    1      -36.070  71.725  26.341  0.00  0.00    -0.164 F 
ATOM     19  F   LIG    1      -34.124  71.820  27.331  0.00  0.00    -0.164 F 
ATOM     20  F   LIG    1      -35.809  70.852  28.321  0.00  0.00    -0.164 F 
ENDBRANCH  14  17
ENDBRANCH  11  12
ENDBRANCH   9  11
ENDBRANCH   3   7
BRANCH   1  21
ATOM     21  C   LIG    1      -40.920  71.068  23.950  0.00  0.00    +0.197 C 
ATOM     22  O   LIG    1      -41.640  70.421  24.724  0.00  0.00    -0.287 OA
BRANCH  21  30
ATOM     23  N   LIG    1      -41.477  74.671  23.619  0.00  0.00    -0.329 N 
ATOM     24  C   LIG    1      -40.185  74.710  24.082  0.00  0.00    +0.147 A 
ATOM     25  N   LIG    1      -39.434  75.819  24.190  0.00  0.00    -0.197 NA
ATOM     26  C   LIG    1      -38.244  75.596  24.752  0.00  0.00    +0.214 A 
ATOM     27  N   LIG    1      -37.810  74.422  25.235  0.00  0.00    -0.222 NA
ATOM     28  C   LIG    1      -38.598  73.320  25.105  0.00  0.00    +0.126 A 
ATOM     29  C   LIG    1      -39.821  73.417  24.442  0.00  0.00    +0.048 A 
ATOM     30  C   LIG    1      -40.868  72.533  23.999  0.00  0.00    +0.051 A 
ATOM     31  C   LIG    1      -41.878  73.364  23.519  0.00  0.00    +0.100 A 
BRANCH  23  33
ATOM     32  C   LIG    1      -43.362  75.517  22.268  0.00  0.00    +0.030 C 
ATOM     33  C   LIG    1      -42.289  75.844  23.303  0.00  0.00    +0.083 C 
ATOM     34  C   LIG    1      -42.924  76.485  24.544  0.00  0.00    +0.030 C 
ENDBRANCH  23  33
BRANCH  26  35
ATOM     35  N   LIG    1      -37.359  76.658  24.803  0.00  0.00    -0.327 N 
ATOM     36  H   LIG    1      -36.721  76.535  25.577  0.00  0.00    +0.145 HD
ATOM     37  H   LIG    1      -37.880  77.524  24.777  0.00  0.00    +0.145 HD
ENDBRANCH  26  35
ENDBRANCH  21  30
ENDBRANCH   1  21
TORSDOF 8
ENDMDL
MODEL 6
REMARK VINA RESULT:      -5.4     19.717     21.999
REMARK  Name = pdb/CHEMBL3666256.pdb
REMARK                            x       y       z     vdW  Elec       q    Type
REMARK                         _______ _______ _______ _____ _____    ______ ____
ROOT
ATOM      1  C   LIG    1      -20.473  87.139  13.605  0.00  0.00    +0.042 A 
ATOM      2  C   LIG    1      -20.062  85.816  13.848  0.00  0.00    +0.038 A 
ATOM      3  C   LIG    1      -18.795  85.382  13.427  0.00  0.00    +0.052 A 
ATOM      4  C   LIG    1      -17.961  86.330  12.837  0.00  0.00    +0.134 A 
ATOM      5  N   LIG    1      -18.310  87.623  12.626  0.00  0.00    -0.261 NA
ATOM      6  C   LIG    1      -19.561  87.987  12.987  0.00  0.00    +0.122 A 
ENDROOT
BRANCH   3   7
ATOM      7  N   LIG    1      -18.456  84.016  13.585  0.00  0.00    -0.283 N 
ATOM      8  H   LIG    1      -18.170  83.725  14.522  0.00  0.00    +0.155 HD
ATOM      9  C   LIG    1      -18.799  82.981  12.723  0.00  0.00    +0.239 C 
ATOM     10  O   LIG    1      -19.327  83.121  11.618  0.00  0.00    -0.273 OA
BRANCH   9  11
ATOM     11  C   LIG    1      -18.454  81.591  13.227  0.00  0.00    +0.239 C 
BRANCH  11  12
ATOM     12  N   LIG    1      -19.169  81.273  14.448  0.00  0.00    -0.262 N 
ATOM     13  N   LIG    1      -20.331  81.906  14.716  0.00  0.00    -0.167 NA
ATOM     14  C   LIG    1      -20.791  81.298  15.832  0.00  0.00    +0.165 A 
ATOM     15  C   LIG    1      -19.833  80.371  16.325  0.00  0.00    +0.053 A 
ATOM     16  C   LIG    1      -18.799  80.392  15.420  0.00  0.00    +0.109 A 
BRANCH  14  17
ATOM     17  C   LIG    1      -22.145  81.594  16.421  0.00  0.00    +0.436 C 
ATOM     18  F   LIG    1      -23.106  81.695  15.464  0.00  0.00    -0.164 F 
ATOM     19  F   LIG    1      -22.160  82.756  17.125  0.00  0.00    -0.164 F 
ATOM     20  F   LIG    1      -22.551  80.616  17.275  0.00  0.00    -0.164 F 
ENDBRANCH  14  17
ENDBRANCH  11  12
ENDBRANCH   9  11
ENDBRANCH   3   7
BRANCH   1  21
ATOM     21  C   LIG    1      -21.858  87.609  13.907  0.00  0.00    +0.197 C 
ATOM     22  O   LIG    1      -22.157  87.848  15.086  0.00  0.00    -0.287 OA
BRANCH  21  30
ATOM     23  N   LIG    1      -24.189  88.929  11.412  0.00  0.00    -0.329 N 
ATOM     24  C   LIG    1      -24.500  87.597  11.292  0.00  0.00    +0.147 A 
ATOM     25  N   LIG    1      -25.495  87.099  10.538  0.00  0.00    -0.197 NA
ATOM     26  C   LIG    1      -25.528  85.765  10.526  0.00  0.00    +0.214 A 
ATOM     27  N   LIG    1      -24.651  84.951  11.131  0.00  0.00    -0.222 NA
ATOM     28  C   LIG    1      -23.658  85.492  11.887  0.00  0.00    +0.126 A 
ATOM     29  C   LIG    1      -23.589  86.875  12.054  0.00  0.00    +0.048 A 
ATOM     30  C   LIG    1      -22.817  87.821  12.817  0.00  0.00    +0.051 A 
ATOM     31  C   LIG    1      -23.212  89.077  12.363  0.00  0.00    +0.100 A 
BRANCH  23  33
ATOM     32  C   LIG    1      -25.965  90.642  11.380  0.00  0.00    +0.030 C 
ATOM     33  C   LIG    1      -24.797  90.005  10.632  0.00  0.00    +0.083 C 
ATOM     34  C   LIG    1      -23.789  91.079  10.204  0.00  0.00    +0.030 C 
ENDBRANCH  23  33
BRANCH  26  35
ATOM     35  N   LIG    1      -26.586  85.164   9.866  0.00  0.00    -0.327 N 
ATOM     36  H   LIG    1      -27.358  85.812   9.797  0.00  0.00    +0.145 HD
ATOM     37  H   LIG    1      -26.780  84.270  10.297  0.00  0.00    +0.145 HD
ENDBRANCH  26  35
ENDBRANCH  21  30
ENDBRANCH   1  21
TORSDOF 8
ENDMDL
MODEL 7
REMARK VINA RESULT:      -5.4     19.756     21.883
REMARK  Name = pdb/CHEMBL3666256.pdb
REMARK                            x       y       z     vdW  Elec       q    Type
REMARK                         _______ _______ _______ _____ _____    ______ ____
ROOT
ATOM      1  C   LIG    1      -20.708  87.302  13.536  0.00  0.00    +0.042 A 
ATOM      2  C   LIG    1      -20.249  86.034  13.937  0.00  0.00    +0.038 A 
ATOM      3  C   LIG    1      -18.946  85.622  13.612  0.00  0.00    +0.052 A 
ATOM      4  C   LIG    1      -18.132  86.542  12.954  0.00  0.00    +0.134 A 
ATOM      5  N   LIG    1      -18.531  87.786  12.591  0.00  0.00    -0.261 NA
ATOM      6  C   LIG    1      -19.811  88.123  12.864  0.00  0.00    +0.122 A 
ENDROOT
BRANCH   3   7
ATOM      7  N   LIG    1      -18.553  84.299  13.930  0.00  0.00    -0.283 N 
ATOM      8  H   LIG    1      -18.329  84.115  14.910  0.00  0.00    +0.155 HD
ATOM      9  C   LIG    1      -18.772  83.169  13.151  0.00  0.00    +0.239 C 
ATOM     10  O   LIG    1      -19.214  83.173  12.000  0.00  0.00    -0.273 OA
BRANCH   9  11
ATOM     11  C   LIG    1      -18.398  81.856  13.814  0.00  0.00    +0.239 C 
BRANCH  11  12
ATOM     12  N   LIG    1      -19.386  81.455  14.799  0.00  0.00    -0.262 N 
ATOM     13  N   LIG    1      -20.456  82.248  15.019  0.00  0.00    -0.167 NA
ATOM     14  C   LIG    1      -21.224  81.538  15.875  0.00  0.00    +0.165 A 
ATOM     15  C   LIG    1      -20.553  80.354  16.283  0.00  0.00    +0.053 A 
ATOM     16  C   LIG    1      -19.370  80.341  15.583  0.00  0.00    +0.109 A 
BRANCH  14  17
ATOM     17  C   LIG    1      -22.600  81.984  16.295  0.00  0.00    +0.436 C 
ATOM     18  F   LIG    1      -23.507  80.975  16.221  0.00  0.00    -0.164 F 
ATOM     19  F   LIG    1      -23.071  83.001  15.528  0.00  0.00    -0.164 F 
ATOM     20  F   LIG    1      -22.619  82.427  17.582  0.00  0.00    -0.164 F 
ENDBRANCH  14  17
ENDBRANCH  11  12
ENDBRANCH   9  11
ENDBRANCH   3   7
BRANCH   1  21
ATOM     21  C   LIG    1      -22.125  87.732  13.734  0.00  0.00    +0.197 C 
ATOM     22  O   LIG    1      -22.407  88.393  14.744  0.00  0.00    -0.287 OA
BRANCH  21  30
ATOM     23  N   LIG    1      -24.495  86.149  11.437  0.00  0.00    -0.329 N 
ATOM     24  C   LIG    1      -24.487  87.405  10.882  0.00  0.00    +0.147 A 
ATOM     25  N   LIG    1      -25.110  87.752   9.743  0.00  0.00    -0.197 NA
ATOM     26  C   LIG    1      -25.019  89.056   9.471  0.00  0.00    +0.214 A 
ATOM     27  N   LIG    1      -24.435  89.982  10.245  0.00  0.00    -0.222 NA
ATOM     28  C   LIG    1      -23.813  89.592  11.390  0.00  0.00    +0.126 A 
ATOM     29  C   LIG    1      -23.757  88.238  11.722  0.00  0.00    +0.048 A 
ATOM     30  C   LIG    1      -23.139  87.409  12.723  0.00  0.00    +0.051 A 
ATOM     31  C   LIG    1      -23.648  86.130  12.515  0.00  0.00    +0.100 A 
BRANCH  23  33
ATOM     32  C   LIG    1      -24.608  83.692  11.231  0.00  0.00    +0.030 C 
ATOM     33  C   LIG    1      -25.296  85.026  10.955  0.00  0.00    +0.083 C 
ATOM     34  C   LIG    1      -26.720  85.018  11.522  0.00  0.00    +0.030 C 
ENDBRANCH  23  33
BRANCH  26  35
ATOM     35  N   LIG    1      -25.535  89.488   8.261  0.00  0.00    -0.327 N 
ATOM     36  H   LIG    1      -25.297  88.829   7.533  0.00  0.00    +0.145 HD
ATOM     37  H   LIG    1      -25.265  90.450   8.110  0.00  0.00    +0.145 HD
ENDBRANCH  26  35
ENDBRANCH  21  30
ENDBRANCH   1  21
TORSDOF 8
ENDMDL
MODEL 8
REMARK VINA RESULT:      -5.4      7.538     11.310
REMARK  Name = pdb/CHEMBL3666256.pdb
REMARK                            x       y       z     vdW  Elec       q    Type
REMARK                         _______ _______ _______ _____ _____    ______ ____
ROOT
ATOM      1  C   LIG    1      -32.545  76.771  28.133  0.00  0.00    +0.042 A 
ATOM      2  C   LIG    1      -31.450  77.070  28.964  0.00  0.00    +0.038 A 
ATOM      3  C   LIG    1      -30.956  76.103  29.854  0.00  0.00    +0.052 A 
ATOM      4  C   LIG    1      -31.548  74.841  29.817  0.00  0.00    +0.134 A 
ATOM      5  N   LIG    1      -32.577  74.508  28.999  0.00  0.00    -0.261 NA
ATOM      6  C   LIG    1      -33.066  75.484  28.202  0.00  0.00    +0.122 A 
ENDROOT
BRANCH   3   7
ATOM      7  N   LIG    1      -29.927  76.471  30.756  0.00  0.00    -0.283 N 
ATOM      8  H   LIG    1      -29.192  77.073  30.383  0.00  0.00    +0.155 HD
ATOM      9  C   LIG    1      -29.990  76.401  32.142  0.00  0.00    +0.239 C 
ATOM     10  O   LIG    1      -30.897  75.872  32.788  0.00  0.00    -0.273 OA
BRANCH   9  11
ATOM     11  C   LIG    1      -28.808  77.023  32.865  0.00  0.00    +0.239 C 
BRANCH  11  12
ATOM     12  N   LIG    1      -27.549  76.651  32.248  0.00  0.00    -0.262 N 
ATOM     13  N   LIG    1      -26.860  77.576  31.546  0.00  0.00    -0.167 NA
ATOM     14  C   LIG    1      -25.703  76.955  31.226  0.00  0.00    +0.165 A 
ATOM     15  C   LIG    1      -25.741  75.592  31.625  0.00  0.00    +0.053 A 
ATOM     16  C   LIG    1      -26.946  75.428  32.266  0.00  0.00    +0.109 A 
BRANCH  14  17
ATOM     17  C   LIG    1      -24.560  77.664  30.548  0.00  0.00    +0.436 C 
ATOM     18  F   LIG    1      -23.469  77.757  31.354  0.00  0.00    -0.164 F 
ATOM     19  F   LIG    1      -24.886  78.928  30.171  0.00  0.00    -0.164 F 
ATOM     20  F   LIG    1      -24.155  77.014  29.423  0.00  0.00    -0.164 F 
ENDBRANCH  14  17
ENDBRANCH  11  12
ENDBRANCH   9  11
ENDBRANCH   3   7
BRANCH   1  21
ATOM     21  C   LIG    1      -33.195  77.805  27.272  0.00  0.00    +0.197 C 
ATOM     22  O   LIG    1      -32.773  77.962  26.118  0.00  0.00    -0.287 OA
BRANCH  21  30
ATOM     23  N   LIG    1      -35.456  80.285  28.734  0.00  0.00    -0.329 N 
ATOM     24  C   LIG    1      -36.321  79.219  28.702  0.00  0.00    +0.147 A 
ATOM     25  N   LIG    1      -37.559  79.211  29.226  0.00  0.00    -0.197 NA
ATOM     26  C   LIG    1      -38.226  78.080  28.981  0.00  0.00    +0.214 A 
ATOM     27  N   LIG    1      -37.784  77.051  28.243  0.00  0.00    -0.222 NA
ATOM     28  C   LIG    1      -36.525  77.095  27.731  0.00  0.00    +0.126 A 
ATOM     29  C   LIG    1      -35.700  78.186  28.010  0.00  0.00    +0.048 A 
ATOM     30  C   LIG    1      -34.334  78.576  27.783  0.00  0.00    +0.051 A 
ATOM     31  C   LIG    1      -34.243  79.892  28.229  0.00  0.00    +0.100 A 
BRANCH  23  33
ATOM     32  C   LIG    1      -34.565  82.337  29.778  0.00  0.00    +0.030 C 
ATOM     33  C   LIG    1      -35.792  81.622  29.217  0.00  0.00    +0.083 C 
ATOM     34  C   LIG    1      -36.474  82.490  28.152  0.00  0.00    +0.030 C 
ENDBRANCH  23  33
BRANCH  26  35
ATOM     35  N   LIG    1      -39.467  77.936  29.575  0.00  0.00    -0.327 N 
ATOM     36  H   LIG    1      -40.159  77.715  28.873  0.00  0.00    +0.145 HD
ATOM     37  H   LIG    1      -39.651  78.743  30.157  0.00  0.00    +0.145 HD
ENDBRANCH  26  35
ENDBRANCH  21  30
ENDBRANCH   1  21
TORSDOF 8
ENDMDL
MODEL 9
REMARK VINA RESULT:      -5.4     11.454     15.341
REMARK  Name = pdb/CHEMBL3666256.pdb
REMARK                            x       y       z     vdW  Elec       q    Type
REMARK                         _______ _______ _______ _____ _____    ______ ____
ROOT
ATOM      1  C   LIG    1      -32.198  85.802  31.004  0.00  0.00    +0.042 A 
ATOM      2  C   LIG    1      -32.811  85.102  29.949  0.00  0.00    +0.038 A 
ATOM      3  C   LIG    1      -33.793  84.136  30.220  0.00  0.00    +0.052 A 
ATOM      4  C   LIG    1      -34.168  83.966  31.552  0.00  0.00    +0.134 A 
ATOM      5  N   LIG    1      -33.628  84.654  32.588  0.00  0.00    -0.261 NA
ATOM      6  C   LIG    1      -32.641  85.529  32.293  0.00  0.00    +0.122 A 
ENDROOT
BRANCH   3   7
ATOM      7  N   LIG    1      -34.308  83.370  29.146  0.00  0.00    -0.283 N 
ATOM      8  H   LIG    1      -33.733  82.586  28.832  0.00  0.00    +0.155 HD
ATOM      9  C   LIG    1      -35.629  83.344  28.717  0.00  0.00    +0.239 C 
ATOM     10  O   LIG    1      -36.522  84.095  29.117  0.00  0.00    -0.273 OA
BRANCH   9  11
ATOM     11  C   LIG    1      -35.935  82.302  27.657  0.00  0.00    +0.239 C 
BRANCH  11  12
ATOM     12  N   LIG    1      -35.284  81.038  27.948  0.00  0.00    -0.262 N 
ATOM     13  N   LIG    1      -34.357  80.561  27.091  0.00  0.00    -0.167 NA
ATOM     14  C   LIG    1      -33.868  79.463  27.709  0.00  0.00    +0.165 A 
ATOM     15  C   LIG    1      -34.597  79.194  28.898  0.00  0.00    +0.053 A 
ATOM     16  C   LIG    1      -35.508  80.217  29.013  0.00  0.00    +0.109 A 
BRANCH  14  17
ATOM     17  C   LIG    1      -32.701  78.678  27.170  0.00  0.00    +0.436 C 
ATOM     18  F   LIG    1      -32.286  79.145  25.962  0.00  0.00    -0.164 F 
ATOM     19  F   LIG    1      -32.992  77.361  27.010  0.00  0.00    -0.164 F 
ATOM     20  F   LIG    1      -31.623  78.740  27.999  0.00  0.00    -0.164 F 
ENDBRANCH  14  17
ENDBRANCH  11  12
ENDBRANCH   9  11
ENDBRANCH   3   7
BRANCH   1  21
ATOM     21  C   LIG    1      -31.054  86.736  30.780  0.00  0.00    +0.197 C 
ATOM     22  O   LIG    1      -30.238  86.467  29.886  0.00  0.00    -0.287 OA
BRANCH  21  30
ATOM     23  N   LIG    1      -31.264  90.107  32.190  0.00  0.00    -0.329 N 
ATOM     24  C   LIG    1      -30.201  89.648  32.927  0.00  0.00    +0.147 A 
ATOM     25  N   LIG    1      -29.469  90.390  33.775  0.00  0.00    -0.197 NA
ATOM     26  C   LIG    1      -28.549  89.681  34.435  0.00  0.00    +0.214 A 
ATOM     27  N   LIG    1      -28.369  88.355  34.350  0.00  0.00    -0.222 NA
ATOM     28  C   LIG    1      -29.129  87.637  33.478  0.00  0.00    +0.126 A 
ATOM     29  C   LIG    1      -30.052  88.291  32.662  0.00  0.00    +0.048 A 
ATOM     30  C   LIG    1      -30.938  87.962  31.577  0.00  0.00    +0.051 A 
ATOM     31  C   LIG    1      -31.681  89.116  31.339  0.00  0.00    +0.100 A 
BRANCH  23  33
ATOM     32  C   LIG    1      -31.805  92.195  30.989  0.00  0.00    +0.030 C 
ATOM     33  C   LIG    1      -31.856  91.437  32.313  0.00  0.00    +0.083 C 
ATOM     34  C   LIG    1      -33.291  91.407  32.853  0.00  0.00    +0.030 C 
ENDBRANCH  23  33
BRANCH  26  35
ATOM     35  N   LIG    1      -27.674  90.380  35.247  0.00  0.00    -0.327 N 
ATOM     36  H   LIG    1      -27.044  90.929  34.679  0.00  0.00    +0.145 HD
ATOM     37  H   LIG    1      -27.251  89.740  35.906  0.00  0.00    +0.145 HD
ENDBRANCH  26  35
ENDBRANCH  21  30
ENDBRANCH   1  21
TORSDOF 8
ENDMDL
