MODEL 1
REMARK VINA RESULT:      -6.0      0.000      0.000
REMARK  Name = pdb/CHEMBL1982476.pdb
REMARK                            x       y       z     vdW  Elec       q    Type
REMARK                         _______ _______ _______ _____ _____    ______ ____
ROOT
ATOM      1  C   LIG    1      -32.927  77.113  28.750  0.00  0.00    -0.017 A 
ATOM      2  C   LIG    1      -32.383  77.763  27.629  0.00  0.00    +0.010 A 
ATOM      3  C   LIG    1      -32.817  79.042  27.260  0.00  0.00    +0.024 A 
ATOM      4  C   LIG    1      -33.804  79.697  28.004  0.00  0.00    +0.035 A 
ATOM      5  C   LIG    1      -34.279  79.089  29.160  0.00  0.00    +0.024 A 
ATOM      6  C   LIG    1      -33.820  77.829  29.542  0.00  0.00    +0.010 A 
ENDROOT
BRANCH   1  11
ATOM      7  C   LIG    1      -32.959  72.044  29.197  0.00  0.00    +0.069 A 
ATOM      8  C   LIG    1      -32.521  73.375  29.345  0.00  0.00    +0.037 A 
ATOM      9  S   LIG    1      -31.130  73.917  30.213  0.00  0.00    -0.095 S 
ATOM     10  C   LIG    1      -31.432  75.535  29.872  0.00  0.00    +0.055 A 
ATOM     11  C   LIG    1      -32.560  75.734  29.100  0.00  0.00    +0.000 A 
ATOM     12  C   LIG    1      -33.236  74.457  28.784  0.00  0.00    +0.037 A 
ATOM     13  C   LIG    1      -34.427  74.131  28.057  0.00  0.00    +0.125 A 
ATOM     14  N   LIG    1      -34.858  72.857  27.970  0.00  0.00    -0.239 NA
ATOM     15  C   LIG    1      -34.150  71.863  28.525  0.00  0.00    +0.127 A 
BRANCH   7  19
ATOM     16  C   LIG    1      -31.817  69.403  31.645  0.00  0.00    +0.128 C 
ATOM     17  N   LIG    1      -32.475  70.519  31.021  0.00  0.00    -0.314 N 
ATOM     18  H   LIG    1      -33.055  71.119  31.597  0.00  0.00    +0.149 HD
ATOM     19  C   LIG    1      -32.266  70.848  29.704  0.00  0.00    +0.246 C 
ATOM     20  O   LIG    1      -31.499  70.233  28.968  0.00  0.00    -0.270 OA
ENDBRANCH   7  19
BRANCH  13  21
ATOM     21  N   LIG    1      -35.257  75.008  27.374  0.00  0.00    -0.343 N 
ATOM     22  H   LIG    1      -35.237  74.906  26.368  0.00  0.00    +0.144 HD
ATOM     23  H   LIG    1      -36.186  74.952  27.783  0.00  0.00    +0.144 HD
ENDBRANCH  13  21
ENDBRANCH   1  11
BRANCH   4  24
ATOM     24  N   LIG    1      -34.257  80.945  27.539  0.00  0.00    -0.269 N 
ATOM     25  H   LIG    1      -33.543  81.634  27.380  0.00  0.00    +0.156 HD
ATOM     26  C   LIG    1      -35.576  81.307  27.268  0.00  0.00    +0.308 C 
ATOM     27  N   LIG    1      -35.625  82.630  26.844  0.00  0.00    -0.269 N 
ATOM     28  H   LIG    1      -34.738  83.094  26.726  0.00  0.00    +0.156 HD
ATOM     29  O   LIG    1      -36.547  80.586  27.393  0.00  0.00    -0.252 OA
BRANCH  27  30
ATOM     30  C   LIG    1      -36.771  83.392  26.540  0.00  0.00    +0.036 A 
ATOM     31  C   LIG    1      -37.068  83.571  25.183  0.00  0.00    +0.043 A 
ATOM     32  C   LIG    1      -38.174  84.332  24.798  0.00  0.00    +0.043 A 
ATOM     33 CL   LIG    1      -38.482  84.599  23.127  0.00  0.00    -0.083 Cl
ATOM     34  C   LIG    1      -39.017  84.891  25.753  0.00  0.00    +0.020 A 
ATOM     35  C   LIG    1      -38.738  84.705  27.104  0.00  0.00    +0.003 A 
ATOM     36  C   LIG    1      -37.605  83.983  27.493  0.00  0.00    +0.023 A 
ENDBRANCH  27  30
ENDBRANCH   4  24
TORSDOF 5
ENDMDL
MODEL 2
REMARK VINA RESULT:      -6.0      6.091      7.597
REMARK  Name = pdb/CHEMBL1982476.pdb
REMARK                            x       y       z     vdW  Elec       q    Type
REMARK                         _______ _______ _______ _____ _____    ______ ____
ROOT
ATOM      1  C   LIG    1      -38.404  74.020  25.227  0.00  0.00    -0.017 A 
ATOM      2  C   LIG    1      -37.809  73.932  26.497  0.00  0.00    +0.010 A 
ATOM      3  C   LIG    1      -37.052  74.993  27.009  0.00  0.00    +0.024 A 
ATOM      4  C   LIG    1      -36.875  76.162  26.262  0.00  0.00    +0.035 A 
ATOM      5  C   LIG    1      -37.534  76.280  25.044  0.00  0.00    +0.024 A 
ATOM      6  C   LIG    1      -38.314  75.233  24.553  0.00  0.00    +0.010 A 
ENDROOT
BRANCH   1  11
ATOM      7  C   LIG    1      -39.461  69.495  23.153  0.00  0.00    +0.069 A 
ATOM      8  C   LIG    1      -39.675  70.794  23.652  0.00  0.00    +0.037 A 
ATOM      9  S   LIG    1      -41.168  71.661  23.682  0.00  0.00    -0.095 S 
ATOM     10  C   LIG    1      -40.472  73.022  24.381  0.00  0.00    +0.055 A 
ATOM     11  C   LIG    1      -39.120  72.885  24.627  0.00  0.00    +0.000 A 
ATOM     12  C   LIG    1      -38.617  71.565  24.186  0.00  0.00    +0.037 A 
ATOM     13  C   LIG    1      -37.320  70.957  24.194  0.00  0.00    +0.125 A 
ATOM     14  N   LIG    1      -37.126  69.733  23.663  0.00  0.00    -0.239 NA
ATOM     15  C   LIG    1      -38.159  69.041  23.161  0.00  0.00    +0.127 A 
BRANCH   7  19
ATOM     16  C   LIG    1      -42.176  66.867  23.117  0.00  0.00    +0.128 C 
ATOM     17  N   LIG    1      -41.177  67.817  23.523  0.00  0.00    -0.314 N 
ATOM     18  H   LIG    1      -40.918  67.856  24.502  0.00  0.00    +0.149 HD
ATOM     19  C   LIG    1      -40.499  68.597  22.617  0.00  0.00    +0.246 C 
ATOM     20  O   LIG    1      -40.681  68.535  21.404  0.00  0.00    -0.270 OA
ENDBRANCH   7  19
BRANCH  13  21
ATOM     21  N   LIG    1      -36.149  71.489  24.715  0.00  0.00    -0.343 N 
ATOM     22  H   LIG    1      -35.502  70.801  25.076  0.00  0.00    +0.144 HD
ATOM     23  H   LIG    1      -35.750  72.119  24.023  0.00  0.00    +0.144 HD
ENDBRANCH  13  21
ENDBRANCH   1  11
BRANCH   4  24
ATOM     24  N   LIG    1      -36.039  77.161  26.794  0.00  0.00    -0.269 N 
ATOM     25  H   LIG    1      -35.057  77.043  26.618  0.00  0.00    +0.156 HD
ATOM     26  C   LIG    1      -36.436  78.286  27.516  0.00  0.00    +0.308 C 
ATOM     27  N   LIG    1      -35.319  79.026  27.887  0.00  0.00    -0.269 N 
ATOM     28  H   LIG    1      -34.431  78.702  27.536  0.00  0.00    +0.156 HD
ATOM     29  O   LIG    1      -37.582  78.578  27.795  0.00  0.00    -0.252 OA
BRANCH  27  30
ATOM     30  C   LIG    1      -35.286  80.190  28.682  0.00  0.00    +0.036 A 
ATOM     31  C   LIG    1      -35.545  81.405  28.034  0.00  0.00    +0.043 A 
ATOM     32  C   LIG    1      -35.509  82.605  28.746  0.00  0.00    +0.043 A 
ATOM     33 CL   LIG    1      -35.760  84.092  27.919  0.00  0.00    -0.083 Cl
ATOM     34  C   LIG    1      -35.255  82.611  30.114  0.00  0.00    +0.020 A 
ATOM     35  C   LIG    1      -35.013  81.407  30.769  0.00  0.00    +0.003 A 
ATOM     36  C   LIG    1      -35.001  80.207  30.050  0.00  0.00    +0.023 A 
ENDBRANCH  27  30
ENDBRANCH   4  24
TORSDOF 5
ENDMDL
MODEL 3
REMARK VINA RESULT:      -5.9      5.934     10.919
REMARK  Name = pdb/CHEMBL1982476.pdb
REMARK                            x       y       z     vdW  Elec       q    Type
REMARK                         _______ _______ _______ _____ _____    ______ ____
ROOT
ATOM      1  C   LIG    1      -37.650  75.792  26.637  0.00  0.00    -0.017 A 
ATOM      2  C   LIG    1      -38.023  75.712  25.284  0.00  0.00    +0.010 A 
ATOM      3  C   LIG    1      -38.326  74.477  24.696  0.00  0.00    +0.024 A 
ATOM      4  C   LIG    1      -38.262  73.300  25.448  0.00  0.00    +0.035 A 
ATOM      5  C   LIG    1      -37.976  73.391  26.804  0.00  0.00    +0.024 A 
ATOM      6  C   LIG    1      -37.707  74.626  27.393  0.00  0.00    +0.010 A 
ENDROOT
BRANCH   1  11
ATOM      7  C   LIG    1      -34.834  79.480  28.725  0.00  0.00    +0.069 A 
ATOM      8  C   LIG    1      -35.973  78.815  28.234  0.00  0.00    +0.037 A 
ATOM      9  S   LIG    1      -37.598  79.399  28.242  0.00  0.00    -0.095 S 
ATOM     10  C   LIG    1      -38.204  78.001  27.529  0.00  0.00    +0.055 A 
ATOM     11  C   LIG    1      -37.232  77.060  27.251  0.00  0.00    +0.000 A 
ATOM     12  C   LIG    1      -35.891  77.518  27.677  0.00  0.00    +0.037 A 
ATOM     13  C   LIG    1      -34.591  76.918  27.637  0.00  0.00    +0.125 A 
ATOM     14  N   LIG    1      -33.521  77.550  28.161  0.00  0.00    -0.239 NA
ATOM     15  C   LIG    1      -33.649  78.776  28.685  0.00  0.00    +0.127 A 
BRANCH   7  19
ATOM     16  C   LIG    1      -34.999  83.254  28.827  0.00  0.00    +0.128 C 
ATOM     17  N   LIG    1      -35.047  81.878  28.413  0.00  0.00    -0.314 N 
ATOM     18  H   LIG    1      -35.193  81.676  27.431  0.00  0.00    +0.149 HD
ATOM     19  C   LIG    1      -34.806  80.843  29.284  0.00  0.00    +0.246 C 
ATOM     20  O   LIG    1      -34.520  81.009  30.466  0.00  0.00    -0.270 OA
ENDBRANCH   7  19
BRANCH  13  21
ATOM     21  N   LIG    1      -34.253  75.689  27.090  0.00  0.00    -0.343 N 
ATOM     22  H   LIG    1      -33.426  75.703  26.508  0.00  0.00    +0.144 HD
ATOM     23  H   LIG    1      -34.226  75.002  27.840  0.00  0.00    +0.144 HD
ENDBRANCH  13  21
ENDBRANCH   1  11
BRANCH   4  24
ATOM     24  N   LIG    1      -38.499  72.083  24.782  0.00  0.00    -0.269 N 
ATOM     25  H   LIG    1      -39.463  71.809  24.709  0.00  0.00    +0.156 HD
ATOM     26  C   LIG    1      -37.543  71.243  24.212  0.00  0.00    +0.308 C 
ATOM     27  N   LIG    1      -38.164  70.126  23.664  0.00  0.00    -0.269 N 
ATOM     28  H   LIG    1      -39.172  70.119  23.687  0.00  0.00    +0.156 HD
ATOM     29  O   LIG    1      -36.344  71.441  24.202  0.00  0.00    -0.252 OA
BRANCH  27  30
ATOM     30  C   LIG    1      -37.548  69.013  23.058  0.00  0.00    +0.036 A 
ATOM     31  C   LIG    1      -37.492  69.004  21.658  0.00  0.00    +0.043 A 
ATOM     32  C   LIG    1      -36.918  67.926  20.982  0.00  0.00    +0.043 A 
ATOM     33 CL   LIG    1      -36.923  67.901  19.262  0.00  0.00    -0.083 Cl
ATOM     34  C   LIG    1      -36.358  66.865  21.686  0.00  0.00    +0.020 A 
ATOM     35  C   LIG    1      -36.395  66.872  23.077  0.00  0.00    +0.003 A 
ATOM     36  C   LIG    1      -37.011  67.927  23.757  0.00  0.00    +0.023 A 
ENDBRANCH  27  30
ENDBRANCH   4  24
TORSDOF 5
ENDMDL
MODEL 4
REMARK VINA RESULT:      -5.9      8.734     11.213
REMARK  Name = pdb/CHEMBL1982476.pdb
REMARK                            x       y       z     vdW  Elec       q    Type
REMARK                         _______ _______ _______ _____ _____    ______ ____
ROOT
ATOM      1  C   LIG    1      -40.876  73.799  24.250  0.00  0.00    -0.017 A 
ATOM      2  C   LIG    1      -39.563  73.331  24.065  0.00  0.00    +0.010 A 
ATOM      3  C   LIG    1      -38.535  73.718  24.933  0.00  0.00    +0.024 A 
ATOM      4  C   LIG    1      -38.797  74.579  26.003  0.00  0.00    +0.035 A 
ATOM      5  C   LIG    1      -40.110  74.971  26.235  0.00  0.00    +0.024 A 
ATOM      6  C   LIG    1      -41.137  74.558  25.387  0.00  0.00    +0.010 A 
ENDROOT
BRANCH   1  11
ATOM      7  C   LIG    1      -44.764  74.252  20.999  0.00  0.00    +0.069 A 
ATOM      8  C   LIG    1      -43.766  73.634  21.777  0.00  0.00    +0.037 A 
ATOM      9  S   LIG    1      -43.459  71.940  21.913  0.00  0.00    -0.095 S 
ATOM     10  C   LIG    1      -42.197  72.161  23.003  0.00  0.00    +0.055 A 
ATOM     11  C   LIG    1      -41.951  73.487  23.298  0.00  0.00    +0.000 A 
ATOM     12  C   LIG    1      -42.886  74.387  22.587  0.00  0.00    +0.037 A 
ATOM     13  C   LIG    1      -43.061  75.809  22.575  0.00  0.00    +0.125 A 
ATOM     14  N   LIG    1      -44.055  76.378  21.864  0.00  0.00    -0.239 NA
ATOM     15  C   LIG    1      -44.871  75.622  21.115  0.00  0.00    +0.127 A 
BRANCH   7  19
ATOM     16  C   LIG    1      -46.145  72.794  17.798  0.00  0.00    +0.128 C 
ATOM     17  N   LIG    1      -45.300  73.405  18.788  0.00  0.00    -0.314 N 
ATOM     18  H   LIG    1      -44.413  73.794  18.490  0.00  0.00    +0.149 HD
ATOM     19  C   LIG    1      -45.699  73.563  20.093  0.00  0.00    +0.246 C 
ATOM     20  O   LIG    1      -46.800  73.212  20.509  0.00  0.00    -0.270 OA
ENDBRANCH   7  19
BRANCH  13  21
ATOM     21  N   LIG    1      -42.289  76.753  23.236  0.00  0.00    -0.343 N 
ATOM     22  H   LIG    1      -42.028  76.494  24.178  0.00  0.00    +0.144 HD
ATOM     23  H   LIG    1      -41.506  77.001  22.637  0.00  0.00    +0.144 HD
ENDBRANCH  13  21
ENDBRANCH   1  11
BRANCH   4  24
ATOM     24  N   LIG    1      -37.710  74.995  26.792  0.00  0.00    -0.269 N 
ATOM     25  H   LIG    1      -37.620  74.539  27.683  0.00  0.00    +0.156 HD
ATOM     26  C   LIG    1      -36.753  75.953  26.457  0.00  0.00    +0.308 C 
ATOM     27  N   LIG    1      -35.849  76.102  27.503  0.00  0.00    -0.269 N 
ATOM     28  H   LIG    1      -35.962  75.475  28.284  0.00  0.00    +0.156 HD
ATOM     29  O   LIG    1      -36.713  76.578  25.416  0.00  0.00    -0.252 OA
BRANCH  27  30
ATOM     30  C   LIG    1      -34.778  77.015  27.587  0.00  0.00    +0.036 A 
ATOM     31  C   LIG    1      -35.060  78.271  28.140  0.00  0.00    +0.043 A 
ATOM     32  C   LIG    1      -34.058  79.238  28.239  0.00  0.00    +0.043 A 
ATOM     33 CL   LIG    1      -34.441  80.798  28.855  0.00  0.00    -0.083 Cl
ATOM     34  C   LIG    1      -32.759  78.959  27.828  0.00  0.00    +0.020 A 
ATOM     35  C   LIG    1      -32.466  77.708  27.292  0.00  0.00    +0.003 A 
ATOM     36  C   LIG    1      -33.477  76.752  27.148  0.00  0.00    +0.023 A 
ENDBRANCH  27  30
ENDBRANCH   4  24
TORSDOF 5
ENDMDL
MODEL 5
REMARK VINA RESULT:      -5.8     17.201     18.255
REMARK  Name = pdb/CHEMBL1982476.pdb
REMARK                            x       y       z     vdW  Elec       q    Type
REMARK                         _______ _______ _______ _____ _____    ______ ____
ROOT
ATOM      1  C   LIG    1      -23.720  79.044  14.590  0.00  0.00    -0.017 A 
ATOM      2  C   LIG    1      -23.033  79.565  15.701  0.00  0.00    +0.010 A 
ATOM      3  C   LIG    1      -22.921  80.948  15.890  0.00  0.00    +0.024 A 
ATOM      4  C   LIG    1      -23.493  81.837  14.974  0.00  0.00    +0.035 A 
ATOM      5  C   LIG    1      -24.243  81.321  13.925  0.00  0.00    +0.024 A 
ATOM      6  C   LIG    1      -24.379  79.943  13.758  0.00  0.00    +0.010 A 
ENDROOT
BRANCH   1  11
ATOM      7  C   LIG    1      -25.397  74.317  13.732  0.00  0.00    +0.069 A 
ATOM      8  C   LIG    1      -24.487  75.376  13.915  0.00  0.00    +0.037 A 
ATOM      9  S   LIG    1      -22.764  75.274  13.913  0.00  0.00    -0.095 S 
ATOM     10  C   LIG    1      -22.572  76.917  14.214  0.00  0.00    +0.055 A 
ATOM     11  C   LIG    1      -23.767  77.601  14.316  0.00  0.00    +0.000 A 
ATOM     12  C   LIG    1      -24.928  76.698  14.155  0.00  0.00    +0.037 A 
ATOM     13  C   LIG    1      -26.345  76.903  14.202  0.00  0.00    +0.125 A 
ATOM     14  N   LIG    1      -27.199  75.868  14.077  0.00  0.00    -0.239 NA
ATOM     15  C   LIG    1      -26.734  74.630  13.857  0.00  0.00    +0.127 A 
BRANCH   7  19
ATOM     16  C   LIG    1      -24.411  70.722  14.348  0.00  0.00    +0.128 C 
ATOM     17  N   LIG    1      -24.812  72.093  14.509  0.00  0.00    -0.314 N 
ATOM     18  H   LIG    1      -24.856  72.475  15.447  0.00  0.00    +0.149 HD
ATOM     19  C   LIG    1      -25.042  72.919  13.435  0.00  0.00    +0.246 C 
ATOM     20  O   LIG    1      -24.910  72.560  12.268  0.00  0.00    -0.270 OA
ENDBRANCH   7  19
BRANCH  13  21
ATOM     21  N   LIG    1      -27.011  78.110  14.365  0.00  0.00    -0.343 N 
ATOM     22  H   LIG    1      -27.533  78.186  15.227  0.00  0.00    +0.144 HD
ATOM     23  H   LIG    1      -26.347  78.864  14.207  0.00  0.00    +0.144 HD
ENDBRANCH  13  21
ENDBRANCH   1  11
BRANCH   4  24
ATOM     24  N   LIG    1      -23.279  83.213  15.174  0.00  0.00    -0.269 N 
ATOM     25  H   LIG    1      -23.704  83.604  15.997  0.00  0.00    +0.156 HD
ATOM     26  C   LIG    1      -22.535  84.069  14.363  0.00  0.00    +0.308 C 
ATOM     27  N   LIG    1      -22.572  85.360  14.880  0.00  0.00    -0.269 N 
ATOM     28  H   LIG    1      -23.044  85.473  15.763  0.00  0.00    +0.156 HD
ATOM     29  O   LIG    1      -21.948  83.749  13.348  0.00  0.00    -0.252 OA
BRANCH  27  30
ATOM     30  C   LIG    1      -22.007  86.524  14.322  0.00  0.00    +0.036 A 
ATOM     31  C   LIG    1      -22.850  87.323  13.538  0.00  0.00    +0.043 A 
ATOM     32  C   LIG    1      -22.360  88.481  12.932  0.00  0.00    +0.043 A 
ATOM     33 CL   LIG    1      -23.392  89.410  11.916  0.00  0.00    -0.083 Cl
ATOM     34  C   LIG    1      -21.042  88.881  13.128  0.00  0.00    +0.020 A 
ATOM     35  C   LIG    1      -20.202  88.102  13.918  0.00  0.00    +0.003 A 
ATOM     36  C   LIG    1      -20.675  86.916  14.488  0.00  0.00    +0.023 A 
ENDBRANCH  27  30
ENDBRANCH   4  24
TORSDOF 5
ENDMDL
MODEL 6
REMARK VINA RESULT:      -5.8     18.264     19.328
REMARK  Name = pdb/CHEMBL1982476.pdb
REMARK                            x       y       z     vdW  Elec       q    Type
REMARK                         _______ _______ _______ _____ _____    ______ ____
ROOT
ATOM      1  C   LIG    1      -21.734  79.382  15.211  0.00  0.00    -0.017 A 
ATOM      2  C   LIG    1      -22.002  80.210  16.314  0.00  0.00    +0.010 A 
ATOM      3  C   LIG    1      -22.444  81.526  16.133  0.00  0.00    +0.024 A 
ATOM      4  C   LIG    1      -22.628  82.040  14.845  0.00  0.00    +0.035 A 
ATOM      5  C   LIG    1      -22.445  81.194  13.758  0.00  0.00    +0.024 A 
ATOM      6  C   LIG    1      -22.035  79.874  13.945  0.00  0.00    +0.010 A 
ENDROOT
BRANCH   1  11
ATOM      7  C   LIG    1      -18.580  75.523  16.239  0.00  0.00    +0.069 A 
ATOM      8  C   LIG    1      -19.750  76.191  15.830  0.00  0.00    +0.037 A 
ATOM      9  S   LIG    1      -21.195  75.470  15.218  0.00  0.00    -0.095 S 
ATOM     10  C   LIG    1      -21.953  76.955  14.996  0.00  0.00    +0.055 A 
ATOM     11  C   LIG    1      -21.175  78.032  15.373  0.00  0.00    +0.000 A 
ATOM     12  C   LIG    1      -19.847  77.601  15.862  0.00  0.00    +0.037 A 
ATOM     13  C   LIG    1      -18.696  78.313  16.332  0.00  0.00    +0.125 A 
ATOM     14  N   LIG    1      -17.567  77.658  16.669  0.00  0.00    -0.239 NA
ATOM     15  C   LIG    1      -17.519  76.320  16.616  0.00  0.00    +0.127 A 
BRANCH   7  19
ATOM     16  C   LIG    1      -18.689  71.993  17.582  0.00  0.00    +0.128 C 
ATOM     17  N   LIG    1      -18.857  73.409  17.400  0.00  0.00    -0.314 N 
ATOM     18  H   LIG    1      -19.266  73.947  18.155  0.00  0.00    +0.149 HD
ATOM     19  C   LIG    1      -18.393  74.063  16.284  0.00  0.00    +0.246 C 
ATOM     20  O   LIG    1      -17.794  73.499  15.372  0.00  0.00    -0.270 OA
ENDBRANCH   7  19
BRANCH  13  21
ATOM     21  N   LIG    1      -18.574  79.684  16.507  0.00  0.00    -0.343 N 
ATOM     22  H   LIG    1      -18.966  80.238  15.757  0.00  0.00    +0.144 HD
ATOM     23  H   LIG    1      -18.925  79.920  17.431  0.00  0.00    +0.144 HD
ENDBRANCH  13  21
ENDBRANCH   1  11
BRANCH   4  24
ATOM     24  N   LIG    1      -22.996  83.392  14.725  0.00  0.00    -0.269 N 
ATOM     25  H   LIG    1      -23.887  83.637  15.121  0.00  0.00    +0.156 HD
ATOM     26  C   LIG    1      -22.251  84.412  14.134  0.00  0.00    +0.308 C 
ATOM     27  N   LIG    1      -22.958  85.608  14.192  0.00  0.00    -0.269 N 
ATOM     28  H   LIG    1      -23.831  85.586  14.696  0.00  0.00    +0.156 HD
ATOM     29  O   LIG    1      -21.154  84.283  13.628  0.00  0.00    -0.252 OA
BRANCH  27  30
ATOM     30  C   LIG    1      -22.584  86.853  13.648  0.00  0.00    +0.036 A 
ATOM     31  C   LIG    1      -23.261  87.267  12.493  0.00  0.00    +0.043 A 
ATOM     32  C   LIG    1      -22.935  88.478  11.880  0.00  0.00    +0.043 A 
ATOM     33 CL   LIG    1      -23.728  88.934  10.424  0.00  0.00    -0.083 Cl
ATOM     34  C   LIG    1      -21.962  89.309  12.426  0.00  0.00    +0.020 A 
ATOM     35  C   LIG    1      -21.295  88.913  13.582  0.00  0.00    +0.003 A 
ATOM     36  C   LIG    1      -21.587  87.680  14.173  0.00  0.00    +0.023 A 
ENDBRANCH  27  30
ENDBRANCH   4  24
TORSDOF 5
ENDMDL
MODEL 7
REMARK VINA RESULT:      -5.8      7.226     13.089
REMARK  Name = pdb/CHEMBL1982476.pdb
REMARK                            x       y       z     vdW  Elec       q    Type
REMARK                         _______ _______ _______ _____ _____    ______ ____
ROOT
ATOM      1  C   LIG    1      -39.356  82.412  23.875  0.00  0.00    -0.017 A 
ATOM      2  C   LIG    1      -39.489  81.952  25.197  0.00  0.00    +0.010 A 
ATOM      3  C   LIG    1      -39.705  80.595  25.466  0.00  0.00    +0.024 A 
ATOM      4  C   LIG    1      -39.792  79.671  24.419  0.00  0.00    +0.035 A 
ATOM      5  C   LIG    1      -39.575  80.114  23.120  0.00  0.00    +0.024 A 
ATOM      6  C   LIG    1      -39.328  81.462  22.860  0.00  0.00    +0.010 A 
ENDROOT
BRANCH   1  11
ATOM      7  C   LIG    1      -37.675  87.212  23.698  0.00  0.00    +0.069 A 
ATOM      8  C   LIG    1      -38.496  86.096  23.443  0.00  0.00    +0.037 A 
ATOM      9  S   LIG    1      -39.949  86.070  22.511  0.00  0.00    -0.095 S 
ATOM     10  C   LIG    1      -40.205  84.430  22.784  0.00  0.00    +0.055 A 
ATOM     11  C   LIG    1      -39.227  83.843  23.562  0.00  0.00    +0.000 A 
ATOM     12  C   LIG    1      -38.201  84.823  23.980  0.00  0.00    +0.037 A 
ATOM     13  C   LIG    1      -37.026  84.726  24.795  0.00  0.00    +0.125 A 
ATOM     14  N   LIG    1      -36.282  85.816  25.069  0.00  0.00    -0.239 NA
ATOM     15  C   LIG    1      -36.605  87.006  24.543  0.00  0.00    +0.127 A 
BRANCH   7  19
ATOM     16  C   LIG    1      -37.379  90.135  21.321  0.00  0.00    +0.128 C 
ATOM     17  N   LIG    1      -37.300  88.836  21.933  0.00  0.00    -0.314 N 
ATOM     18  H   LIG    1      -36.743  88.123  21.477  0.00  0.00    +0.149 HD
ATOM     19  C   LIG    1      -37.871  88.567  23.153  0.00  0.00    +0.246 C 
ATOM     20  O   LIG    1      -38.474  89.407  23.816  0.00  0.00    -0.270 OA
ENDBRANCH   7  19
BRANCH  13  21
ATOM     21  N   LIG    1      -36.504  83.580  25.378  0.00  0.00    -0.343 N 
ATOM     22  H   LIG    1      -36.104  83.724  26.296  0.00  0.00    +0.144 HD
ATOM     23  H   LIG    1      -37.212  82.851  25.338  0.00  0.00    +0.144 HD
ENDBRANCH  13  21
ENDBRANCH   1  11
BRANCH   4  24
ATOM     24  N   LIG    1      -40.090  78.336  24.747  0.00  0.00    -0.269 N 
ATOM     25  H   LIG    1      -40.912  78.200  25.308  0.00  0.00    +0.156 HD
ATOM     26  C   LIG    1      -39.375  77.202  24.362  0.00  0.00    +0.308 C 
ATOM     27  N   LIG    1      -39.970  76.065  24.897  0.00  0.00    -0.269 N 
ATOM     28  H   LIG    1      -40.833  76.207  25.399  0.00  0.00    +0.156 HD
ATOM     29  O   LIG    1      -38.374  77.198  23.673  0.00  0.00    -0.252 OA
BRANCH  27  30
ATOM     30  C   LIG    1      -39.518  74.734  24.801  0.00  0.00    +0.036 A 
ATOM     31  C   LIG    1      -40.313  73.848  24.062  0.00  0.00    +0.043 A 
ATOM     32  C   LIG    1      -39.945  72.507  23.938  0.00  0.00    +0.043 A 
ATOM     33 CL   LIG    1      -40.971  71.420  23.087  0.00  0.00    -0.083 Cl
ATOM     34  C   LIG    1      -38.768  72.038  24.512  0.00  0.00    +0.020 A 
ATOM     35  C   LIG    1      -37.964  72.915  25.234  0.00  0.00    +0.003 A 
ATOM     36  C   LIG    1      -38.352  74.248  25.401  0.00  0.00    +0.023 A 
ENDBRANCH  27  30
ENDBRANCH   4  24
TORSDOF 5
ENDMDL
MODEL 8
REMARK VINA RESULT:      -5.8      8.871     11.137
REMARK  Name = pdb/CHEMBL1982476.pdb
REMARK                            x       y       z     vdW  Elec       q    Type
REMARK                         _______ _______ _______ _____ _____    ______ ____
ROOT
ATOM      1  C   LIG    1      -41.060  74.101  24.113  0.00  0.00    -0.017 A 
ATOM      2  C   LIG    1      -39.782  73.544  23.939  0.00  0.00    +0.010 A 
ATOM      3  C   LIG    1      -38.741  73.846  24.826  0.00  0.00    +0.024 A 
ATOM      4  C   LIG    1      -38.957  74.710  25.904  0.00  0.00    +0.035 A 
ATOM      5  C   LIG    1      -40.242  75.191  26.124  0.00  0.00    +0.024 A 
ATOM      6  C   LIG    1      -41.283  74.863  25.256  0.00  0.00    +0.010 A 
ENDROOT
BRANCH   1  11
ATOM      7  C   LIG    1      -44.148  71.939  20.695  0.00  0.00    +0.069 A 
ATOM      8  C   LIG    1      -43.612  72.928  21.542  0.00  0.00    +0.037 A 
ATOM      9  S   LIG    1      -44.155  74.559  21.705  0.00  0.00    -0.095 S 
ATOM     10  C   LIG    1      -42.971  74.940  22.837  0.00  0.00    +0.055 A 
ATOM     11  C   LIG    1      -42.141  73.879  23.142  0.00  0.00    +0.000 A 
ATOM     12  C   LIG    1      -42.496  72.668  22.370  0.00  0.00    +0.037 A 
ATOM     13  C   LIG    1      -41.941  71.349  22.303  0.00  0.00    +0.125 A 
ATOM     14  N   LIG    1      -42.436  70.432  21.448  0.00  0.00    -0.239 NA
ATOM     15  C   LIG    1      -43.492  70.727  20.676  0.00  0.00    +0.127 A 
BRANCH   7  19
ATOM     16  C   LIG    1      -46.193  72.834  17.647  0.00  0.00    +0.128 C 
ATOM     17  N   LIG    1      -45.115  72.590  18.566  0.00  0.00    -0.314 N 
ATOM     18  H   LIG    1      -44.178  72.862  18.292  0.00  0.00    +0.149 HD
ATOM     19  C   LIG    1      -45.330  72.095  19.830  0.00  0.00    +0.246 C 
ATOM     20  O   LIG    1      -46.446  71.839  20.273  0.00  0.00    -0.270 OA
ENDBRANCH   7  19
BRANCH  13  21
ATOM     21  N   LIG    1      -40.890  70.844  23.056  0.00  0.00    -0.343 N 
ATOM     22  H   LIG    1      -41.170  70.211  23.793  0.00  0.00    +0.144 HD
ATOM     23  H   LIG    1      -40.194  70.465  22.418  0.00  0.00    +0.144 HD
ENDBRANCH  13  21
ENDBRANCH   1  11
BRANCH   4  24
ATOM     24  N   LIG    1      -37.854  75.038  26.713  0.00  0.00    -0.269 N 
ATOM     25  H   LIG    1      -37.794  74.544  27.586  0.00  0.00    +0.156 HD
ATOM     26  C   LIG    1      -36.846  75.956  26.420  0.00  0.00    +0.308 C 
ATOM     27  N   LIG    1      -35.942  76.017  27.474  0.00  0.00    -0.269 N 
ATOM     28  H   LIG    1      -36.094  75.368  28.231  0.00  0.00    +0.156 HD
ATOM     29  O   LIG    1      -36.767  76.617  25.403  0.00  0.00    -0.252 OA
BRANCH  27  30
ATOM     30  C   LIG    1      -34.826  76.868  27.599  0.00  0.00    +0.036 A 
ATOM     31  C   LIG    1      -35.064  78.156  28.095  0.00  0.00    +0.043 A 
ATOM     32  C   LIG    1      -34.014  79.066  28.228  0.00  0.00    +0.043 A 
ATOM     33 CL   LIG    1      -34.339  80.666  28.772  0.00  0.00    -0.083 Cl
ATOM     34  C   LIG    1      -32.712  78.698  27.907  0.00  0.00    +0.020 A 
ATOM     35  C   LIG    1      -32.463  77.415  27.428  0.00  0.00    +0.003 A 
ATOM     36  C   LIG    1      -33.518  76.515  27.250  0.00  0.00    +0.023 A 
ENDBRANCH  27  30
ENDBRANCH   4  24
TORSDOF 5
ENDMDL
MODEL 9
REMARK VINA RESULT:      -5.7      8.027     10.251
REMARK  Name = pdb/CHEMBL1982476.pdb
REMARK                            x       y       z     vdW  Elec       q    Type
REMARK                         _______ _______ _______ _____ _____    ______ ____
ROOT
ATOM      1  C   LIG    1      -26.096  75.740  32.157  0.00  0.00    -0.017 A 
ATOM      2  C   LIG    1      -26.693  77.012  32.202  0.00  0.00    +0.010 A 
ATOM      3  C   LIG    1      -28.081  77.157  32.082  0.00  0.00    +0.024 A 
ATOM      4  C   LIG    1      -28.899  76.034  31.916  0.00  0.00    +0.035 A 
ATOM      5  C   LIG    1      -28.316  74.774  31.959  0.00  0.00    +0.024 A 
ATOM      6  C   LIG    1      -26.936  74.633  32.110  0.00  0.00    +0.010 A 
ENDROOT
BRANCH   1  11
ATOM      7  C   LIG    1      -21.158  75.983  30.952  0.00  0.00    +0.069 A 
ATOM      8  C   LIG    1      -22.321  75.643  31.670  0.00  0.00    +0.037 A 
ATOM      9  S   LIG    1      -22.413  74.670  33.093  0.00  0.00    -0.095 S 
ATOM     10  C   LIG    1      -24.087  74.798  33.187  0.00  0.00    +0.055 A 
ATOM     11  C   LIG    1      -24.636  75.569  32.181  0.00  0.00    +0.000 A 
ATOM     12  C   LIG    1      -23.601  76.074  31.253  0.00  0.00    +0.037 A 
ATOM     13  C   LIG    1      -23.654  76.873  30.065  0.00  0.00    +0.125 A 
ATOM     14  N   LIG    1      -22.535  77.144  29.363  0.00  0.00    -0.239 NA
ATOM     15  C   LIG    1      -21.343  76.707  29.794  0.00  0.00    +0.127 A 
BRANCH   7  19
ATOM     16  C   LIG    1      -17.632  76.392  32.247  0.00  0.00    +0.128 C 
ATOM     17  N   LIG    1      -19.007  76.608  31.887  0.00  0.00    -0.314 N 
ATOM     18  H   LIG    1      -19.390  77.541  31.988  0.00  0.00    +0.149 HD
ATOM     19  C   LIG    1      -19.780  75.621  31.325  0.00  0.00    +0.246 C 
ATOM     20  O   LIG    1      -19.359  74.495  31.075  0.00  0.00    -0.270 OA
ENDBRANCH   7  19
BRANCH  13  21
ATOM     21  N   LIG    1      -24.777  77.456  29.498  0.00  0.00    -0.343 N 
ATOM     22  H   LIG    1      -25.467  76.796  29.164  0.00  0.00    +0.144 HD
ATOM     23  H   LIG    1      -25.140  78.149  30.148  0.00  0.00    +0.144 HD
ENDBRANCH  13  21
ENDBRANCH   1  11
BRANCH   4  24
ATOM     24  N   LIG    1      -30.275  76.249  31.721  0.00  0.00    -0.269 N 
ATOM     25  H   LIG    1      -30.806  76.447  32.551  0.00  0.00    +0.156 HD
ATOM     26  C   LIG    1      -30.961  76.227  30.507  0.00  0.00    +0.308 C 
ATOM     27  N   LIG    1      -32.313  76.465  30.724  0.00  0.00    -0.269 N 
ATOM     28  H   LIG    1      -32.582  76.683  31.671  0.00  0.00    +0.156 HD
ATOM     29  O   LIG    1      -30.462  76.019  29.418  0.00  0.00    -0.252 OA
BRANCH  27  30
ATOM     30  C   LIG    1      -33.350  76.457  29.769  0.00  0.00    +0.036 A 
ATOM     31  C   LIG    1      -33.893  75.209  29.436  0.00  0.00    +0.043 A 
ATOM     32  C   LIG    1      -34.909  75.115  28.483  0.00  0.00    +0.043 A 
ATOM     33 CL   LIG    1      -35.513  73.568  28.036  0.00  0.00    -0.083 Cl
ATOM     34  C   LIG    1      -35.423  76.257  27.878  0.00  0.00    +0.020 A 
ATOM     35  C   LIG    1      -34.900  77.502  28.215  0.00  0.00    +0.003 A 
ATOM     36  C   LIG    1      -33.851  77.598  29.135  0.00  0.00    +0.023 A 
ENDBRANCH  27  30
ENDBRANCH   4  24
TORSDOF 5
ENDMDL
