MODEL 1
REMARK VINA RESULT:      -6.6      0.000      0.000
REMARK  Name = pdb/CHEMBL3927707.pdb
REMARK                            x       y       z     vdW  Elec       q    Type
REMARK                         _______ _______ _______ _____ _____    ______ ____
ROOT
ATOM      1  C   LIG    1      -25.150  77.707  31.884  0.00  0.00    +0.179 A 
ATOM      2  N   LIG    1      -24.787  78.192  33.145  0.00  0.00    -0.193 N 
ATOM      3  N   LIG    1      -23.706  78.983  33.446  0.00  0.00    -0.148 NA
ATOM      4  C   LIG    1      -23.582  79.333  34.703  0.00  0.00    +0.143 A 
ATOM      5  C   LIG    1      -24.576  78.912  35.747  0.00  0.00    +0.049 A 
ATOM      6  C   LIG    1      -25.595  78.125  35.391  0.00  0.00    +0.051 A 
ATOM      7  C   LIG    1      -25.716  77.706  34.050  0.00  0.00    +0.157 A 
ATOM      8  N   LIG    1      -26.573  76.886  33.487  0.00  0.00    -0.232 NA
ATOM      9  C   LIG    1      -26.212  76.867  32.162  0.00  0.00    +0.161 A 
ENDROOT
BRANCH   4  10
ATOM     10  N   LIG    1      -22.498  80.125  35.069  0.00  0.00    -0.307 N 
ATOM     11  C   LIG    1      -21.415  79.564  35.900  0.00  0.00    +0.108 C 
ATOM     12  C   LIG    1      -21.148  80.697  36.901  0.00  0.00    +0.029 C 
ATOM     13  C   LIG    1      -21.335  81.951  36.064  0.00  0.00    +0.021 C 
ATOM     14  C   LIG    1      -22.528  81.588  35.183  0.00  0.00    +0.107 C 
BRANCH  11  15
ATOM     15  C   LIG    1      -20.201  79.189  35.068  0.00  0.00    +0.011 A 
ATOM     16  C   LIG    1      -18.978  78.948  35.710  0.00  0.00    +0.129 A 
ATOM     17  F   LIG    1      -18.898  79.024  37.046  0.00  0.00    -0.205 F 
ATOM     18  C   LIG    1      -17.820  78.638  34.992  0.00  0.00    +0.041 A 
ATOM     19  C   LIG    1      -17.863  78.572  33.602  0.00  0.00    +0.041 A 
ATOM     20  C   LIG    1      -19.069  78.799  32.952  0.00  0.00    +0.124 A 
ATOM     21  F   LIG    1      -19.119  78.745  31.615  0.00  0.00    -0.205 F 
ATOM     22  C   LIG    1      -20.228  79.092  33.666  0.00  0.00    +0.046 A 
ENDBRANCH  11  15
ENDBRANCH   4  10
BRANCH   1  24
ATOM     23  C   LIG    1      -23.525  77.664  30.205  0.00  0.00    +0.285 C 
ATOM     24  N   LIG    1      -24.572  78.162  30.732  0.00  0.00    -0.178 NA
BRANCH  23  27
ATOM     25  C   LIG    1      -20.510  75.553  30.747  0.00  0.00    +0.133 C 
ATOM     26  C   LIG    1      -21.243  76.672  29.982  0.00  0.00    +0.140 C 
ATOM     27  N   LIG    1      -22.570  76.744  30.590  0.00  0.00    -0.283 N 
ATOM     28  C   LIG    1      -22.661  75.819  31.714  0.00  0.00    +0.112 C 
ATOM     29  C   LIG    1      -21.198  75.593  32.106  0.00  0.00    +0.052 C 
BRANCH  25  30
ATOM     30  O   LIG    1      -19.115  75.803  30.828  0.00  0.00    -0.390 OA
ATOM     31  H   LIG    1      -18.813  75.671  31.742  0.00  0.00    +0.210 HD
ENDBRANCH  25  30
ENDBRANCH  23  27
BRANCH  23  32
ATOM     32  O   LIG    1      -23.208  78.176  28.996  0.00  0.00    -0.481 OA
ATOM     33  H   LIG    1      -22.734  77.534  28.465  0.00  0.00    +0.295 HD
ENDBRANCH  23  32
ENDBRANCH   1  24
TORSDOF 6
ENDMDL
MODEL 2
REMARK VINA RESULT:      -6.4     12.947     16.878
REMARK  Name = pdb/CHEMBL3927707.pdb
REMARK                            x       y       z     vdW  Elec       q    Type
REMARK                         _______ _______ _______ _____ _____    ______ ____
ROOT
ATOM      1  C   LIG    1      -34.888  79.339  28.320  0.00  0.00    +0.179 A 
ATOM      2  N   LIG    1      -36.218  78.911  28.261  0.00  0.00    -0.193 N 
ATOM      3  N   LIG    1      -36.945  78.622  27.133  0.00  0.00    -0.148 NA
ATOM      4  C   LIG    1      -38.174  78.213  27.329  0.00  0.00    +0.143 A 
ATOM      5  C   LIG    1      -38.746  78.049  28.708  0.00  0.00    +0.049 A 
ATOM      6  C   LIG    1      -37.993  78.366  29.764  0.00  0.00    +0.051 A 
ATOM      7  C   LIG    1      -36.682  78.848  29.565  0.00  0.00    +0.157 A 
ATOM      8  N   LIG    1      -35.795  79.289  30.428  0.00  0.00    -0.232 NA
ATOM      9  C   LIG    1      -34.702  79.613  29.662  0.00  0.00    +0.161 A 
ENDROOT
BRANCH   4  10
ATOM     10  N   LIG    1      -38.962  77.918  26.221  0.00  0.00    -0.307 N 
ATOM     11  C   LIG    1      -38.358  77.302  25.023  0.00  0.00    +0.108 C 
ATOM     12  C   LIG    1      -39.017  78.088  23.881  0.00  0.00    +0.029 C 
ATOM     13  C   LIG    1      -40.431  78.316  24.388  0.00  0.00    +0.021 C 
ATOM     14  C   LIG    1      -40.211  78.606  25.871  0.00  0.00    +0.107 C 
BRANCH  11  15
ATOM     15  C   LIG    1      -38.619  75.807  24.963  0.00  0.00    +0.011 A 
ATOM     16  C   LIG    1      -37.785  74.936  25.676  0.00  0.00    +0.129 A 
ATOM     17  F   LIG    1      -36.787  75.428  26.423  0.00  0.00    -0.205 F 
ATOM     18  C   LIG    1      -37.954  73.550  25.625  0.00  0.00    +0.041 A 
ATOM     19  C   LIG    1      -38.968  73.004  24.843  0.00  0.00    +0.041 A 
ATOM     20  C   LIG    1      -39.809  73.855  24.138  0.00  0.00    +0.124 A 
ATOM     21  F   LIG    1      -40.782  73.338  23.376  0.00  0.00    -0.205 F 
ATOM     22  C   LIG    1      -39.652  75.237  24.199  0.00  0.00    +0.046 A 
ENDBRANCH  11  15
ENDBRANCH   4  10
BRANCH   1  24
ATOM     23  C   LIG    1      -33.305  78.332  26.927  0.00  0.00    +0.285 C 
ATOM     24  N   LIG    1      -34.062  79.310  27.231  0.00  0.00    -0.178 NA
BRANCH  23  27
ATOM     25  C   LIG    1      -31.758  75.650  28.989  0.00  0.00    +0.133 C 
ATOM     26  C   LIG    1      -31.822  77.120  28.530  0.00  0.00    +0.140 C 
ATOM     27  N   LIG    1      -32.903  77.166  27.548  0.00  0.00    -0.283 N 
ATOM     28  C   LIG    1      -33.547  75.863  27.444  0.00  0.00    +0.112 C 
ATOM     29  C   LIG    1      -33.192  75.186  28.771  0.00  0.00    +0.052 C 
BRANCH  25  30
ATOM     30  O   LIG    1      -31.342  75.543  30.341  0.00  0.00    -0.390 OA
ATOM     31  H   LIG    1      -31.836  74.828  30.778  0.00  0.00    +0.210 HD
ENDBRANCH  25  30
ENDBRANCH  23  27
BRANCH  23  32
ATOM     32  O   LIG    1      -32.681  78.457  25.735  0.00  0.00    -0.481 OA
ATOM     33  H   LIG    1      -32.523  79.378  25.525  0.00  0.00    +0.295 HD
ENDBRANCH  23  32
ENDBRANCH   1  24
TORSDOF 6
ENDMDL
MODEL 3
REMARK VINA RESULT:      -6.1     18.278     21.553
REMARK  Name = pdb/CHEMBL3927707.pdb
REMARK                            x       y       z     vdW  Elec       q    Type
REMARK                         _______ _______ _______ _____ _____    ______ ____
ROOT
ATOM      1  C   LIG    1      -19.073  85.653  12.960  0.00  0.00    +0.179 A 
ATOM      2  N   LIG    1      -19.718  84.414  12.878  0.00  0.00    -0.193 N 
ATOM      3  N   LIG    1      -20.266  83.698  13.911  0.00  0.00    -0.148 NA
ATOM      4  C   LIG    1      -20.841  82.566  13.586  0.00  0.00    +0.143 A 
ATOM      5  C   LIG    1      -20.914  82.093  12.162  0.00  0.00    +0.049 A 
ATOM      6  C   LIG    1      -20.342  82.828  11.205  0.00  0.00    +0.051 A 
ATOM      7  C   LIG    1      -19.683  84.027  11.548  0.00  0.00    +0.157 A 
ATOM      8  N   LIG    1      -18.994  84.864  10.806  0.00  0.00    -0.232 NA
ATOM      9  C   LIG    1      -18.599  85.850  11.676  0.00  0.00    +0.161 A 
ENDROOT
BRANCH   4  10
ATOM     10  N   LIG    1      -21.405  81.791  14.595  0.00  0.00    -0.307 N 
ATOM     11  C   LIG    1      -22.721  82.148  15.159  0.00  0.00    +0.108 C 
ATOM     12  C   LIG    1      -22.500  81.945  16.664  0.00  0.00    +0.029 C 
ATOM     13  C   LIG    1      -21.589  80.730  16.720  0.00  0.00    +0.021 C 
ATOM     14  C   LIG    1      -20.645  80.967  15.543  0.00  0.00    +0.107 C 
BRANCH  11  15
ATOM     15  C   LIG    1      -23.834  81.289  14.586  0.00  0.00    +0.011 A 
ATOM     16  C   LIG    1      -24.445  81.670  13.384  0.00  0.00    +0.129 A 
ATOM     17  F   LIG    1      -24.025  82.768  12.739  0.00  0.00    -0.205 F 
ATOM     18  C   LIG    1      -25.500  80.940  12.831  0.00  0.00    +0.041 A 
ATOM     19  C   LIG    1      -25.974  79.805  13.485  0.00  0.00    +0.041 A 
ATOM     20  C   LIG    1      -25.373  79.410  14.672  0.00  0.00    +0.124 A 
ATOM     21  F   LIG    1      -25.828  78.324  15.312  0.00  0.00    -0.205 F 
ATOM     22  C   LIG    1      -24.311  80.127  15.216  0.00  0.00    +0.046 A 
ENDBRANCH  11  15
ENDBRANCH   4  10
BRANCH   1  24
ATOM     23  C   LIG    1      -20.108  87.127  14.450  0.00  0.00    +0.285 C 
ATOM     24  N   LIG    1      -19.110  86.422  14.090  0.00  0.00    -0.178 NA
BRANCH  23  27
ATOM     25  C   LIG    1      -22.902  88.736  12.594  0.00  0.00    +0.133 C 
ATOM     26  C   LIG    1      -21.437  88.734  13.075  0.00  0.00    +0.140 C 
ATOM     27  N   LIG    1      -21.300  87.516  13.871  0.00  0.00    -0.283 N 
ATOM     28  C   LIG    1      -22.537  86.746  13.835  0.00  0.00    +0.112 C 
ATOM     29  C   LIG    1      -23.230  87.249  12.565  0.00  0.00    +0.052 C 
BRANCH  25  30
ATOM     30  O   LIG    1      -23.034  89.356  11.324  0.00  0.00    -0.390 OA
ATOM     31  H   LIG    1      -23.193  88.677  10.646  0.00  0.00    +0.210 HD
ENDBRANCH  25  30
ENDBRANCH  23  27
BRANCH  23  32
ATOM     32  O   LIG    1      -19.982  87.695  15.668  0.00  0.00    -0.481 OA
ATOM     33  H   LIG    1      -19.130  87.491  16.055  0.00  0.00    +0.295 HD
ENDBRANCH  23  32
ENDBRANCH   1  24
TORSDOF 6
ENDMDL
MODEL 4
REMARK VINA RESULT:      -6.1      2.530      5.272
REMARK  Name = pdb/CHEMBL3927707.pdb
REMARK                            x       y       z     vdW  Elec       q    Type
REMARK                         _______ _______ _______ _____ _____    ______ ____
ROOT
ATOM      1  C   LIG    1      -19.252  75.961  31.504  0.00  0.00    +0.179 A 
ATOM      2  N   LIG    1      -18.801  76.887  32.450  0.00  0.00    -0.193 N 
ATOM      3  N   LIG    1      -19.352  77.148  33.680  0.00  0.00    -0.148 NA
ATOM      4  C   LIG    1      -18.737  78.048  34.407  0.00  0.00    +0.143 A 
ATOM      5  C   LIG    1      -17.490  78.737  33.931  0.00  0.00    +0.049 A 
ATOM      6  C   LIG    1      -17.016  78.451  32.715  0.00  0.00    +0.051 A 
ATOM      7  C   LIG    1      -17.693  77.516  31.906  0.00  0.00    +0.157 A 
ATOM      8  N   LIG    1      -17.466  77.136  30.669  0.00  0.00    -0.232 NA
ATOM      9  C   LIG    1      -18.437  76.199  30.413  0.00  0.00    +0.161 A 
ENDROOT
BRANCH   4  10
ATOM     10  N   LIG    1      -19.258  78.362  35.658  0.00  0.00    -0.307 N 
ATOM     11  C   LIG    1      -19.170  79.742  36.175  0.00  0.00    +0.108 C 
ATOM     12  C   LIG    1      -18.767  79.520  37.639  0.00  0.00    +0.029 C 
ATOM     13  C   LIG    1      -19.531  78.264  38.022  0.00  0.00    +0.021 C 
ATOM     14  C   LIG    1      -19.421  77.409  36.762  0.00  0.00    +0.107 C 
BRANCH  11  15
ATOM     15  C   LIG    1      -20.481  80.491  36.012  0.00  0.00    +0.011 A 
ATOM     16  C   LIG    1      -20.684  81.681  36.724  0.00  0.00    +0.129 A 
ATOM     17  F   LIG    1      -19.715  82.159  37.516  0.00  0.00    -0.205 F 
ATOM     18  C   LIG    1      -21.885  82.391  36.643  0.00  0.00    +0.041 A 
ATOM     19  C   LIG    1      -22.921  81.911  35.845  0.00  0.00    +0.041 A 
ATOM     20  C   LIG    1      -22.732  80.738  35.126  0.00  0.00    +0.124 A 
ATOM     21  F   LIG    1      -23.725  80.266  34.361  0.00  0.00    -0.205 F 
ATOM     22  C   LIG    1      -21.530  80.038  35.192  0.00  0.00    +0.046 A 
ENDBRANCH  11  15
ENDBRANCH   4  10
BRANCH   1  24
ATOM     23  C   LIG    1      -21.453  75.185  31.631  0.00  0.00    +0.285 C 
ATOM     24  N   LIG    1      -20.201  75.021  31.796  0.00  0.00    -0.178 NA
BRANCH  23  27
ATOM     25  C   LIG    1      -23.860  77.638  30.207  0.00  0.00    +0.133 C 
ATOM     26  C   LIG    1      -23.066  76.321  30.099  0.00  0.00    +0.140 C 
ATOM     27  N   LIG    1      -22.276  76.251  31.327  0.00  0.00    -0.283 N 
ATOM     28  C   LIG    1      -22.598  77.373  32.200  0.00  0.00    +0.112 C 
ATOM     29  C   LIG    1      -23.983  77.813  31.715  0.00  0.00    +0.052 C 
BRANCH  25  30
ATOM     30  O   LIG    1      -25.118  77.544  29.558  0.00  0.00    -0.390 OA
ATOM     31  H   LIG    1      -25.478  78.435  29.414  0.00  0.00    +0.210 HD
ENDBRANCH  25  30
ENDBRANCH  23  27
BRANCH  23  32
ATOM     32  O   LIG    1      -22.196  74.079  31.852  0.00  0.00    -0.481 OA
ATOM     33  H   LIG    1      -21.644  73.297  31.898  0.00  0.00    +0.295 HD
ENDBRANCH  23  32
ENDBRANCH   1  24
TORSDOF 6
ENDMDL
MODEL 5
REMARK VINA RESULT:      -5.9     13.245     17.211
REMARK  Name = pdb/CHEMBL3927707.pdb
REMARK                            x       y       z     vdW  Elec       q    Type
REMARK                         _______ _______ _______ _____ _____    ______ ____
ROOT
ATOM      1  C   LIG    1      -34.517  79.887  28.222  0.00  0.00    +0.179 A 
ATOM      2  N   LIG    1      -35.706  79.151  28.251  0.00  0.00    -0.193 N 
ATOM      3  N   LIG    1      -36.260  78.434  27.220  0.00  0.00    -0.148 NA
ATOM      4  C   LIG    1      -37.376  77.803  27.492  0.00  0.00    +0.143 A 
ATOM      5  C   LIG    1      -37.999  77.843  28.859  0.00  0.00    +0.049 A 
ATOM      6  C   LIG    1      -37.419  78.576  29.813  0.00  0.00    +0.051 A 
ATOM      7  C   LIG    1      -36.241  79.295  29.521  0.00  0.00    +0.157 A 
ATOM      8  N   LIG    1      -35.545  80.129  30.260  0.00  0.00    -0.232 NA
ATOM      9  C   LIG    1      -34.500  80.512  29.455  0.00  0.00    +0.161 A 
ENDROOT
BRANCH   4  10
ATOM     10  N   LIG    1      -37.989  77.070  26.481  0.00  0.00    -0.307 N 
ATOM     11  C   LIG    1      -39.443  76.822  26.521  0.00  0.00    +0.108 C 
ATOM     12  C   LIG    1      -39.537  75.345  26.113  0.00  0.00    +0.029 C 
ATOM     13  C   LIG    1      -38.440  75.203  25.072  0.00  0.00    +0.021 C 
ATOM     14  C   LIG    1      -37.318  76.063  25.650  0.00  0.00    +0.107 C 
BRANCH  11  15
ATOM     15  C   LIG    1      -40.202  77.758  25.595  0.00  0.00    +0.011 A 
ATOM     16  C   LIG    1      -41.602  77.722  25.582  0.00  0.00    +0.129 A 
ATOM     17  F   LIG    1      -42.258  76.887  26.401  0.00  0.00    -0.205 F 
ATOM     18  C   LIG    1      -42.351  78.531  24.723  0.00  0.00    +0.041 A 
ATOM     19  C   LIG    1      -41.701  79.396  23.845  0.00  0.00    +0.041 A 
ATOM     20  C   LIG    1      -40.314  79.449  23.853  0.00  0.00    +0.124 A 
ATOM     21  F   LIG    1      -39.680  80.271  23.007  0.00  0.00    -0.205 F 
ATOM     22  C   LIG    1      -39.567  78.655  24.719  0.00  0.00    +0.046 A 
ENDBRANCH  11  15
ENDBRANCH   4  10
BRANCH   1  24
ATOM     23  C   LIG    1      -32.966  78.745  26.898  0.00  0.00    +0.285 C 
ATOM     24  N   LIG    1      -33.626  79.794  27.189  0.00  0.00    -0.178 NA
BRANCH  23  27
ATOM     25  C   LIG    1      -31.941  75.850  28.998  0.00  0.00    +0.133 C 
ATOM     26  C   LIG    1      -31.832  77.342  28.627  0.00  0.00    +0.140 C 
ATOM     27  N   LIG    1      -32.744  77.521  27.499  0.00  0.00    -0.283 N 
ATOM     28  C   LIG    1      -33.453  76.278  27.220  0.00  0.00    +0.112 C 
ATOM     29  C   LIG    1      -33.353  75.510  28.541  0.00  0.00    +0.052 C 
BRANCH  25  30
ATOM     30  O   LIG    1      -31.745  75.642  30.388  0.00  0.00    -0.390 OA
ATOM     31  H   LIG    1      -30.855  75.942  30.640  0.00  0.00    +0.210 HD
ENDBRANCH  25  30
ENDBRANCH  23  27
BRANCH  23  32
ATOM     32  O   LIG    1      -32.250  78.832  25.756  0.00  0.00    -0.481 OA
ATOM     33  H   LIG    1      -32.795  78.633  24.994  0.00  0.00    +0.295 HD
ENDBRANCH  23  32
ENDBRANCH   1  24
TORSDOF 6
ENDMDL
MODEL 6
REMARK VINA RESULT:      -5.9     17.832     20.512
REMARK  Name = pdb/CHEMBL3927707.pdb
REMARK                            x       y       z     vdW  Elec       q    Type
REMARK                         _______ _______ _______ _____ _____    ______ ____
ROOT
ATOM      1  C   LIG    1      -20.412  84.306  13.109  0.00  0.00    +0.179 A 
ATOM      2  N   LIG    1      -19.520  83.324  13.554  0.00  0.00    -0.193 N 
ATOM      3  N   LIG    1      -19.836  82.078  14.035  0.00  0.00    -0.148 NA
ATOM      4  C   LIG    1      -18.823  81.318  14.373  0.00  0.00    +0.143 A 
ATOM      5  C   LIG    1      -17.401  81.777  14.222  0.00  0.00    +0.049 A 
ATOM      6  C   LIG    1      -17.163  83.009  13.766  0.00  0.00    +0.051 A 
ATOM      7  C   LIG    1      -18.245  83.852  13.440  0.00  0.00    +0.157 A 
ATOM      8  N   LIG    1      -18.262  85.108  13.053  0.00  0.00    -0.232 NA
ATOM      9  C   LIG    1      -19.593  85.395  12.873  0.00  0.00    +0.161 A 
ENDROOT
BRANCH   4  10
ATOM     10  N   LIG    1      -19.083  80.048  14.878  0.00  0.00    -0.307 N 
ATOM     11  C   LIG    1      -19.910  79.885  16.089  0.00  0.00    +0.108 C 
ATOM     12  C   LIG    1      -19.136  78.816  16.874  0.00  0.00    +0.029 C 
ATOM     13  C   LIG    1      -18.616  77.895  15.784  0.00  0.00    +0.021 C 
ATOM     14  C   LIG    1      -18.225  78.874  14.679  0.00  0.00    +0.107 C 
BRANCH  11  15
ATOM     15  C   LIG    1      -21.334  79.481  15.752  0.00  0.00    +0.011 A 
ATOM     16  C   LIG    1      -22.400  80.221  16.280  0.00  0.00    +0.129 A 
ATOM     17  F   LIG    1      -22.155  81.290  17.050  0.00  0.00    -0.205 F 
ATOM     18  C   LIG    1      -23.731  79.871  16.035  0.00  0.00    +0.041 A 
ATOM     19  C   LIG    1      -24.021  78.754  15.256  0.00  0.00    +0.041 A 
ATOM     20  C   LIG    1      -22.976  78.016  14.718  0.00  0.00    +0.124 A 
ATOM     21  F   LIG    1      -23.245  76.935  13.973  0.00  0.00    -0.205 F 
ATOM     22  C   LIG    1      -21.649  78.372  14.947  0.00  0.00    +0.046 A 
ENDBRANCH  11  15
ENDBRANCH   4  10
BRANCH   1  24
ATOM     23  C   LIG    1      -22.657  84.924  12.912  0.00  0.00    +0.285 C 
ATOM     24  N   LIG    1      -21.736  84.045  12.890  0.00  0.00    -0.178 NA
BRANCH  23  27
ATOM     25  C   LIG    1      -22.827  88.217  14.635  0.00  0.00    +0.133 C 
ATOM     26  C   LIG    1      -22.778  86.677  14.687  0.00  0.00    +0.140 C 
ATOM     27  N   LIG    1      -22.747  86.249  13.290  0.00  0.00    -0.283 N 
ATOM     28  C   LIG    1      -22.686  87.408  12.408  0.00  0.00    +0.112 C 
ATOM     29  C   LIG    1      -22.131  88.512  13.312  0.00  0.00    +0.052 C 
BRANCH  25  30
ATOM     30  O   LIG    1      -22.167  88.798  15.748  0.00  0.00    -0.390 OA
ATOM     31  H   LIG    1      -22.531  89.684  15.916  0.00  0.00    +0.210 HD
ENDBRANCH  25  30
ENDBRANCH  23  27
BRANCH  23  32
ATOM     32  O   LIG    1      -23.871  84.472  12.530  0.00  0.00    -0.481 OA
ATOM     33  H   LIG    1      -24.563  84.839  13.082  0.00  0.00    +0.295 HD
ENDBRANCH  23  32
ENDBRANCH   1  24
TORSDOF 6
ENDMDL
MODEL 7
REMARK VINA RESULT:      -5.8     17.753     20.921
REMARK  Name = pdb/CHEMBL3927707.pdb
REMARK                            x       y       z     vdW  Elec       q    Type
REMARK                         _______ _______ _______ _____ _____    ______ ____
ROOT
ATOM      1  C   LIG    1      -19.369  85.238  12.785  0.00  0.00    +0.179 A 
ATOM      2  N   LIG    1      -20.005  83.996  12.889  0.00  0.00    -0.193 N 
ATOM      3  N   LIG    1      -20.385  83.357  14.043  0.00  0.00    -0.148 NA
ATOM      4  C   LIG    1      -20.991  82.204  13.889  0.00  0.00    +0.143 A 
ATOM      5  C   LIG    1      -21.271  81.629  12.530  0.00  0.00    +0.049 A 
ATOM      6  C   LIG    1      -20.857  82.293  11.448  0.00  0.00    +0.051 A 
ATOM      7  C   LIG    1      -20.166  83.514  11.601  0.00  0.00    +0.157 A 
ATOM      8  N   LIG    1      -19.605  84.295  10.706  0.00  0.00    -0.232 NA
ATOM      9  C   LIG    1      -19.094  85.341  11.434  0.00  0.00    +0.161 A 
ENDROOT
BRANCH   4  10
ATOM     10  N   LIG    1      -21.388  81.505  15.024  0.00  0.00    -0.307 N 
ATOM     11  C   LIG    1      -22.006  80.172  14.897  0.00  0.00    +0.108 C 
ATOM     12  C   LIG    1      -23.161  80.246  15.906  0.00  0.00    +0.029 C 
ATOM     13  C   LIG    1      -22.575  81.066  17.042  0.00  0.00    +0.021 C 
ATOM     14  C   LIG    1      -21.757  82.123  16.304  0.00  0.00    +0.107 C 
BRANCH  11  15
ATOM     15  C   LIG    1      -21.015  79.058  15.188  0.00  0.00    +0.011 A 
ATOM     16  C   LIG    1      -21.385  77.729  14.942  0.00  0.00    +0.129 A 
ATOM     17  F   LIG    1      -22.592  77.455  14.429  0.00  0.00    -0.205 F 
ATOM     18  C   LIG    1      -20.528  76.663  15.228  0.00  0.00    +0.041 A 
ATOM     19  C   LIG    1      -19.274  76.911  15.780  0.00  0.00    +0.041 A 
ATOM     20  C   LIG    1      -18.889  78.223  16.021  0.00  0.00    +0.124 A 
ATOM     21  F   LIG    1      -17.688  78.470  16.559  0.00  0.00    -0.205 F 
ATOM     22  C   LIG    1      -19.735  79.288  15.722  0.00  0.00    +0.046 A 
ENDBRANCH  11  15
ENDBRANCH   4  10
BRANCH   1  24
ATOM     23  C   LIG    1      -20.123  86.941  14.197  0.00  0.00    +0.285 C 
ATOM     24  N   LIG    1      -19.244  86.086  13.849  0.00  0.00    -0.178 NA
BRANCH  23  27
ATOM     25  C   LIG    1      -22.800  88.807  12.412  0.00  0.00    +0.133 C 
ATOM     26  C   LIG    1      -21.333  88.673  12.864  0.00  0.00    +0.140 C 
ATOM     27  N   LIG    1      -21.287  87.438  13.645  0.00  0.00    -0.283 N 
ATOM     28  C   LIG    1      -22.587  86.778  13.625  0.00  0.00    +0.112 C 
ATOM     29  C   LIG    1      -23.256  87.354  12.374  0.00  0.00    +0.052 C 
BRANCH  25  30
ATOM     30  O   LIG    1      -22.901  89.450  11.151  0.00  0.00    -0.390 OA
ATOM     31  H   LIG    1      -23.486  88.936  10.569  0.00  0.00    +0.210 HD
ENDBRANCH  25  30
ENDBRANCH  23  27
BRANCH  23  32
ATOM     32  O   LIG    1      -19.857  87.576  15.359  0.00  0.00    -0.481 OA
ATOM     33  H   LIG    1      -19.003  88.008  15.326  0.00  0.00    +0.295 HD
ENDBRANCH  23  32
ENDBRANCH   1  24
TORSDOF 6
ENDMDL
MODEL 8
REMARK VINA RESULT:      -5.7     17.537     20.647
REMARK  Name = pdb/CHEMBL3927707.pdb
REMARK                            x       y       z     vdW  Elec       q    Type
REMARK                         _______ _______ _______ _____ _____    ______ ____
ROOT
ATOM      1  C   LIG    1      -21.702  84.526  11.517  0.00  0.00    +0.179 A 
ATOM      2  N   LIG    1      -21.059  83.559  12.296  0.00  0.00    -0.193 N 
ATOM      3  N   LIG    1      -21.569  82.906  13.391  0.00  0.00    -0.148 NA
ATOM      4  C   LIG    1      -20.783  82.018  13.949  0.00  0.00    +0.143 A 
ATOM      5  C   LIG    1      -19.414  81.718  13.410  0.00  0.00    +0.049 A 
ATOM      6  C   LIG    1      -18.970  82.403  12.353  0.00  0.00    +0.051 A 
ATOM      7  C   LIG    1      -19.789  83.391  11.769  0.00  0.00    +0.157 A 
ATOM      8  N   LIG    1      -19.545  84.232  10.789  0.00  0.00    -0.232 NA
ATOM      9  C   LIG    1      -20.710  84.945  10.649  0.00  0.00    +0.161 A 
ENDROOT
BRANCH   4  10
ATOM     10  N   LIG    1      -21.244  81.334  15.070  0.00  0.00    -0.307 N 
ATOM     11  C   LIG    1      -21.927  80.035  14.918  0.00  0.00    +0.108 C 
ATOM     12  C   LIG    1      -23.100  80.163  15.900  0.00  0.00    +0.029 C 
ATOM     13  C   LIG    1      -22.500  80.945  17.056  0.00  0.00    +0.021 C 
ATOM     14  C   LIG    1      -21.610  81.962  16.345  0.00  0.00    +0.107 C 
BRANCH  11  15
ATOM     15  C   LIG    1      -21.002  78.870  15.224  0.00  0.00    +0.011 A 
ATOM     16  C   LIG    1      -21.416  77.567  14.918  0.00  0.00    +0.129 A 
ATOM     17  F   LIG    1      -22.606  77.363  14.335  0.00  0.00    -0.205 F 
ATOM     18  C   LIG    1      -20.624  76.455  15.213  0.00  0.00    +0.041 A 
ATOM     19  C   LIG    1      -19.391  76.629  15.837  0.00  0.00    +0.041 A 
ATOM     20  C   LIG    1      -18.962  77.915  16.138  0.00  0.00    +0.124 A 
ATOM     21  F   LIG    1      -17.781  78.092  16.745  0.00  0.00    -0.205 F 
ATOM     22  C   LIG    1      -19.744  79.026  15.830  0.00  0.00    +0.046 A 
ENDBRANCH  11  15
ENDBRANCH   4  10
BRANCH   1  24
ATOM     23  C   LIG    1      -23.537  85.733  12.316  0.00  0.00    +0.285 C 
ATOM     24  N   LIG    1      -23.040  84.782  11.628  0.00  0.00    -0.178 NA
BRANCH  23  27
ATOM     25  C   LIG    1      -22.087  87.550  15.219  0.00  0.00    +0.133 C 
ATOM     26  C   LIG    1      -22.570  86.243  14.562  0.00  0.00    +0.140 C 
ATOM     27  N   LIG    1      -23.054  86.637  13.241  0.00  0.00    -0.283 N 
ATOM     28  C   LIG    1      -22.822  88.060  13.021  0.00  0.00    +0.112 C 
ATOM     29  C   LIG    1      -21.701  88.391  14.010  0.00  0.00    +0.052 C 
BRANCH  25  30
ATOM     30  O   LIG    1      -21.000  87.320  16.102  0.00  0.00    -0.390 OA
ATOM     31  H   LIG    1      -20.600  86.456  15.907  0.00  0.00    +0.210 HD
ENDBRANCH  25  30
ENDBRANCH  23  27
BRANCH  23  32
ATOM     32  O   LIG    1      -24.871  85.889  12.173  0.00  0.00    -0.481 OA
ATOM     33  H   LIG    1      -25.350  85.317  12.774  0.00  0.00    +0.295 HD
ENDBRANCH  23  32
ENDBRANCH   1  24
TORSDOF 6
ENDMDL
MODEL 9
REMARK VINA RESULT:      -5.7     18.278     21.462
REMARK  Name = pdb/CHEMBL3927707.pdb
REMARK                            x       y       z     vdW  Elec       q    Type
REMARK                         _______ _______ _______ _____ _____    ______ ____
ROOT
ATOM      1  C   LIG    1      -20.463  85.771  13.652  0.00  0.00    +0.179 A 
ATOM      2  N   LIG    1      -19.630  84.650  13.734  0.00  0.00    -0.193 N 
ATOM      3  N   LIG    1      -19.991  83.376  14.094  0.00  0.00    -0.148 NA
ATOM      4  C   LIG    1      -19.035  82.480  14.077  0.00  0.00    +0.143 A 
ATOM      5  C   LIG    1      -17.632  82.823  13.665  0.00  0.00    +0.049 A 
ATOM      6  C   LIG    1      -17.342  84.087  13.345  0.00  0.00    +0.051 A 
ATOM      7  C   LIG    1      -18.352  85.070  13.401  0.00  0.00    +0.157 A 
ATOM      8  N   LIG    1      -18.291  86.368  13.210  0.00  0.00    -0.232 NA
ATOM      9  C   LIG    1      -19.582  86.803  13.387  0.00  0.00    +0.161 A 
ENDROOT
BRANCH   4  10
ATOM     10  N   LIG    1      -19.341  81.173  14.444  0.00  0.00    -0.307 N 
ATOM     11  C   LIG    1      -20.262  80.914  15.567  0.00  0.00    +0.108 C 
ATOM     12  C   LIG    1      -19.559  79.770  16.312  0.00  0.00    +0.029 C 
ATOM     13  C   LIG    1      -18.958  78.943  15.189  0.00  0.00    +0.021 C 
ATOM     14  C   LIG    1      -18.475  80.011  14.210  0.00  0.00    +0.107 C 
BRANCH  11  15
ATOM     15  C   LIG    1      -21.657  80.558  15.084  0.00  0.00    +0.011 A 
ATOM     16  C   LIG    1      -22.688  80.401  16.019  0.00  0.00    +0.129 A 
ATOM     17  F   LIG    1      -22.442  80.593  17.323  0.00  0.00    -0.205 F 
ATOM     18  C   LIG    1      -23.981  80.036  15.636  0.00  0.00    +0.041 A 
ATOM     19  C   LIG    1      -24.266  79.809  14.291  0.00  0.00    +0.041 A 
ATOM     20  C   LIG    1      -23.257  79.969  13.351  0.00  0.00    +0.124 A 
ATOM     21  F   LIG    1      -23.520  79.745  12.057  0.00  0.00    -0.205 F 
ATOM     22  C   LIG    1      -21.972  80.348  13.730  0.00  0.00    +0.046 A 
ENDBRANCH  11  15
ENDBRANCH   4  10
BRANCH   1  24
ATOM     23  C   LIG    1      -22.627  86.297  12.943  0.00  0.00    +0.285 C 
ATOM     24  N   LIG    1      -21.825  85.674  13.712  0.00  0.00    -0.178 NA
BRANCH  23  27
ATOM     25  C   LIG    1      -22.344  89.479  11.038  0.00  0.00    +0.133 C 
ATOM     26  C   LIG    1      -22.565  88.726  12.364  0.00  0.00    +0.140 C 
ATOM     27  N   LIG    1      -22.513  87.309  12.011  0.00  0.00    -0.283 N 
ATOM     28  C   LIG    1      -22.193  87.152  10.597  0.00  0.00    +0.112 C 
ATOM     29  C   LIG    1      -21.519  88.480  10.238  0.00  0.00    +0.052 C 
BRANCH  25  30
ATOM     30  O   LIG    1      -21.671  90.712  11.243  0.00  0.00    -0.390 OA
ATOM     31  H   LIG    1      -21.427  91.097  10.384  0.00  0.00    +0.210 HD
ENDBRANCH  25  30
ENDBRANCH  23  27
BRANCH  23  32
ATOM     32  O   LIG    1      -23.924  85.947  13.084  0.00  0.00    -0.481 OA
ATOM     33  H   LIG    1      -24.503  86.641  12.765  0.00  0.00    +0.295 HD
ENDBRANCH  23  32
ENDBRANCH   1  24
TORSDOF 6
ENDMDL
