MODEL 1
REMARK VINA RESULT:      -7.0      0.000      0.000
REMARK  Name = pdb/CHEMBL3975036.pdb
REMARK                            x       y       z     vdW  Elec       q    Type
REMARK                         _______ _______ _______ _____ _____    ______ ____
ROOT
ATOM      1  C   LIG    1      -35.511  69.272  25.218  0.00  0.00    +0.149 A 
ATOM      2  N   LIG    1      -36.656  69.963  25.349  0.00  0.00    -0.160 NA
ATOM      3  N   LIG    1      -36.292  71.139  25.936  0.00  0.00    -0.218 N 
ATOM      4  C   LIG    1      -34.915  71.196  26.196  0.00  0.00    +0.129 A 
ATOM      5  C   LIG    1      -34.429  69.962  25.815  0.00  0.00    +0.078 A 
ENDROOT
BRANCH   3   6
ATOM      6  C   LIG    1      -37.278  72.149  26.123  0.00  0.00    +0.067 A 
ATOM      7  C   LIG    1      -37.844  72.786  25.005  0.00  0.00    +0.028 A 
ATOM      8  C   LIG    1      -38.776  73.813  25.181  0.00  0.00    +0.002 A 
ATOM      9  C   LIG    1      -39.141  74.212  26.466  0.00  0.00    +0.000 A 
ATOM     10  C   LIG    1      -38.589  73.575  27.576  0.00  0.00    +0.002 A 
ATOM     11  C   LIG    1      -37.658  72.550  27.409  0.00  0.00    +0.028 A 
ENDBRANCH   3   6
BRANCH   4  12
ATOM     12  N   LIG    1      -34.190  72.254  26.791  0.00  0.00    -0.266 N 
ATOM     13  H   LIG    1      -33.716  72.905  26.181  0.00  0.00    +0.157 HD
ATOM     14  C   LIG    1      -34.036  72.401  28.222  0.00  0.00    +0.251 C 
ATOM     15  O   LIG    1      -34.561  71.608  28.968  0.00  0.00    -0.270 OA
BRANCH  14  16
ATOM     16  C   LIG    1      -33.131  73.462  28.770  0.00  0.00    +0.056 A 
ATOM     17  C   LIG    1      -31.973  73.229  29.508  0.00  0.00    +0.053 A 
ATOM     18 CL   LIG    1      -31.371  71.645  29.832  0.00  0.00    -0.083 Cl
ATOM     19  C   LIG    1      -31.206  74.312  29.963  0.00  0.00    +0.021 A 
ATOM     20  C   LIG    1      -31.559  75.628  29.635  0.00  0.00    +0.011 A 
ATOM     21  C   LIG    1      -32.673  75.908  28.830  0.00  0.00    +0.004 A 
ATOM     22  C   LIG    1      -33.464  74.801  28.441  0.00  0.00    +0.024 A 
BRANCH  21  23
ATOM     23  C   LIG    1      -32.999  77.288  28.379  0.00  0.00    +0.106 A 
ATOM     24  C   LIG    1      -32.444  77.886  27.240  0.00  0.00    +0.149 A 
ATOM     25  F   LIG    1      -31.568  77.238  26.458  0.00  0.00    -0.203 F 
ATOM     26  C   LIG    1      -32.807  79.179  26.879  0.00  0.00    +0.042 A 
ATOM     27  C   LIG    1      -33.728  79.864  27.659  0.00  0.00    +0.023 A 
ATOM     28  C   LIG    1      -34.248  79.215  28.768  0.00  0.00    +0.111 A 
ATOM     29  N   LIG    1      -33.911  77.954  29.140  0.00  0.00    -0.252 NA
ENDBRANCH  21  23
ENDBRANCH  14  16
ENDBRANCH   4  12
BRANCH   1  30
ATOM     30  C   LIG    1      -35.503  67.994  24.502  0.00  0.00    +0.236 C 
ATOM     31  N   LIG    1      -34.825  67.840  23.424  0.00  0.00    -0.248 NA
BRANCH  30  32
ATOM     32  O   LIG    1      -36.289  67.034  25.045  0.00  0.00    -0.491 OA
ATOM     33  H   LIG    1      -36.107  66.986  26.004  0.00  0.00    +0.294 HD
ENDBRANCH  30  32
BRANCH  31  34
ATOM     34  C   LIG    1      -34.956  66.533  22.768  0.00  0.00    +0.162 C 
BRANCH  34  35
ATOM     35  C   LIG    1      -35.005  66.737  21.272  0.00  0.00    +0.052 C 
ATOM     36  C   LIG    1      -33.784  66.433  20.517  0.00  0.00    +0.028 C 
ATOM     37  C   LIG    1      -33.770  66.563  19.182  0.00  0.00    +0.184 C 
ATOM     38  N   LIG    1      -34.881  66.978  18.500  0.00  0.00    -0.210 N 
ATOM     39  H   LIG    1      -34.854  67.076  17.495  0.00  0.00    +0.298 HD
ATOM     40  C   LIG    1      -36.054  67.290  19.137  0.00  0.00    +0.295 C 
ATOM     41  C   LIG    1      -36.117  67.160  20.629  0.00  0.00    +0.083 C 
BRANCH  40  42
ATOM     42  N   LIG    1      -37.074  67.683  18.440  0.00  0.00    -0.071 NA
ATOM     43  H   LIG    1      -37.174  68.699  18.492  0.00  0.00    +0.348 HD
ENDBRANCH  40  42
ENDBRANCH  34  35
ENDBRANCH  31  34
ENDBRANCH   1  30
TORSDOF 9
ENDMDL
MODEL 2
REMARK VINA RESULT:      -6.9      5.246     12.084
REMARK  Name = pdb/CHEMBL3975036.pdb
REMARK                            x       y       z     vdW  Elec       q    Type
REMARK                         _______ _______ _______ _____ _____    ______ ____
ROOT
ATOM      1  C   LIG    1      -36.702  79.988  27.693  0.00  0.00    +0.149 A 
ATOM      2  N   LIG    1      -35.798  79.077  28.092  0.00  0.00    -0.160 NA
ATOM      3  N   LIG    1      -36.303  77.877  27.685  0.00  0.00    -0.218 N 
ATOM      4  C   LIG    1      -37.540  78.018  27.038  0.00  0.00    +0.129 A 
ATOM      5  C   LIG    1      -37.837  79.362  27.123  0.00  0.00    +0.078 A 
ENDROOT
BRANCH   3   6
ATOM      6  C   LIG    1      -35.522  76.702  27.871  0.00  0.00    +0.067 A 
ATOM      7  C   LIG    1      -36.031  75.641  28.638  0.00  0.00    +0.028 A 
ATOM      8  C   LIG    1      -35.250  74.504  28.867  0.00  0.00    +0.002 A 
ATOM      9  C   LIG    1      -33.963  74.424  28.340  0.00  0.00    +0.000 A 
ATOM     10  C   LIG    1      -33.459  75.470  27.570  0.00  0.00    +0.002 A 
ATOM     11  C   LIG    1      -34.232  76.608  27.337  0.00  0.00    +0.028 A 
ENDBRANCH   3   6
BRANCH   4  12
ATOM     12  N   LIG    1      -38.350  76.996  26.488  0.00  0.00    -0.266 N 
ATOM     13  H   LIG    1      -39.113  76.645  27.050  0.00  0.00    +0.157 HD
ATOM     14  C   LIG    1      -38.091  76.387  25.202  0.00  0.00    +0.251 C 
ATOM     15  O   LIG    1      -37.157  76.766  24.535  0.00  0.00    -0.270 OA
BRANCH  14  16
ATOM     16  C   LIG    1      -38.906  75.211  24.757  0.00  0.00    +0.056 A 
ATOM     17  C   LIG    1      -40.158  75.283  24.153  0.00  0.00    +0.053 A 
ATOM     18 CL   LIG    1      -40.924  76.776  23.757  0.00  0.00    -0.083 Cl
ATOM     19  C   LIG    1      -40.820  74.103  23.777  0.00  0.00    +0.021 A 
ATOM     20  C   LIG    1      -40.210  72.854  23.950  0.00  0.00    +0.011 A 
ATOM     21  C   LIG    1      -38.918  72.738  24.483  0.00  0.00    +0.004 A 
ATOM     22  C   LIG    1      -38.303  73.937  24.913  0.00  0.00    +0.024 A 
BRANCH  21  23
ATOM     23  C   LIG    1      -38.211  71.431  24.570  0.00  0.00    +0.106 A 
ATOM     24  C   LIG    1      -38.532  70.319  23.781  0.00  0.00    +0.149 A 
ATOM     25  F   LIG    1      -39.514  70.359  22.869  0.00  0.00    -0.203 F 
ATOM     26  C   LIG    1      -37.817  69.133  23.916  0.00  0.00    +0.042 A 
ATOM     27  C   LIG    1      -36.781  69.071  24.837  0.00  0.00    +0.023 A 
ATOM     28  C   LIG    1      -36.506  70.208  25.581  0.00  0.00    +0.111 A 
ATOM     29  N   LIG    1      -37.187  71.376  25.467  0.00  0.00    -0.252 NA
ENDBRANCH  21  23
ENDBRANCH  14  16
ENDBRANCH   4  12
BRANCH   1  30
ATOM     30  C   LIG    1      -36.424  81.417  27.853  0.00  0.00    +0.236 C 
ATOM     31  N   LIG    1      -37.373  82.269  27.985  0.00  0.00    -0.248 NA
BRANCH  30  32
ATOM     32  O   LIG    1      -35.111  81.748  27.804  0.00  0.00    -0.491 OA
ATOM     33  H   LIG    1      -34.616  81.153  28.400  0.00  0.00    +0.294 HD
ENDBRANCH  30  32
BRANCH  31  34
ATOM     34  C   LIG    1      -36.962  83.676  28.069  0.00  0.00    +0.162 C 
BRANCH  34  35
ATOM     35  C   LIG    1      -37.178  84.332  26.725  0.00  0.00    +0.052 C 
ATOM     36  C   LIG    1      -38.284  83.823  25.906  0.00  0.00    +0.028 C 
ATOM     37  C   LIG    1      -38.550  84.382  24.716  0.00  0.00    +0.184 C 
ATOM     38  N   LIG    1      -37.804  85.428  24.242  0.00  0.00    -0.210 N 
ATOM     39  H   LIG    1      -38.014  85.835  23.342  0.00  0.00    +0.298 HD
ATOM     40  C   LIG    1      -36.750  85.949  24.946  0.00  0.00    +0.295 C 
ATOM     41  C   LIG    1      -36.415  85.356  26.282  0.00  0.00    +0.083 C 
BRANCH  40  42
ATOM     42  N   LIG    1      -36.075  86.936  24.447  0.00  0.00    -0.071 NA
ATOM     43  H   LIG    1      -35.191  86.604  24.053  0.00  0.00    +0.348 HD
ENDBRANCH  40  42
ENDBRANCH  34  35
ENDBRANCH  31  34
ENDBRANCH   1  30
TORSDOF 9
ENDMDL
MODEL 3
REMARK VINA RESULT:      -6.8      6.216      9.253
REMARK  Name = pdb/CHEMBL3975036.pdb
REMARK                            x       y       z     vdW  Elec       q    Type
REMARK                         _______ _______ _______ _____ _____    ______ ____
ROOT
ATOM      1  C   LIG    1      -33.052  76.238  28.630  0.00  0.00    +0.149 A 
ATOM      2  N   LIG    1      -33.423  77.504  28.890  0.00  0.00    -0.160 NA
ATOM      3  N   LIG    1      -34.489  77.734  28.071  0.00  0.00    -0.218 N 
ATOM      4  C   LIG    1      -34.793  76.621  27.274  0.00  0.00    +0.129 A 
ATOM      5  C   LIG    1      -33.815  75.693  27.570  0.00  0.00    +0.078 A 
ENDROOT
BRANCH   3   6
ATOM      6  C   LIG    1      -35.185  78.971  28.179  0.00  0.00    +0.067 A 
ATOM      7  C   LIG    1      -34.567  80.158  27.750  0.00  0.00    +0.028 A 
ATOM      8  C   LIG    1      -35.224  81.383  27.898  0.00  0.00    +0.002 A 
ATOM      9  C   LIG    1      -36.490  81.431  28.478  0.00  0.00    +0.000 A 
ATOM     10  C   LIG    1      -37.110  80.254  28.895  0.00  0.00    +0.002 A 
ATOM     11  C   LIG    1      -36.461  79.028  28.751  0.00  0.00    +0.028 A 
ENDBRANCH   3   6
BRANCH   4  12
ATOM     12  N   LIG    1      -35.825  76.499  26.315  0.00  0.00    -0.266 N 
ATOM     13  H   LIG    1      -35.629  76.796  25.370  0.00  0.00    +0.157 HD
ATOM     14  C   LIG    1      -37.158  76.043  26.642  0.00  0.00    +0.251 C 
ATOM     15  O   LIG    1      -37.423  75.723  27.777  0.00  0.00    -0.270 OA
BRANCH  14  16
ATOM     16  C   LIG    1      -38.236  76.083  25.601  0.00  0.00    +0.056 A 
ATOM     17  C   LIG    1      -38.870  74.969  25.056  0.00  0.00    +0.053 A 
ATOM     18 CL   LIG    1      -38.543  73.357  25.576  0.00  0.00    -0.083 Cl
ATOM     19  C   LIG    1      -39.870  75.141  24.087  0.00  0.00    +0.021 A 
ATOM     20  C   LIG    1      -40.282  76.423  23.702  0.00  0.00    +0.011 A 
ATOM     21  C   LIG    1      -39.727  77.574  24.279  0.00  0.00    +0.004 A 
ATOM     22  C   LIG    1      -38.675  77.372  25.204  0.00  0.00    +0.024 A 
BRANCH  21  23
ATOM     23  C   LIG    1      -40.228  78.940  23.964  0.00  0.00    +0.106 A 
ATOM     24  C   LIG    1      -41.515  79.389  24.287  0.00  0.00    +0.149 A 
ATOM     25  F   LIG    1      -42.400  78.605  24.921  0.00  0.00    -0.203 F 
ATOM     26  C   LIG    1      -41.907  80.685  23.967  0.00  0.00    +0.042 A 
ATOM     27  C   LIG    1      -41.003  81.525  23.331  0.00  0.00    +0.023 A 
ATOM     28  C   LIG    1      -39.742  81.025  23.047  0.00  0.00    +0.111 A 
ATOM     29  N   LIG    1      -39.336  79.765  23.350  0.00  0.00    -0.252 NA
ENDBRANCH  21  23
ENDBRANCH  14  16
ENDBRANCH   4  12
BRANCH   1  30
ATOM     30  C   LIG    1      -32.002  75.602  29.428  0.00  0.00    +0.236 C 
ATOM     31  N   LIG    1      -31.931  74.326  29.538  0.00  0.00    -0.248 NA
BRANCH  30  32
ATOM     32  O   LIG    1      -31.166  76.463  30.057  0.00  0.00    -0.491 OA
ATOM     33  H   LIG    1      -30.277  76.061  30.099  0.00  0.00    +0.294 HD
ENDBRANCH  30  32
BRANCH  31  34
ATOM     34  C   LIG    1      -30.873  73.819  30.421  0.00  0.00    +0.162 C 
BRANCH  34  35
ATOM     35  C   LIG    1      -30.757  72.323  30.239  0.00  0.00    +0.052 C 
ATOM     36  C   LIG    1      -31.924  71.627  29.685  0.00  0.00    +0.028 C 
ATOM     37  C   LIG    1      -31.875  70.304  29.469  0.00  0.00    +0.184 C 
ATOM     38  N   LIG    1      -30.750  69.580  29.758  0.00  0.00    -0.210 N 
ATOM     39  H   LIG    1      -30.730  68.583  29.594  0.00  0.00    +0.298 HD
ATOM     40  C   LIG    1      -29.626  70.159  30.286  0.00  0.00    +0.295 C 
ATOM     41  C   LIG    1      -29.634  71.636  30.545  0.00  0.00    +0.083 C 
BRANCH  40  42
ATOM     42  N   LIG    1      -28.590  69.424  30.545  0.00  0.00    -0.071 NA
ATOM     43  H   LIG    1      -27.757  69.806  30.090  0.00  0.00    +0.348 HD
ENDBRANCH  40  42
ENDBRANCH  34  35
ENDBRANCH  31  34
ENDBRANCH   1  30
TORSDOF 9
ENDMDL
MODEL 4
REMARK VINA RESULT:      -6.8     17.579     21.216
REMARK  Name = pdb/CHEMBL3975036.pdb
REMARK                            x       y       z     vdW  Elec       q    Type
REMARK                         _______ _______ _______ _____ _____    ______ ____
ROOT
ATOM      1  C   LIG    1      -22.252  82.687  15.807  0.00  0.00    +0.149 A 
ATOM      2  N   LIG    1      -20.981  82.250  15.773  0.00  0.00    -0.160 NA
ATOM      3  N   LIG    1      -21.078  80.890  15.714  0.00  0.00    -0.218 N 
ATOM      4  C   LIG    1      -22.412  80.455  15.724  0.00  0.00    +0.129 A 
ATOM      5  C   LIG    1      -23.161  81.604  15.873  0.00  0.00    +0.078 A 
ENDROOT
BRANCH   3   6
ATOM      6  C   LIG    1      -19.889  80.122  15.565  0.00  0.00    +0.067 A 
ATOM      7  C   LIG    1      -19.113  80.258  14.401  0.00  0.00    +0.028 A 
ATOM      8  C   LIG    1      -17.971  79.471  14.224  0.00  0.00    +0.002 A 
ATOM      9  C   LIG    1      -17.604  78.545  15.199  0.00  0.00    +0.000 A 
ATOM     10  C   LIG    1      -18.366  78.415  16.359  0.00  0.00    +0.002 A 
ATOM     11  C   LIG    1      -19.507  79.197  16.542  0.00  0.00    +0.028 A 
ENDBRANCH   3   6
BRANCH   4  12
ATOM     12  N   LIG    1      -22.887  79.124  15.675  0.00  0.00    -0.266 N 
ATOM     13  H   LIG    1      -23.242  78.717  16.529  0.00  0.00    +0.157 HD
ATOM     14  C   LIG    1      -22.820  78.304  14.485  0.00  0.00    +0.251 C 
ATOM     15  O   LIG    1      -22.360  78.760  13.465  0.00  0.00    -0.270 OA
BRANCH  14  16
ATOM     16  C   LIG    1      -23.208  76.858  14.554  0.00  0.00    +0.056 A 
ATOM     17  C   LIG    1      -24.018  76.198  13.633  0.00  0.00    +0.053 A 
ATOM     18 CL   LIG    1      -24.636  76.958  12.214  0.00  0.00    -0.083 Cl
ATOM     19  C   LIG    1      -24.306  74.836  13.808  0.00  0.00    +0.021 A 
ATOM     20  C   LIG    1      -23.741  74.115  14.868  0.00  0.00    +0.011 A 
ATOM     21  C   LIG    1      -22.858  74.718  15.775  0.00  0.00    +0.004 A 
ATOM     22  C   LIG    1      -22.639  76.107  15.614  0.00  0.00    +0.024 A 
BRANCH  21  23
ATOM     23  C   LIG    1      -22.162  73.944  16.839  0.00  0.00    +0.106 A 
ATOM     24  C   LIG    1      -20.774  73.755  16.882  0.00  0.00    +0.149 A 
ATOM     25  F   LIG    1      -19.961  74.277  15.952  0.00  0.00    -0.203 F 
ATOM     26  C   LIG    1      -20.197  73.025  17.916  0.00  0.00    +0.042 A 
ATOM     27  C   LIG    1      -21.014  72.493  18.903  0.00  0.00    +0.023 A 
ATOM     28  C   LIG    1      -22.377  72.722  18.811  0.00  0.00    +0.111 A 
ATOM     29  N   LIG    1      -22.965  73.432  17.813  0.00  0.00    -0.252 NA
ENDBRANCH  21  23
ENDBRANCH  14  16
ENDBRANCH   4  12
BRANCH   1  30
ATOM     30  C   LIG    1      -22.536  84.122  15.745  0.00  0.00    +0.236 C 
ATOM     31  N   LIG    1      -22.343  84.794  14.670  0.00  0.00    -0.248 NA
BRANCH  30  32
ATOM     32  O   LIG    1      -22.967  84.666  16.909  0.00  0.00    -0.491 OA
ATOM     33  H   LIG    1      -22.623  85.578  16.975  0.00  0.00    +0.294 HD
ENDBRANCH  30  32
BRANCH  31  34
ATOM     34  C   LIG    1      -22.603  86.236  14.761  0.00  0.00    +0.162 C 
BRANCH  34  35
ATOM     35  C   LIG    1      -21.544  86.976  13.978  0.00  0.00    +0.052 C 
ATOM     36  C   LIG    1      -21.957  88.210  13.300  0.00  0.00    +0.028 C 
ATOM     37  C   LIG    1      -21.058  88.932  12.614  0.00  0.00    +0.184 C 
ATOM     38  N   LIG    1      -19.749  88.539  12.531  0.00  0.00    -0.210 N 
ATOM     39  H   LIG    1      -19.085  89.091  12.007  0.00  0.00    +0.298 HD
ATOM     40  C   LIG    1      -19.292  87.395  13.130  0.00  0.00    +0.295 C 
ATOM     41  C   LIG    1      -20.261  86.555  13.908  0.00  0.00    +0.083 C 
BRANCH  40  42
ATOM     42  N   LIG    1      -18.043  87.069  13.014  0.00  0.00    -0.071 NA
ATOM     43  H   LIG    1      -17.935  86.284  12.367  0.00  0.00    +0.348 HD
ENDBRANCH  40  42
ENDBRANCH  34  35
ENDBRANCH  31  34
ENDBRANCH   1  30
TORSDOF 9
ENDMDL
MODEL 5
REMARK VINA RESULT:      -6.8     10.016     12.826
REMARK  Name = pdb/CHEMBL3975036.pdb
REMARK                            x       y       z     vdW  Elec       q    Type
REMARK                         _______ _______ _______ _____ _____    ______ ____
ROOT
ATOM      1  C   LIG    1      -24.540  72.405  30.883  0.00  0.00    +0.149 A 
ATOM      2  N   LIG    1      -25.637  73.009  31.372  0.00  0.00    -0.160 NA
ATOM      3  N   LIG    1      -25.169  74.104  32.037  0.00  0.00    -0.218 N 
ATOM      4  C   LIG    1      -23.770  74.194  31.987  0.00  0.00    +0.129 A 
ATOM      5  C   LIG    1      -23.363  73.057  31.322  0.00  0.00    +0.078 A 
ENDROOT
BRANCH   3   6
ATOM      6  C   LIG    1      -26.104  75.022  32.594  0.00  0.00    +0.067 A 
ATOM      7  C   LIG    1      -26.754  75.947  31.758  0.00  0.00    +0.028 A 
ATOM      8  C   LIG    1      -27.636  76.884  32.304  0.00  0.00    +0.002 A 
ATOM      9  C   LIG    1      -27.866  76.909  33.678  0.00  0.00    +0.000 A 
ATOM     10  C   LIG    1      -27.231  75.987  34.507  0.00  0.00    +0.002 A 
ATOM     11  C   LIG    1      -26.349  75.048  33.971  0.00  0.00    +0.028 A 
ENDBRANCH   3   6
BRANCH   4  12
ATOM     12  N   LIG    1      -22.947  75.191  32.561  0.00  0.00    -0.266 N 
ATOM     13  H   LIG    1      -22.566  75.017  33.480  0.00  0.00    +0.157 HD
ATOM     14  C   LIG    1      -22.690  76.466  31.929  0.00  0.00    +0.251 C 
ATOM     15  O   LIG    1      -23.171  76.708  30.847  0.00  0.00    -0.270 OA
BRANCH  14  16
ATOM     16  C   LIG    1      -21.929  77.525  32.667  0.00  0.00    +0.056 A 
ATOM     17  C   LIG    1      -20.576  77.810  32.497  0.00  0.00    +0.053 A 
ATOM     18 CL   LIG    1      -19.590  77.013  31.328  0.00  0.00    -0.083 Cl
ATOM     19  C   LIG    1      -19.979  78.833  33.250  0.00  0.00    +0.021 A 
ATOM     20  C   LIG    1      -20.741  79.611  34.131  0.00  0.00    +0.011 A 
ATOM     21  C   LIG    1      -22.121  79.411  34.279  0.00  0.00    +0.004 A 
ATOM     22  C   LIG    1      -22.683  78.331  33.557  0.00  0.00    +0.024 A 
BRANCH  21  23
ATOM     23  C   LIG    1      -22.965  80.299  35.124  0.00  0.00    +0.106 A 
ATOM     24  C   LIG    1      -24.263  79.974  35.538  0.00  0.00    +0.149 A 
ATOM     25  F   LIG    1      -24.843  78.813  35.201  0.00  0.00    -0.203 F 
ATOM     26  C   LIG    1      -24.986  80.854  36.337  0.00  0.00    +0.042 A 
ATOM     27  C   LIG    1      -24.401  82.053  36.720  0.00  0.00    +0.023 A 
ATOM     28  C   LIG    1      -23.111  82.313  36.286  0.00  0.00    +0.111 A 
ATOM     29  N   LIG    1      -22.384  81.470  35.508  0.00  0.00    -0.252 NA
ENDBRANCH  21  23
ENDBRANCH  14  16
ENDBRANCH   4  12
BRANCH   1  30
ATOM     30  C   LIG    1      -24.674  71.248  29.995  0.00  0.00    +0.236 C 
ATOM     31  N   LIG    1      -23.745  70.933  29.167  0.00  0.00    -0.248 NA
BRANCH  30  32
ATOM     32  O   LIG    1      -25.853  70.588  30.095  0.00  0.00    -0.491 OA
ATOM     33  H   LIG    1      -25.985  70.323  31.026  0.00  0.00    +0.294 HD
ENDBRANCH  30  32
BRANCH  31  34
ATOM     34  C   LIG    1      -24.032  69.794  28.288  0.00  0.00    +0.162 C 
BRANCH  34  35
ATOM     35  C   LIG    1      -24.416  70.312  26.922  0.00  0.00    +0.052 C 
ATOM     36  C   LIG    1      -25.698  69.857  26.373  0.00  0.00    +0.028 C 
ATOM     37  C   LIG    1      -26.113  70.304  25.178  0.00  0.00    +0.184 C 
ATOM     38  N   LIG    1      -25.358  71.184  24.450  0.00  0.00    -0.210 N 
ATOM     39  H   LIG    1      -25.682  71.508  23.550  0.00  0.00    +0.298 HD
ATOM     40  C   LIG    1      -24.146  71.644  24.893  0.00  0.00    +0.295 C 
ATOM     41  C   LIG    1      -23.641  71.173  26.224  0.00  0.00    +0.083 C 
BRANCH  40  42
ATOM     42  N   LIG    1      -23.471  72.474  24.160  0.00  0.00    -0.071 NA
ATOM     43  H   LIG    1      -23.005  71.980  23.396  0.00  0.00    +0.348 HD
ENDBRANCH  40  42
ENDBRANCH  34  35
ENDBRANCH  31  34
ENDBRANCH   1  30
TORSDOF 9
ENDMDL
MODEL 6
REMARK VINA RESULT:      -6.7     17.464     20.863
REMARK  Name = pdb/CHEMBL3975036.pdb
REMARK                            x       y       z     vdW  Elec       q    Type
REMARK                         _______ _______ _______ _____ _____    ______ ____
ROOT
ATOM      1  C   LIG    1      -20.213  81.786  14.376  0.00  0.00    +0.149 A 
ATOM      2  N   LIG    1      -21.480  81.475  14.052  0.00  0.00    -0.160 NA
ATOM      3  N   LIG    1      -21.685  80.235  14.582  0.00  0.00    -0.218 N 
ATOM      4  C   LIG    1      -20.544  79.744  15.234  0.00  0.00    +0.129 A 
ATOM      5  C   LIG    1      -19.573  80.702  15.024  0.00  0.00    +0.078 A 
ENDROOT
BRANCH   3   6
ATOM      6  C   LIG    1      -22.983  79.657  14.498  0.00  0.00    +0.067 A 
ATOM      7  C   LIG    1      -23.293  78.795  13.432  0.00  0.00    +0.028 A 
ATOM      8  C   LIG    1      -24.580  78.262  13.313  0.00  0.00    +0.002 A 
ATOM      9  C   LIG    1      -25.560  78.589  14.249  0.00  0.00    +0.000 A 
ATOM     10  C   LIG    1      -25.252  79.435  15.313  0.00  0.00    +0.002 A 
ATOM     11  C   LIG    1      -23.970  79.971  15.438  0.00  0.00    +0.028 A 
ENDBRANCH   3   6
BRANCH   4  12
ATOM     12  N   LIG    1      -20.391  78.503  15.894  0.00  0.00    -0.266 N 
ATOM     13  H   LIG    1      -20.426  78.497  16.903  0.00  0.00    +0.157 HD
ATOM     14  C   LIG    1      -20.117  77.265  15.198  0.00  0.00    +0.251 C 
ATOM     15  O   LIG    1      -20.030  77.260  13.992  0.00  0.00    -0.270 OA
BRANCH  14  16
ATOM     16  C   LIG    1      -19.821  76.020  15.978  0.00  0.00    +0.056 A 
ATOM     17  C   LIG    1      -18.694  75.816  16.769  0.00  0.00    +0.053 A 
ATOM     18 CL   LIG    1      -17.495  77.028  17.024  0.00  0.00    -0.083 Cl
ATOM     19  C   LIG    1      -18.535  74.602  17.456  0.00  0.00    +0.021 A 
ATOM     20  C   LIG    1      -19.525  73.613  17.401  0.00  0.00    +0.011 A 
ATOM     21  C   LIG    1      -20.712  73.805  16.680  0.00  0.00    +0.004 A 
ATOM     22  C   LIG    1      -20.816  75.010  15.945  0.00  0.00    +0.024 A 
BRANCH  21  23
ATOM     23  C   LIG    1      -21.822  72.814  16.701  0.00  0.00    +0.106 A 
ATOM     24  C   LIG    1      -22.702  72.654  17.780  0.00  0.00    +0.149 A 
ATOM     25  F   LIG    1      -22.605  73.404  18.887  0.00  0.00    -0.203 F 
ATOM     26  C   LIG    1      -23.722  71.710  17.719  0.00  0.00    +0.042 A 
ATOM     27  C   LIG    1      -23.858  70.936  16.575  0.00  0.00    +0.023 A 
ATOM     28  C   LIG    1      -22.963  71.148  15.539  0.00  0.00    +0.111 A 
ATOM     29  N   LIG    1      -21.961  72.063  15.572  0.00  0.00    -0.252 NA
ENDBRANCH  21  23
ENDBRANCH  14  16
ENDBRANCH   4  12
BRANCH   1  30
ATOM     30  C   LIG    1      -19.684  83.118  14.074  0.00  0.00    +0.236 C 
ATOM     31  N   LIG    1      -20.462  84.091  13.770  0.00  0.00    -0.248 NA
BRANCH  30  32
ATOM     32  O   LIG    1      -18.333  83.211  14.102  0.00  0.00    -0.491 OA
ATOM     33  H   LIG    1      -17.960  82.542  13.494  0.00  0.00    +0.294 HD
ENDBRANCH  30  32
BRANCH  31  34
ATOM     34  C   LIG    1      -19.801  85.355  13.424  0.00  0.00    +0.162 C 
BRANCH  34  35
ATOM     35  C   LIG    1      -20.808  86.478  13.519  0.00  0.00    +0.052 C 
ATOM     36  C   LIG    1      -21.518  86.842  12.288  0.00  0.00    +0.028 C 
ATOM     37  C   LIG    1      -22.447  87.809  12.310  0.00  0.00    +0.184 C 
ATOM     38  N   LIG    1      -22.751  88.472  13.468  0.00  0.00    -0.210 N 
ATOM     39  H   LIG    1      -23.450  89.202  13.468  0.00  0.00    +0.298 HD
ATOM     40  C   LIG    1      -22.123  88.195  14.654  0.00  0.00    +0.295 C 
ATOM     41  C   LIG    1      -21.077  87.120  14.678  0.00  0.00    +0.083 C 
BRANCH  40  42
ATOM     42  N   LIG    1      -22.448  88.858  15.719  0.00  0.00    -0.071 NA
ATOM     43  H   LIG    1      -22.128  89.827  15.650  0.00  0.00    +0.348 HD
ENDBRANCH  40  42
ENDBRANCH  34  35
ENDBRANCH  31  34
ENDBRANCH   1  30
TORSDOF 9
ENDMDL
MODEL 7
REMARK VINA RESULT:      -6.7      4.338     10.423
REMARK  Name = pdb/CHEMBL3975036.pdb
REMARK                            x       y       z     vdW  Elec       q    Type
REMARK                         _______ _______ _______ _____ _____    ______ ____
ROOT
ATOM      1  C   LIG    1      -31.923  74.557  29.615  0.00  0.00    +0.149 A 
ATOM      2  N   LIG    1      -31.951  75.891  29.457  0.00  0.00    -0.160 NA
ATOM      3  N   LIG    1      -32.993  76.124  28.608  0.00  0.00    -0.218 N 
ATOM      4  C   LIG    1      -33.624  74.936  28.209  0.00  0.00    +0.129 A 
ATOM      5  C   LIG    1      -32.882  73.926  28.785  0.00  0.00    +0.078 A 
ENDROOT
BRANCH   3   6
ATOM      6  C   LIG    1      -33.355  77.469  28.315  0.00  0.00    +0.067 A 
ATOM      7  C   LIG    1      -32.726  78.145  27.256  0.00  0.00    +0.028 A 
ATOM      8  C   LIG    1      -33.039  79.481  26.993  0.00  0.00    +0.002 A 
ATOM      9  C   LIG    1      -33.971  80.149  27.785  0.00  0.00    +0.000 A 
ATOM     10  C   LIG    1      -34.604  79.478  28.830  0.00  0.00    +0.002 A 
ATOM     11  C   LIG    1      -34.297  78.144  29.099  0.00  0.00    +0.028 A 
ENDBRANCH   3   6
BRANCH   4  12
ATOM     12  N   LIG    1      -34.731  74.795  27.340  0.00  0.00    -0.266 N 
ATOM     13  H   LIG    1      -34.546  74.589  26.369  0.00  0.00    +0.157 HD
ATOM     14  C   LIG    1      -36.099  75.004  27.761  0.00  0.00    +0.251 C 
ATOM     15  O   LIG    1      -36.337  75.293  28.910  0.00  0.00    -0.270 OA
BRANCH  14  16
ATOM     16  C   LIG    1      -37.203  74.981  26.748  0.00  0.00    +0.056 A 
ATOM     17  C   LIG    1      -37.900  76.098  26.293  0.00  0.00    +0.053 A 
ATOM     18 CL   LIG    1      -37.524  77.705  26.792  0.00  0.00    -0.083 Cl
ATOM     19  C   LIG    1      -38.915  75.944  25.336  0.00  0.00    +0.021 A 
ATOM     20  C   LIG    1      -39.197  74.686  24.787  0.00  0.00    +0.011 A 
ATOM     21  C   LIG    1      -38.470  73.546  25.158  0.00  0.00    +0.004 A 
ATOM     22  C   LIG    1      -37.499  73.719  26.173  0.00  0.00    +0.024 A 
BRANCH  21  23
ATOM     23  C   LIG    1      -38.680  72.224  24.506  0.00  0.00    +0.106 A 
ATOM     24  C   LIG    1      -37.671  71.264  24.353  0.00  0.00    +0.149 A 
ATOM     25  F   LIG    1      -36.424  71.471  24.800  0.00  0.00    -0.203 F 
ATOM     26  C   LIG    1      -37.950  70.046  23.740  0.00  0.00    +0.042 A 
ATOM     27  C   LIG    1      -39.238  69.797  23.288  0.00  0.00    +0.023 A 
ATOM     28  C   LIG    1      -40.193  70.783  23.477  0.00  0.00    +0.111 A 
ATOM     29  N   LIG    1      -39.948  71.978  24.074  0.00  0.00    -0.252 NA
ENDBRANCH  21  23
ENDBRANCH  14  16
ENDBRANCH   4  12
BRANCH   1  30
ATOM     30  C   LIG    1      -30.998  73.950  30.574  0.00  0.00    +0.236 C 
ATOM     31  N   LIG    1      -30.601  74.589  31.613  0.00  0.00    -0.248 NA
BRANCH  30  32
ATOM     32  O   LIG    1      -30.579  72.703  30.248  0.00  0.00    -0.491 OA
ATOM     33  H   LIG    1      -31.225  72.308  29.630  0.00  0.00    +0.294 HD
ENDBRANCH  30  32
BRANCH  31  34
ATOM     34  C   LIG    1      -29.623  73.894  32.457  0.00  0.00    +0.162 C 
BRANCH  34  35
ATOM     35  C   LIG    1      -28.248  74.456  32.182  0.00  0.00    +0.052 C 
ATOM     36  C   LIG    1      -27.140  73.498  32.102  0.00  0.00    +0.028 C 
ATOM     37  C   LIG    1      -25.899  73.929  31.830  0.00  0.00    +0.184 C 
ATOM     38  N   LIG    1      -25.639  75.257  31.623  0.00  0.00    -0.210 N 
ATOM     39  H   LIG    1      -24.699  75.566  31.423  0.00  0.00    +0.298 HD
ATOM     40  C   LIG    1      -26.621  76.210  31.691  0.00  0.00    +0.295 C 
ATOM     41  C   LIG    1      -28.024  75.776  31.993  0.00  0.00    +0.083 C 
BRANCH  40  42
ATOM     42  N   LIG    1      -26.318  77.454  31.491  0.00  0.00    -0.071 NA
ATOM     43  H   LIG    1      -25.942  77.874  32.345  0.00  0.00    +0.348 HD
ENDBRANCH  40  42
ENDBRANCH  34  35
ENDBRANCH  31  34
ENDBRANCH   1  30
TORSDOF 9
ENDMDL
MODEL 8
REMARK VINA RESULT:      -6.6      5.801      9.079
REMARK  Name = pdb/CHEMBL3975036.pdb
REMARK                            x       y       z     vdW  Elec       q    Type
REMARK                         _______ _______ _______ _____ _____    ______ ____
ROOT
ATOM      1  C   LIG    1      -31.842  74.220  29.753  0.00  0.00    +0.149 A 
ATOM      2  N   LIG    1      -31.681  75.523  29.461  0.00  0.00    -0.160 NA
ATOM      3  N   LIG    1      -32.681  75.812  28.580  0.00  0.00    -0.218 N 
ATOM      4  C   LIG    1      -33.474  74.691  28.294  0.00  0.00    +0.129 A 
ATOM      5  C   LIG    1      -32.881  73.650  28.978  0.00  0.00    +0.078 A 
ENDROOT
BRANCH   3   6
ATOM      6  C   LIG    1      -32.849  77.158  28.149  0.00  0.00    +0.067 A 
ATOM      7  C   LIG    1      -33.715  78.012  28.852  0.00  0.00    +0.028 A 
ATOM      8  C   LIG    1      -33.924  79.321  28.406  0.00  0.00    +0.002 A 
ATOM      9  C   LIG    1      -33.280  79.778  27.259  0.00  0.00    +0.000 A 
ATOM     10  C   LIG    1      -32.412  78.937  26.565  0.00  0.00    +0.002 A 
ATOM     11  C   LIG    1      -32.198  77.630  27.003  0.00  0.00    +0.028 A 
ENDBRANCH   3   6
BRANCH   4  12
ATOM     12  N   LIG    1      -34.591  74.620  27.429  0.00  0.00    -0.266 N 
ATOM     13  H   LIG    1      -34.434  74.313  26.479  0.00  0.00    +0.157 HD
ATOM     14  C   LIG    1      -35.921  75.032  27.819  0.00  0.00    +0.251 C 
ATOM     15  O   LIG    1      -36.119  75.441  28.939  0.00  0.00    -0.270 OA
BRANCH  14  16
ATOM     16  C   LIG    1      -37.020  75.066  26.801  0.00  0.00    +0.056 A 
ATOM     17  C   LIG    1      -37.682  73.950  26.295  0.00  0.00    +0.053 A 
ATOM     18 CL   LIG    1      -37.368  72.345  26.843  0.00  0.00    -0.083 Cl
ATOM     19  C   LIG    1      -38.700  74.116  25.343  0.00  0.00    +0.021 A 
ATOM     20  C   LIG    1      -39.101  75.396  24.938  0.00  0.00    +0.011 A 
ATOM     21  C   LIG    1      -38.516  76.550  25.477  0.00  0.00    +0.004 A 
ATOM     22  C   LIG    1      -37.448  76.352  26.384  0.00  0.00    +0.024 A 
BRANCH  21  23
ATOM     23  C   LIG    1      -39.004  77.916  25.143  0.00  0.00    +0.106 A 
ATOM     24  C   LIG    1      -39.580  78.256  23.912  0.00  0.00    +0.149 A 
ATOM     25  F   LIG    1      -39.741  77.354  22.933  0.00  0.00    -0.203 F 
ATOM     26  C   LIG    1      -40.021  79.555  23.679  0.00  0.00    +0.042 A 
ATOM     27  C   LIG    1      -39.886  80.504  24.683  0.00  0.00    +0.023 A 
ATOM     28  C   LIG    1      -39.317  80.103  25.881  0.00  0.00    +0.111 A 
ATOM     29  N   LIG    1      -38.881  78.842  26.134  0.00  0.00    -0.252 NA
ENDBRANCH  21  23
ENDBRANCH  14  16
ENDBRANCH   4  12
BRANCH   1  30
ATOM     30  C   LIG    1      -31.010  73.589  30.780  0.00  0.00    +0.236 C 
ATOM     31  N   LIG    1      -30.182  72.656  30.486  0.00  0.00    -0.248 NA
BRANCH  30  32
ATOM     32  O   LIG    1      -31.224  74.041  32.040  0.00  0.00    -0.491 OA
ATOM     33  H   LIG    1      -32.175  74.245  32.142  0.00  0.00    +0.294 HD
ENDBRANCH  30  32
BRANCH  31  34
ATOM     34  C   LIG    1      -29.459  72.063  31.617  0.00  0.00    +0.162 C 
BRANCH  34  35
ATOM     35  C   LIG    1      -28.151  71.492  31.119  0.00  0.00    +0.052 C 
ATOM     36  C   LIG    1      -26.926  72.207  31.495  0.00  0.00    +0.028 C 
ATOM     37  C   LIG    1      -25.730  71.736  31.112  0.00  0.00    +0.184 C 
ATOM     38  N   LIG    1      -25.624  70.591  30.369  0.00  0.00    -0.210 N 
ATOM     39  H   LIG    1      -24.717  70.252  30.084  0.00  0.00    +0.298 HD
ATOM     40  C   LIG    1      -26.723  69.877  29.971  0.00  0.00    +0.295 C 
ATOM     41  C   LIG    1      -28.083  70.365  30.376  0.00  0.00    +0.083 C 
BRANCH  40  42
ATOM     42  N   LIG    1      -26.565  68.802  29.264  0.00  0.00    -0.071 NA
ATOM     43  H   LIG    1      -25.632  68.409  29.413  0.00  0.00    +0.348 HD
ENDBRANCH  40  42
ENDBRANCH  34  35
ENDBRANCH  31  34
ENDBRANCH   1  30
TORSDOF 9
ENDMDL
MODEL 9
REMARK VINA RESULT:      -6.6      5.275     11.583
REMARK  Name = pdb/CHEMBL3975036.pdb
REMARK                            x       y       z     vdW  Elec       q    Type
REMARK                         _______ _______ _______ _____ _____    ______ ____
ROOT
ATOM      1  C   LIG    1      -37.502  79.618  27.248  0.00  0.00    +0.149 A 
ATOM      2  N   LIG    1      -36.441  78.916  27.684  0.00  0.00    -0.160 NA
ATOM      3  N   LIG    1      -36.721  77.620  27.367  0.00  0.00    -0.218 N 
ATOM      4  C   LIG    1      -37.969  77.488  26.740  0.00  0.00    +0.129 A 
ATOM      5  C   LIG    1      -38.507  78.758  26.744  0.00  0.00    +0.078 A 
ENDROOT
BRANCH   3   6
ATOM      6  C   LIG    1      -35.735  76.623  27.611  0.00  0.00    +0.067 A 
ATOM      7  C   LIG    1      -34.381  76.908  27.364  0.00  0.00    +0.028 A 
ATOM      8  C   LIG    1      -33.411  75.919  27.555  0.00  0.00    +0.002 A 
ATOM      9  C   LIG    1      -33.786  74.647  27.983  0.00  0.00    +0.000 A 
ATOM     10  C   LIG    1      -35.127  74.365  28.238  0.00  0.00    +0.002 A 
ATOM     11  C   LIG    1      -36.101  75.346  28.051  0.00  0.00    +0.028 A 
ENDBRANCH   3   6
BRANCH   4  12
ATOM     12  N   LIG    1      -38.582  76.301  26.275  0.00  0.00    -0.266 N 
ATOM     13  H   LIG    1      -39.226  75.828  26.893  0.00  0.00    +0.157 HD
ATOM     14  C   LIG    1      -38.274  75.699  24.996  0.00  0.00    +0.251 C 
ATOM     15  O   LIG    1      -37.474  76.228  24.261  0.00  0.00    -0.270 OA
BRANCH  14  16
ATOM     16  C   LIG    1      -38.854  74.364  24.641  0.00  0.00    +0.056 A 
ATOM     17  C   LIG    1      -40.104  74.159  24.064  0.00  0.00    +0.053 A 
ATOM     18 CL   LIG    1      -41.146  75.452  23.599  0.00  0.00    -0.083 Cl
ATOM     19  C   LIG    1      -40.533  72.854  23.775  0.00  0.00    +0.021 A 
ATOM     20  C   LIG    1      -39.694  71.756  24.007  0.00  0.00    +0.011 A 
ATOM     21  C   LIG    1      -38.398  71.921  24.515  0.00  0.00    +0.004 A 
ATOM     22  C   LIG    1      -38.017  73.240  24.858  0.00  0.00    +0.024 A 
BRANCH  21  23
ATOM     23  C   LIG    1      -37.453  70.780  24.663  0.00  0.00    +0.106 A 
ATOM     24  C   LIG    1      -36.485  70.698  25.672  0.00  0.00    +0.149 A 
ATOM     25  F   LIG    1      -36.346  71.658  26.598  0.00  0.00    -0.203 F 
ATOM     26  C   LIG    1      -35.644  69.592  25.749  0.00  0.00    +0.042 A 
ATOM     27  C   LIG    1      -35.782  68.574  24.817  0.00  0.00    +0.023 A 
ATOM     28  C   LIG    1      -36.765  68.709  23.849  0.00  0.00    +0.111 A 
ATOM     29  N   LIG    1      -37.598  69.776  23.753  0.00  0.00    -0.252 NA
ENDBRANCH  21  23
ENDBRANCH  14  16
ENDBRANCH   4  12
BRANCH   1  30
ATOM     30  C   LIG    1      -37.490  81.081  27.309  0.00  0.00    +0.236 C 
ATOM     31  N   LIG    1      -38.468  81.774  26.853  0.00  0.00    -0.248 NA
BRANCH  30  32
ATOM     32  O   LIG    1      -36.363  81.618  27.835  0.00  0.00    -0.491 OA
ATOM     33  H   LIG    1      -35.764  80.892  28.099  0.00  0.00    +0.294 HD
ENDBRANCH  30  32
BRANCH  31  34
ATOM     34  C   LIG    1      -38.302  83.231  26.913  0.00  0.00    +0.162 C 
BRANCH  34  35
ATOM     35  C   LIG    1      -38.376  83.793  25.512  0.00  0.00    +0.052 C 
ATOM     36  C   LIG    1      -37.823  85.135  25.303  0.00  0.00    +0.028 C 
ATOM     37  C   LIG    1      -37.829  85.680  24.077  0.00  0.00    +0.184 C 
ATOM     38  N   LIG    1      -38.346  85.003  23.004  0.00  0.00    -0.210 N 
ATOM     39  H   LIG    1      -38.347  85.428  22.088  0.00  0.00    +0.298 HD
ATOM     40  C   LIG    1      -38.888  83.751  23.125  0.00  0.00    +0.295 C 
ATOM     41  C   LIG    1      -38.904  83.102  24.477  0.00  0.00    +0.083 C 
BRANCH  40  42
ATOM     42  N   LIG    1      -39.368  83.159  22.076  0.00  0.00    -0.071 NA
ATOM     43  H   LIG    1      -40.271  82.728  22.289  0.00  0.00    +0.348 HD
ENDBRANCH  40  42
ENDBRANCH  34  35
ENDBRANCH  31  34
ENDBRANCH   1  30
TORSDOF 9
ENDMDL
