MODEL 1
REMARK VINA RESULT:      -6.9      0.000      0.000
REMARK  Name = pdb/CHEMBL1980995.pdb
REMARK                            x       y       z     vdW  Elec       q    Type
REMARK                         _______ _______ _______ _____ _____    ______ ____
ROOT
ATOM      1  C   LIG    1      -19.343  77.460  35.298  0.00  0.00    +0.091 C 
ATOM      2  C   LIG    1      -19.660  78.630  36.269  0.00  0.00    +0.187 C 
ATOM      3  C   LIG    1      -20.645  79.682  35.635  0.00  0.00    +0.174 C 
ATOM      4  N   LIG    1      -22.035  79.222  35.598  0.00  0.00    -0.307 N 
ATOM      5  C   LIG    1      -22.789  78.733  34.570  0.00  0.00    +0.077 A 
ATOM      6  C   LIG    1      -22.346  78.374  33.301  0.00  0.00    +0.077 A 
ATOM      7  N   LIG    1      -21.079  78.490  32.838  0.00  0.00    -0.311 N 
ATOM      8  C   LIG    1      -21.182  77.847  31.589  0.00  0.00    +0.052 A 
ATOM      9  C   LIG    1      -20.168  77.620  30.636  0.00  0.00    +0.026 A 
ATOM     10  C   LIG    1      -20.467  76.914  29.470  0.00  0.00    +0.002 A 
ATOM     11  C   LIG    1      -21.750  76.445  29.235  0.00  0.00    +0.001 A 
ATOM     12  C   LIG    1      -22.775  76.676  30.159  0.00  0.00    +0.010 A 
ATOM     13  C   LIG    1      -22.530  77.383  31.358  0.00  0.00    +0.008 A 
ATOM     14  C   LIG    1      -19.896  79.075  33.415  0.00  0.00    +0.224 C 
ATOM     15  C   LIG    1      -23.309  77.762  32.481  0.00  0.00    +0.022 A 
ATOM     16  C   LIG    1      -24.675  77.483  32.695  0.00  0.00    +0.052 A 
ATOM     17  C   LIG    1      -25.755  76.872  31.988  0.00  0.00    +0.245 C 
ATOM     18  O   LIG    1      -25.882  76.363  30.881  0.00  0.00    -0.270 OA
ATOM     19  N   LIG    1      -26.821  76.946  32.884  0.00  0.00    -0.307 N 
ATOM     20  H   LIG    1      -27.720  76.573  32.615  0.00  0.00    +0.149 HD
ATOM     21  C   LIG    1      -26.540  77.570  34.166  0.00  0.00    +0.141 C 
ATOM     22  C   LIG    1      -25.132  77.893  33.964  0.00  0.00    -0.008 A 
ATOM     23  C   LIG    1      -24.146  78.466  34.788  0.00  0.00    +0.015 A 
ATOM     24  C   LIG    1      -24.306  78.826  36.142  0.00  0.00    +0.008 A 
ATOM     25  C   LIG    1      -25.402  78.845  37.038  0.00  0.00    +0.010 A 
ATOM     26  C   LIG    1      -25.233  79.203  38.375  0.00  0.00    +0.001 A 
ATOM     27  C   LIG    1      -23.974  79.517  38.858  0.00  0.00    +0.002 A 
ATOM     28  C   LIG    1      -22.858  79.512  38.016  0.00  0.00    +0.026 A 
ATOM     29  C   LIG    1      -23.003  79.213  36.643  0.00  0.00    +0.053 A 
ATOM     30  C   LIG    1      -20.541  81.029  36.400  0.00  0.00    +0.069 C 
ATOM     31  O   LIG    1      -20.249  80.103  34.318  0.00  0.00    -0.328 OA
ATOM     32  C   LIG    1      -18.892  78.071  33.969  0.00  0.00    +0.076 C 
ENDROOT
BRANCH   1  34
ATOM     33  C   LIG    1      -20.038  75.354  34.240  0.00  0.00    +0.101 C 
ATOM     34  N   LIG    1      -20.417  76.487  35.067  0.00  0.00    -0.314 NA
ATOM     35  H   LIG    1      -21.236  76.944  34.660  0.00  0.00    +0.122 HD
ENDBRANCH   1  34
BRANCH   2  36
ATOM     36  O   LIG    1      -18.430  79.315  36.636  0.00  0.00    -0.373 OA
ATOM     37  C   LIG    1      -17.546  78.570  37.462  0.00  0.00    +0.194 C 
ENDBRANCH   2  36
TORSDOF 2
ENDMDL
MODEL 2
REMARK VINA RESULT:      -6.7     18.532     21.649
REMARK  Name = pdb/CHEMBL1980995.pdb
REMARK                            x       y       z     vdW  Elec       q    Type
REMARK                         _______ _______ _______ _____ _____    ______ ____
ROOT
ATOM      1  C   LIG    1      -39.650  77.691  26.747  0.00  0.00    +0.091 C 
ATOM      2  C   LIG    1      -39.899  78.973  25.907  0.00  0.00    +0.187 C 
ATOM      3  C   LIG    1      -39.920  78.680  24.361  0.00  0.00    +0.174 C 
ATOM      4  N   LIG    1      -41.158  78.040  23.911  0.00  0.00    -0.307 N 
ATOM      5  C   LIG    1      -41.430  76.740  23.593  0.00  0.00    +0.077 A 
ATOM      6  C   LIG    1      -40.609  75.637  23.798  0.00  0.00    +0.077 A 
ATOM      7  N   LIG    1      -39.357  75.661  24.315  0.00  0.00    -0.311 N 
ATOM      8  C   LIG    1      -39.081  74.284  24.432  0.00  0.00    +0.052 A 
ATOM      9  C   LIG    1      -37.921  73.666  24.944  0.00  0.00    +0.026 A 
ATOM     10  C   LIG    1      -37.862  72.274  25.019  0.00  0.00    +0.002 A 
ATOM     11  C   LIG    1      -38.924  71.495  24.587  0.00  0.00    +0.001 A 
ATOM     12  C   LIG    1      -40.075  72.088  24.058  0.00  0.00    +0.010 A 
ATOM     13  C   LIG    1      -40.193  73.493  23.960  0.00  0.00    +0.008 A 
ATOM     14  C   LIG    1      -38.494  76.752  24.688  0.00  0.00    +0.224 C 
ATOM     15  C   LIG    1      -41.193  74.392  23.509  0.00  0.00    +0.022 A 
ATOM     16  C   LIG    1      -42.464  74.054  22.997  0.00  0.00    +0.052 A 
ATOM     17  C   LIG    1      -43.194  72.871  22.669  0.00  0.00    +0.245 C 
ATOM     18  O   LIG    1      -42.951  71.671  22.706  0.00  0.00    -0.270 OA
ATOM     19  N   LIG    1      -44.427  73.355  22.232  0.00  0.00    -0.307 N 
ATOM     20  H   LIG    1      -45.137  72.701  21.937  0.00  0.00    +0.149 HD
ATOM     21  C   LIG    1      -44.591  74.799  22.240  0.00  0.00    +0.141 C 
ATOM     22  C   LIG    1      -43.276  75.179  22.745  0.00  0.00    -0.008 A 
ATOM     23  C   LIG    1      -42.690  76.414  23.078  0.00  0.00    +0.015 A 
ATOM     24  C   LIG    1      -43.336  77.667  23.057  0.00  0.00    +0.008 A 
ATOM     25  C   LIG    1      -44.615  78.116  22.645  0.00  0.00    +0.010 A 
ATOM     26  C   LIG    1      -44.998  79.446  22.810  0.00  0.00    +0.001 A 
ATOM     27  C   LIG    1      -44.140  80.350  23.413  0.00  0.00    +0.002 A 
ATOM     28  C   LIG    1      -42.868  79.958  23.840  0.00  0.00    +0.026 A 
ATOM     29  C   LIG    1      -42.423  78.634  23.633  0.00  0.00    +0.053 A 
ATOM     30  C   LIG    1      -39.673  79.993  23.572  0.00  0.00    +0.069 C 
ATOM     31  O   LIG    1      -38.796  77.899  23.920  0.00  0.00    -0.328 OA
ATOM     32  C   LIG    1      -38.399  77.007  26.188  0.00  0.00    +0.076 C 
ENDROOT
BRANCH   1  34
ATOM     33  C   LIG    1      -40.508  75.595  27.699  0.00  0.00    +0.101 C 
ATOM     34  N   LIG    1      -40.756  76.731  26.827  0.00  0.00    -0.314 NA
ATOM     35  H   LIG    1      -41.009  76.394  25.896  0.00  0.00    +0.122 HD
ENDBRANCH   1  34
BRANCH   2  36
ATOM     36  O   LIG    1      -38.856  79.951  26.175  0.00  0.00    -0.373 OA
ATOM     37  C   LIG    1      -38.891  80.534  27.471  0.00  0.00    +0.194 C 
ENDBRANCH   2  36
TORSDOF 2
ENDMDL
MODEL 3
REMARK VINA RESULT:      -6.7     18.361     22.904
REMARK  Name = pdb/CHEMBL1980995.pdb
REMARK                            x       y       z     vdW  Elec       q    Type
REMARK                         _______ _______ _______ _____ _____    ______ ____
ROOT
ATOM      1  C   LIG    1      -44.043  72.415  24.454  0.00  0.00    +0.091 C 
ATOM      2  C   LIG    1      -43.190  71.271  23.842  0.00  0.00    +0.187 C 
ATOM      3  C   LIG    1      -42.102  71.808  22.839  0.00  0.00    +0.174 C 
ATOM      4  N   LIG    1      -40.954  72.424  23.509  0.00  0.00    -0.307 N 
ATOM      5  C   LIG    1      -40.623  73.735  23.694  0.00  0.00    +0.077 A 
ATOM      6  C   LIG    1      -41.418  74.846  23.436  0.00  0.00    +0.077 A 
ATOM      7  N   LIG    1      -42.664  74.828  22.904  0.00  0.00    -0.311 N 
ATOM      8  C   LIG    1      -43.032  76.183  23.015  0.00  0.00    +0.052 A 
ATOM      9  C   LIG    1      -44.251  76.791  22.650  0.00  0.00    +0.026 A 
ATOM     10  C   LIG    1      -44.437  78.152  22.888  0.00  0.00    +0.002 A 
ATOM     11  C   LIG    1      -43.435  78.914  23.467  0.00  0.00    +0.001 A 
ATOM     12  C   LIG    1      -42.211  78.335  23.819  0.00  0.00    +0.010 A 
ATOM     13  C   LIG    1      -41.966  76.959  23.605  0.00  0.00    +0.008 A 
ATOM     14  C   LIG    1      -43.464  73.754  22.373  0.00  0.00    +0.224 C 
ATOM     15  C   LIG    1      -40.885  76.077  23.853  0.00  0.00    +0.022 A 
ATOM     16  C   LIG    1      -39.649  76.403  24.453  0.00  0.00    +0.052 A 
ATOM     17  C   LIG    1      -38.981  77.569  24.937  0.00  0.00    +0.245 C 
ATOM     18  O   LIG    1      -39.256  78.761  24.986  0.00  0.00    -0.270 OA
ATOM     19  N   LIG    1      -37.772  77.076  25.427  0.00  0.00    -0.307 N 
ATOM     20  H   LIG    1      -37.105  77.718  25.832  0.00  0.00    +0.149 HD
ATOM     21  C   LIG    1      -37.567  75.642  25.312  0.00  0.00    +0.141 C 
ATOM     22  C   LIG    1      -38.826  75.279  24.669  0.00  0.00    -0.008 A 
ATOM     23  C   LIG    1      -39.392  74.051  24.282  0.00  0.00    +0.015 A 
ATOM     24  C   LIG    1      -38.840  72.775  24.519  0.00  0.00    +0.008 A 
ATOM     25  C   LIG    1      -37.619  72.310  25.065  0.00  0.00    +0.010 A 
ATOM     26  C   LIG    1      -37.378  70.947  25.231  0.00  0.00    +0.001 A 
ATOM     27  C   LIG    1      -38.350  70.021  24.894  0.00  0.00    +0.002 A 
ATOM     28  C   LIG    1      -39.573  70.426  24.353  0.00  0.00    +0.026 A 
ATOM     29  C   LIG    1      -39.827  71.795  24.113  0.00  0.00    +0.053 A 
ATOM     30  C   LIG    1      -41.632  70.661  21.906  0.00  0.00    +0.069 C 
ATOM     31  O   LIG    1      -42.634  72.727  21.869  0.00  0.00    -0.328 OA
ATOM     32  C   LIG    1      -44.574  73.267  23.298  0.00  0.00    +0.076 C 
ENDROOT
BRANCH   1  34
ATOM     33  C   LIG    1      -42.805  72.553  26.572  0.00  0.00    +0.101 C 
ATOM     34  N   LIG    1      -43.383  73.270  25.448  0.00  0.00    -0.314 NA
ATOM     35  H   LIG    1      -44.028  73.982  25.796  0.00  0.00    +0.122 HD
ENDBRANCH   1  34
BRANCH   2  36
ATOM     36  O   LIG    1      -44.050  70.339  23.130  0.00  0.00    -0.373 OA
ATOM     37  C   LIG    1      -44.906  69.557  23.952  0.00  0.00    +0.194 C 
ENDBRANCH   2  36
TORSDOF 2
ENDMDL
MODEL 4
REMARK VINA RESULT:      -6.5     18.216     21.400
REMARK  Name = pdb/CHEMBL1980995.pdb
REMARK                            x       y       z     vdW  Elec       q    Type
REMARK                         _______ _______ _______ _____ _____    ______ ____
ROOT
ATOM      1  C   LIG    1      -39.397  76.297  26.978  0.00  0.00    +0.091 C 
ATOM      2  C   LIG    1      -39.613  77.594  26.150  0.00  0.00    +0.187 C 
ATOM      3  C   LIG    1      -39.539  77.333  24.600  0.00  0.00    +0.174 C 
ATOM      4  N   LIG    1      -40.741  76.687  24.066  0.00  0.00    -0.307 N 
ATOM      5  C   LIG    1      -40.976  75.391  23.706  0.00  0.00    +0.077 A 
ATOM      6  C   LIG    1      -40.154  74.294  23.936  0.00  0.00    +0.077 A 
ATOM      7  N   LIG    1      -38.936  74.321  24.527  0.00  0.00    -0.311 N 
ATOM      8  C   LIG    1      -38.649  72.946  24.632  0.00  0.00    +0.052 A 
ATOM      9  C   LIG    1      -37.514  72.331  25.199  0.00  0.00    +0.026 A 
ATOM     10  C   LIG    1      -37.441  70.939  25.250  0.00  0.00    +0.002 A 
ATOM     11  C   LIG    1      -38.465  70.157  24.740  0.00  0.00    +0.001 A 
ATOM     12  C   LIG    1      -39.591  70.747  24.157  0.00  0.00    +0.010 A 
ATOM     13  C   LIG    1      -39.721  72.153  24.080  0.00  0.00    +0.008 A 
ATOM     14  C   LIG    1      -38.110  75.415  24.972  0.00  0.00    +0.224 C 
ATOM     15  C   LIG    1      -40.704  73.048  23.589  0.00  0.00    +0.022 A 
ATOM     16  C   LIG    1      -41.938  72.707  22.996  0.00  0.00    +0.052 A 
ATOM     17  C   LIG    1      -42.633  71.522  22.603  0.00  0.00    +0.245 C 
ATOM     18  O   LIG    1      -42.377  70.325  22.629  0.00  0.00    -0.270 OA
ATOM     19  N   LIG    1      -43.844  72.000  22.103  0.00  0.00    -0.307 N 
ATOM     20  H   LIG    1      -44.528  71.344  21.753  0.00  0.00    +0.149 HD
ATOM     21  C   LIG    1      -44.027  73.442  22.131  0.00  0.00    +0.141 C 
ATOM     22  C   LIG    1      -42.749  73.827  22.720  0.00  0.00    -0.008 A 
ATOM     23  C   LIG    1      -42.200  75.062  23.111  0.00  0.00    +0.015 A 
ATOM     24  C   LIG    1      -42.860  76.307  23.077  0.00  0.00    +0.008 A 
ATOM     25  C   LIG    1      -44.117  76.749  22.600  0.00  0.00    +0.010 A 
ATOM     26  C   LIG    1      -44.528  78.071  22.768  0.00  0.00    +0.001 A 
ATOM     27  C   LIG    1      -43.718  78.972  23.439  0.00  0.00    +0.002 A 
ATOM     28  C   LIG    1      -42.468  78.587  23.932  0.00  0.00    +0.026 A 
ATOM     29  C   LIG    1      -41.995  77.272  23.725  0.00  0.00    +0.053 A 
ATOM     30  C   LIG    1      -39.263  78.664  23.853  0.00  0.00    +0.069 C 
ATOM     31  O   LIG    1      -38.381  76.574  24.211  0.00  0.00    -0.328 OA
ATOM     32  C   LIG    1      -38.107  75.640  26.479  0.00  0.00    +0.076 C 
ENDROOT
BRANCH   1  34
ATOM     33  C   LIG    1      -40.286  74.177  27.842  0.00  0.00    +0.101 C 
ATOM     34  N   LIG    1      -40.494  75.323  26.973  0.00  0.00    -0.314 NA
ATOM     35  H   LIG    1      -40.683  74.998  26.023  0.00  0.00    +0.122 HD
ENDBRANCH   1  34
BRANCH   2  36
ATOM     36  O   LIG    1      -38.601  78.578  26.499  0.00  0.00    -0.373 OA
ATOM     37  C   LIG    1      -38.742  79.162  27.787  0.00  0.00    +0.194 C 
ENDBRANCH   2  36
TORSDOF 2
ENDMDL
MODEL 5
REMARK VINA RESULT:      -6.5     18.381     23.319
REMARK  Name = pdb/CHEMBL1980995.pdb
REMARK                            x       y       z     vdW  Elec       q    Type
REMARK                         _______ _______ _______ _____ _____    ______ ____
ROOT
ATOM      1  C   LIG    1      -45.029  75.286  24.354  0.00  0.00    +0.091 C 
ATOM      2  C   LIG    1      -45.032  74.120  23.328  0.00  0.00    +0.187 C 
ATOM      3  C   LIG    1      -43.813  74.195  22.336  0.00  0.00    +0.174 C 
ATOM      4  N   LIG    1      -42.548  73.774  22.943  0.00  0.00    -0.307 N 
ATOM      5  C   LIG    1      -41.492  74.503  23.409  0.00  0.00    +0.077 A 
ATOM      6  C   LIG    1      -41.438  75.881  23.590  0.00  0.00    +0.077 A 
ATOM      7  N   LIG    1      -42.420  76.762  23.288  0.00  0.00    -0.311 N 
ATOM      8  C   LIG    1      -41.889  77.957  23.812  0.00  0.00    +0.052 A 
ATOM      9  C   LIG    1      -42.474  79.241  23.829  0.00  0.00    +0.026 A 
ATOM     10  C   LIG    1      -41.799  80.294  24.445  0.00  0.00    +0.002 A 
ATOM     11  C   LIG    1      -40.558  80.096  25.029  0.00  0.00    +0.001 A 
ATOM     12  C   LIG    1      -39.952  78.835  25.006  0.00  0.00    +0.010 A 
ATOM     13  C   LIG    1      -40.590  77.729  24.399  0.00  0.00    +0.008 A 
ATOM     14  C   LIG    1      -43.693  76.594  22.634  0.00  0.00    +0.224 C 
ATOM     15  C   LIG    1      -40.277  76.358  24.222  0.00  0.00    +0.022 A 
ATOM     16  C   LIG    1      -39.118  75.690  24.671  0.00  0.00    +0.052 A 
ATOM     17  C   LIG    1      -37.893  76.020  25.327  0.00  0.00    +0.245 C 
ATOM     18  O   LIG    1      -37.386  77.058  25.734  0.00  0.00    -0.270 OA
ATOM     19  N   LIG    1      -37.249  74.790  25.461  0.00  0.00    -0.307 N 
ATOM     20  H   LIG    1      -36.342  74.753  25.904  0.00  0.00    +0.149 HD
ATOM     21  C   LIG    1      -37.957  73.633  24.939  0.00  0.00    +0.141 C 
ATOM     22  C   LIG    1      -39.157  74.300  24.443  0.00  0.00    -0.008 A 
ATOM     23  C   LIG    1      -40.343  73.834  23.846  0.00  0.00    +0.015 A 
ATOM     24  C   LIG    1      -40.689  72.482  23.642  0.00  0.00    +0.008 A 
ATOM     25  C   LIG    1      -40.021  71.249  23.834  0.00  0.00    +0.010 A 
ATOM     26  C   LIG    1      -40.666  70.036  23.593  0.00  0.00    +0.001 A 
ATOM     27  C   LIG    1      -41.990  70.018  23.190  0.00  0.00    +0.002 A 
ATOM     28  C   LIG    1      -42.696  71.208  22.987  0.00  0.00    +0.026 A 
ATOM     29  C   LIG    1      -42.056  72.455  23.163  0.00  0.00    +0.053 A 
ATOM     30  C   LIG    1      -44.112  73.351  21.068  0.00  0.00    +0.069 C 
ATOM     31  O   LIG    1      -43.645  75.496  21.745  0.00  0.00    -0.328 OA
ATOM     32  C   LIG    1      -44.897  76.593  23.569  0.00  0.00    +0.076 C 
ENDROOT
BRANCH   1  34
ATOM     33  C   LIG    1      -44.022  74.001  26.189  0.00  0.00    +0.101 C 
ATOM     34  N   LIG    1      -44.016  75.229  25.413  0.00  0.00    -0.314 NA
ATOM     35  H   LIG    1      -44.107  76.028  26.044  0.00  0.00    +0.122 HD
ENDBRANCH   1  34
BRANCH   2  36
ATOM     36  O   LIG    1      -46.261  74.149  22.550  0.00  0.00    -0.373 OA
ATOM     37  C   LIG    1      -47.437  73.789  23.261  0.00  0.00    +0.194 C 
ENDBRANCH   2  36
TORSDOF 2
ENDMDL
MODEL 6
REMARK VINA RESULT:      -6.4     18.606     22.097
REMARK  Name = pdb/CHEMBL1980995.pdb
REMARK                            x       y       z     vdW  Elec       q    Type
REMARK                         _______ _______ _______ _____ _____    ______ ____
ROOT
ATOM      1  C   LIG    1      -23.617  76.882  13.904  0.00  0.00    +0.091 C 
ATOM      2  C   LIG    1      -25.027  76.293  13.622  0.00  0.00    +0.187 C 
ATOM      3  C   LIG    1      -26.174  77.338  13.884  0.00  0.00    +0.174 C 
ATOM      4  N   LIG    1      -26.289  78.347  12.829  0.00  0.00    -0.307 N 
ATOM      5  C   LIG    1      -25.879  79.649  12.786  0.00  0.00    +0.077 A 
ATOM      6  C   LIG    1      -25.065  80.303  13.705  0.00  0.00    +0.077 A 
ATOM      7  N   LIG    1      -24.563  79.770  14.844  0.00  0.00    -0.311 N 
ATOM      8  C   LIG    1      -23.710  80.804  15.280  0.00  0.00    +0.052 A 
ATOM      9  C   LIG    1      -22.875  80.829  16.416  0.00  0.00    +0.026 A 
ATOM     10  C   LIG    1      -22.064  81.939  16.647  0.00  0.00    +0.002 A 
ATOM     11  C   LIG    1      -22.078  83.021  15.780  0.00  0.00    +0.001 A 
ATOM     12  C   LIG    1      -22.914  83.024  14.658  0.00  0.00    +0.010 A 
ATOM     13  C   LIG    1      -23.755  81.926  14.371  0.00  0.00    +0.008 A 
ATOM     14  C   LIG    1      -24.777  78.498  15.485  0.00  0.00    +0.224 C 
ATOM     15  C   LIG    1      -24.679  81.605  13.345  0.00  0.00    +0.022 A 
ATOM     16  C   LIG    1      -25.010  82.400  12.227  0.00  0.00    +0.052 A 
ATOM     17  C   LIG    1      -24.699  83.699  11.721  0.00  0.00    +0.245 C 
ATOM     18  O   LIG    1      -24.012  84.634  12.113  0.00  0.00    -0.270 OA
ATOM     19  N   LIG    1      -25.404  83.763  10.520  0.00  0.00    -0.307 N 
ATOM     20  H   LIG    1      -25.348  84.601   9.958  0.00  0.00    +0.149 HD
ATOM     21  C   LIG    1      -26.180  82.586  10.166  0.00  0.00    +0.141 C 
ATOM     22  C   LIG    1      -25.875  81.751  11.322  0.00  0.00    -0.008 A 
ATOM     23  C   LIG    1      -26.218  80.433  11.678  0.00  0.00    +0.015 A 
ATOM     24  C   LIG    1      -26.947  79.526  10.882  0.00  0.00    +0.008 A 
ATOM     25  C   LIG    1      -27.614  79.615   9.637  0.00  0.00    +0.010 A 
ATOM     26  C   LIG    1      -28.211  78.495   9.058  0.00  0.00    +0.001 A 
ATOM     27  C   LIG    1      -28.131  77.262   9.682  0.00  0.00    +0.002 A 
ATOM     28  C   LIG    1      -27.483  77.119  10.912  0.00  0.00    +0.026 A 
ATOM     29  C   LIG    1      -26.920  78.243  11.556  0.00  0.00    +0.053 A 
ATOM     30  C   LIG    1      -27.526  76.600  14.076  0.00  0.00    +0.069 C 
ATOM     31  O   LIG    1      -26.057  77.995  15.158  0.00  0.00    -0.328 OA
ATOM     32  C   LIG    1      -23.644  77.494  15.307  0.00  0.00    +0.076 C 
ENDROOT
BRANCH   1  34
ATOM     33  C   LIG    1      -21.751  78.315  13.198  0.00  0.00    +0.101 C 
ATOM     34  N   LIG    1      -23.106  77.859  12.937  0.00  0.00    -0.314 NA
ATOM     35  H   LIG    1      -23.730  78.666  12.876  0.00  0.00    +0.122 HD
ENDBRANCH   1  34
BRANCH   2  36
ATOM     36  O   LIG    1      -25.258  75.134  14.469  0.00  0.00    -0.373 OA
ATOM     37  C   LIG    1      -24.521  73.970  14.118  0.00  0.00    +0.194 C 
ENDBRANCH   2  36
TORSDOF 2
ENDMDL
MODEL 7
REMARK VINA RESULT:      -6.2     19.386     23.265
REMARK  Name = pdb/CHEMBL1980995.pdb
REMARK                            x       y       z     vdW  Elec       q    Type
REMARK                         _______ _______ _______ _____ _____    ______ ____
ROOT
ATOM      1  C   LIG    1      -26.101  82.797  11.101  0.00  0.00    +0.091 C 
ATOM      2  C   LIG    1      -25.271  81.557  11.530  0.00  0.00    +0.187 C 
ATOM      3  C   LIG    1      -23.732  81.871  11.626  0.00  0.00    +0.174 C 
ATOM      4  N   LIG    1      -23.372  82.634  12.823  0.00  0.00    -0.307 N 
ATOM      5  C   LIG    1      -23.082  83.958  12.988  0.00  0.00    +0.077 A 
ATOM      6  C   LIG    1      -23.237  84.974  12.051  0.00  0.00    +0.077 A 
ATOM      7  N   LIG    1      -23.668  84.822  10.776  0.00  0.00    -0.311 N 
ATOM      8  C   LIG    1      -23.775  86.164  10.359  0.00  0.00    +0.052 A 
ATOM      9  C   LIG    1      -24.211  86.660   9.113  0.00  0.00    +0.026 A 
ATOM     10  C   LIG    1      -24.292  88.038   8.914  0.00  0.00    +0.002 A 
ATOM     11  C   LIG    1      -23.938  88.922   9.922  0.00  0.00    +0.001 A 
ATOM     12  C   LIG    1      -23.485  88.450  11.158  0.00  0.00    +0.010 A 
ATOM     13  C   LIG    1      -23.385  87.064  11.419  0.00  0.00    +0.008 A 
ATOM     14  C   LIG    1      -23.974  83.648  10.000  0.00  0.00    +0.224 C 
ATOM     15  C   LIG    1      -22.998  86.273  12.529  0.00  0.00    +0.022 A 
ATOM     16  C   LIG    1      -22.576  86.739  13.792  0.00  0.00    +0.052 A 
ATOM     17  C   LIG    1      -22.307  87.991  14.425  0.00  0.00    +0.245 C 
ATOM     18  O   LIG    1      -22.334  89.161  14.064  0.00  0.00    -0.270 OA
ATOM     19  N   LIG    1      -21.951  87.635  15.725  0.00  0.00    -0.307 N 
ATOM     20  H   LIG    1      -21.709  88.359  16.387  0.00  0.00    +0.149 HD
ATOM     21  C   LIG    1      -21.961  86.214  16.028  0.00  0.00    +0.141 C 
ATOM     22  C   LIG    1      -22.372  85.701  14.725  0.00  0.00    -0.008 A 
ATOM     23  C   LIG    1      -22.656  84.411  14.242  0.00  0.00    +0.015 A 
ATOM     24  C   LIG    1      -22.670  83.226  15.007  0.00  0.00    +0.008 A 
ATOM     25  C   LIG    1      -22.344  82.910  16.347  0.00  0.00    +0.010 A 
ATOM     26  C   LIG    1      -22.525  81.620  16.847  0.00  0.00    +0.001 A 
ATOM     27  C   LIG    1      -23.063  80.630  16.043  0.00  0.00    +0.002 A 
ATOM     28  C   LIG    1      -23.404  80.891  14.712  0.00  0.00    +0.026 A 
ATOM     29  C   LIG    1      -23.177  82.169  14.156  0.00  0.00    +0.053 A 
ATOM     30  C   LIG    1      -22.919  80.551  11.561  0.00  0.00    +0.069 C 
ATOM     31  O   LIG    1      -23.220  82.545  10.463  0.00  0.00    -0.328 OA
ATOM     32  C   LIG    1      -25.462  83.364   9.830  0.00  0.00    +0.076 C 
ENDROOT
BRANCH   1  34
ATOM     33  C   LIG    1      -27.142  84.942  11.694  0.00  0.00    +0.101 C 
ATOM     34  N   LIG    1      -26.263  83.859  12.101  0.00  0.00    -0.314 NA
ATOM     35  H   LIG    1      -25.354  84.243  12.369  0.00  0.00    +0.122 HD
ENDBRANCH   1  34
BRANCH   2  36
ATOM     36  O   LIG    1      -25.461  80.479  10.572  0.00  0.00    -0.373 OA
ATOM     37  C   LIG    1      -26.764  79.911  10.549  0.00  0.00    +0.194 C 
ENDBRANCH   2  36
TORSDOF 2
ENDMDL
MODEL 8
REMARK VINA RESULT:      -6.1     17.117     21.224
REMARK  Name = pdb/CHEMBL1980995.pdb
REMARK                            x       y       z     vdW  Elec       q    Type
REMARK                         _______ _______ _______ _____ _____    ______ ____
ROOT
ATOM      1  C   LIG    1      -38.491  66.302  23.845  0.00  0.00    +0.091 C 
ATOM      2  C   LIG    1      -36.937  66.312  23.846  0.00  0.00    +0.187 C 
ATOM      3  C   LIG    1      -36.348  67.639  23.238  0.00  0.00    +0.174 C 
ATOM      4  N   LIG    1      -36.443  68.783  24.149  0.00  0.00    -0.307 N 
ATOM      5  C   LIG    1      -37.307  69.840  24.172  0.00  0.00    +0.077 A 
ATOM      6  C   LIG    1      -38.461  69.997  23.412  0.00  0.00    +0.077 A 
ATOM      7  N   LIG    1      -38.916  69.139  22.468  0.00  0.00    -0.311 N 
ATOM      8  C   LIG    1      -40.163  69.712  22.152  0.00  0.00    +0.052 A 
ATOM      9  C   LIG    1      -41.133  69.247  21.240  0.00  0.00    +0.026 A 
ATOM     10  C   LIG    1      -42.337  69.939  21.106  0.00  0.00    +0.002 A 
ATOM     11  C   LIG    1      -42.584  71.082  21.850  0.00  0.00    +0.001 A 
ATOM     12  C   LIG    1      -41.627  71.570  22.746  0.00  0.00    +0.010 A 
ATOM     13  C   LIG    1      -40.391  70.909  22.926  0.00  0.00    +0.008 A 
ATOM     14  C   LIG    1      -38.347  67.940  21.907  0.00  0.00    +0.224 C 
ATOM     15  C   LIG    1      -39.246  71.115  23.737  0.00  0.00    +0.022 A 
ATOM     16  C   LIG    1      -39.051  72.150  24.677  0.00  0.00    +0.052 A 
ATOM     17  C   LIG    1      -39.742  73.317  25.126  0.00  0.00    +0.245 C 
ATOM     18  O   LIG    1      -40.795  73.865  24.823  0.00  0.00    -0.270 OA
ATOM     19  N   LIG    1      -38.912  73.827  26.124  0.00  0.00    -0.307 N 
ATOM     20  H   LIG    1      -39.184  74.670  26.609  0.00  0.00    +0.149 HD
ATOM     21  C   LIG    1      -37.693  73.082  26.391  0.00  0.00    +0.141 C 
ATOM     22  C   LIG    1      -37.856  72.013  25.412  0.00  0.00    -0.008 A 
ATOM     23  C   LIG    1      -37.103  70.866  25.101  0.00  0.00    +0.015 A 
ATOM     24  C   LIG    1      -35.950  70.425  25.784  0.00  0.00    +0.008 A 
ATOM     25  C   LIG    1      -35.156  70.953  26.830  0.00  0.00    +0.010 A 
ATOM     26  C   LIG    1      -34.081  70.233  27.351  0.00  0.00    +0.001 A 
ATOM     27  C   LIG    1      -33.791  68.968  26.870  0.00  0.00    +0.002 A 
ATOM     28  C   LIG    1      -34.544  68.400  25.839  0.00  0.00    +0.026 A 
ATOM     29  C   LIG    1      -35.602  69.125  25.247  0.00  0.00    +0.053 A 
ATOM     30  C   LIG    1      -34.875  67.413  22.806  0.00  0.00    +0.069 C 
ATOM     31  O   LIG    1      -36.936  67.990  21.974  0.00  0.00    -0.328 OA
ATOM     32  C   LIG    1      -38.954  66.642  22.426  0.00  0.00    +0.076 C 
ENDROOT
BRANCH   1  34
ATOM     33  C   LIG    1      -38.748  66.970  26.195  0.00  0.00    +0.101 C 
ATOM     34  N   LIG    1      -39.155  67.178  24.816  0.00  0.00    -0.314 NA
ATOM     35  H   LIG    1      -40.171  67.089  24.745  0.00  0.00    +0.122 HD
ENDBRANCH   1  34
BRANCH   2  36
ATOM     36  O   LIG    1      -36.434  65.189  23.071  0.00  0.00    -0.373 OA
ATOM     37  C   LIG    1      -36.514  63.925  23.715  0.00  0.00    +0.194 C 
ENDBRANCH   2  36
TORSDOF 2
ENDMDL
MODEL 9
REMARK VINA RESULT:      -6.0     13.113     15.585
REMARK  Name = pdb/CHEMBL1980995.pdb
REMARK                            x       y       z     vdW  Elec       q    Type
REMARK                         _______ _______ _______ _____ _____    ______ ____
ROOT
ATOM      1  C   LIG    1      -32.852  86.140  32.649  0.00  0.00    +0.091 C 
ATOM      2  C   LIG    1      -31.734  87.106  32.170  0.00  0.00    +0.187 C 
ATOM      3  C   LIG    1      -31.486  87.011  30.618  0.00  0.00    +0.174 C 
ATOM      4  N   LIG    1      -32.522  87.679  29.827  0.00  0.00    -0.307 N 
ATOM      5  C   LIG    1      -33.577  87.173  29.123  0.00  0.00    +0.077 A 
ATOM      6  C   LIG    1      -34.043  85.863  29.135  0.00  0.00    +0.077 A 
ATOM      7  N   LIG    1      -33.498  84.830  29.822  0.00  0.00    -0.311 N 
ATOM      8  C   LIG    1      -34.447  83.815  29.593  0.00  0.00    +0.052 A 
ATOM      9  C   LIG    1      -34.448  82.492  30.082  0.00  0.00    +0.026 A 
ATOM     10  C   LIG    1      -35.515  81.648  29.777  0.00  0.00    +0.002 A 
ATOM     11  C   LIG    1      -36.567  82.092  28.990  0.00  0.00    +0.001 A 
ATOM     12  C   LIG    1      -36.576  83.394  28.478  0.00  0.00    +0.010 A 
ATOM     13  C   LIG    1      -35.523  84.295  28.757  0.00  0.00    +0.008 A 
ATOM     14  C   LIG    1      -32.296  84.730  30.609  0.00  0.00    +0.224 C 
ATOM     15  C   LIG    1      -35.236  85.643  28.428  0.00  0.00    +0.022 A 
ATOM     16  C   LIG    1      -36.036  86.513  27.656  0.00  0.00    +0.052 A 
ATOM     17  C   LIG    1      -37.251  86.450  26.906  0.00  0.00    +0.245 C 
ATOM     18  O   LIG    1      -38.056  85.566  26.644  0.00  0.00    -0.270 OA
ATOM     19  N   LIG    1      -37.418  87.754  26.439  0.00  0.00    -0.307 N 
ATOM     20  H   LIG    1      -38.222  87.975  25.870  0.00  0.00    +0.149 HD
ATOM     21  C   LIG    1      -36.393  88.711  26.823  0.00  0.00    +0.141 C 
ATOM     22  C   LIG    1      -35.534  87.830  27.606  0.00  0.00    -0.008 A 
ATOM     23  C   LIG    1      -34.361  88.040  28.354  0.00  0.00    +0.015 A 
ATOM     24  C   LIG    1      -33.740  89.286  28.583  0.00  0.00    +0.008 A 
ATOM     25  C   LIG    1      -33.968  90.605  28.124  0.00  0.00    +0.010 A 
ATOM     26  C   LIG    1      -33.202  91.673  28.591  0.00  0.00    +0.001 A 
ATOM     27  C   LIG    1      -32.220  91.461  29.544  0.00  0.00    +0.002 A 
ATOM     28  C   LIG    1      -31.956  90.178  30.033  0.00  0.00    +0.026 A 
ATOM     29  C   LIG    1      -32.671  89.066  29.537  0.00  0.00    +0.053 A 
ATOM     30  C   LIG    1      -30.087  87.584  30.272  0.00  0.00    +0.069 C 
ATOM     31  O   LIG    1      -31.333  85.659  30.154  0.00  0.00    -0.328 OA
ATOM     32  C   LIG    1      -32.517  84.744  32.118  0.00  0.00    +0.076 C 
ENDROOT
BRANCH   1  34
ATOM     33  C   LIG    1      -34.633  87.831  32.707  0.00  0.00    +0.101 C 
ATOM     34  N   LIG    1      -34.229  86.499  32.291  0.00  0.00    -0.314 NA
ATOM     35  H   LIG    1      -34.889  85.813  32.663  0.00  0.00    +0.122 HD
ENDBRANCH   1  34
BRANCH   2  36
ATOM     36  O   LIG    1      -30.487  86.797  32.854  0.00  0.00    -0.373 OA
ATOM     37  C   LIG    1      -30.442  87.166  34.225  0.00  0.00    +0.194 C 
ENDBRANCH   2  36
TORSDOF 2
ENDMDL
