MODEL 1
REMARK VINA RESULT:      -6.1      0.000      0.000
REMARK  Name = pdb/CHEMBL3671143.pdb
REMARK                            x       y       z     vdW  Elec       q    Type
REMARK                         _______ _______ _______ _____ _____    ______ ____
ROOT
ATOM      1  C   LIG    1      -24.847  76.866  34.017  0.00  0.00    +0.126 A 
ATOM      2  N   LIG    1      -23.892  77.756  34.200  0.00  0.00    -0.212 NA
ATOM      3  C   LIG    1      -24.186  78.886  34.928  0.00  0.00    +0.170 A 
ATOM      4  C   LIG    1      -23.425  79.979  35.308  0.00  0.00    +0.100 A 
ATOM      5  C   LIG    1      -24.315  80.792  36.040  0.00  0.00    +0.150 A 
ATOM      6  N   LIG    1      -25.542  80.283  36.125  0.00  0.00    -0.173 NA
ATOM      7  N   LIG    1      -25.458  79.108  35.461  0.00  0.00    -0.221 N 
ATOM      8  C   LIG    1      -26.458  78.169  35.304  0.00  0.00    +0.118 A 
ATOM      9  C   LIG    1      -26.220  77.042  34.627  0.00  0.00    +0.063 A 
ENDROOT
BRANCH   1  11
ATOM     10  C   LIG    1      -24.551  75.750  31.780  0.00  0.00    +0.108 C 
ATOM     11  N   LIG    1      -24.593  75.726  33.261  0.00  0.00    -0.308 N 
ATOM     12  C   LIG    1      -24.928  74.377  33.714  0.00  0.00    +0.107 C 
ATOM     13  C   LIG    1      -25.802  73.841  32.598  0.00  0.00    +0.021 C 
ATOM     14  C   LIG    1      -25.105  74.368  31.359  0.00  0.00    +0.029 C 
BRANCH  10  18
ATOM     15  F   LIG    1      -19.738  74.719  31.526  0.00  0.00    -0.205 F 
ATOM     16  C   LIG    1      -20.780  75.449  31.109  0.00  0.00    +0.124 A 
ATOM     17  C   LIG    1      -22.036  75.229  31.671  0.00  0.00    +0.046 A 
ATOM     18  C   LIG    1      -23.150  75.968  31.239  0.00  0.00    +0.011 A 
ATOM     19  C   LIG    1      -22.939  76.937  30.247  0.00  0.00    +0.129 A 
ATOM     20  F   LIG    1      -23.970  77.672  29.806  0.00  0.00    -0.205 F 
ATOM     21  C   LIG    1      -21.680  77.155  29.684  0.00  0.00    +0.041 A 
ATOM     22  C   LIG    1      -20.593  76.402  30.115  0.00  0.00    +0.041 A 
ENDBRANCH  10  18
ENDBRANCH   1  11
BRANCH   4  23
ATOM     23  C   LIG    1      -22.031  80.279  35.045  0.00  0.00    +0.249 C 
ATOM     24  N   LIG    1      -21.294  79.229  34.540  0.00  0.00    -0.308 N 
ATOM     25  H   LIG    1      -21.776  78.341  34.401  0.00  0.00    +0.149 HD
ATOM     26  O   LIG    1      -21.555  81.382  35.274  0.00  0.00    -0.270 OA
BRANCH  24  27
ATOM     27  C   LIG    1      -19.896  79.376  34.193  0.00  0.00    +0.077 C 
ATOM     28  C   LIG    1      -19.454  78.354  33.120  0.00  0.00    +0.010 C 
ATOM     29  C   LIG    1      -19.064  77.138  33.965  0.00  0.00    +0.009 C 
ATOM     30  C   LIG    1      -18.069  77.927  34.813  0.00  0.00    -0.009 C 
ATOM     31  C   LIG    1      -17.136  78.521  33.744  0.00  0.00    +0.004 C 
ATOM     32  C   LIG    1      -18.086  78.791  32.566  0.00  0.00    +0.005 C 
ATOM     33  C   LIG    1      -18.959  79.045  35.376  0.00  0.00    +0.026 C 
ENDBRANCH  24  27
ENDBRANCH   4  23
TORSDOF 4
ENDMDL
MODEL 2
REMARK VINA RESULT:      -5.9     19.351     22.149
REMARK  Name = pdb/CHEMBL3671143.pdb
REMARK                            x       y       z     vdW  Elec       q    Type
REMARK                         _______ _______ _______ _____ _____    ______ ____
ROOT
ATOM      1  C   LIG    1      -23.093  86.509  12.247  0.00  0.00    +0.126 A 
ATOM      2  N   LIG    1      -23.360  85.248  12.520  0.00  0.00    -0.212 NA
ATOM      3  C   LIG    1      -24.197  84.561  11.671  0.00  0.00    +0.170 A 
ATOM      4  C   LIG    1      -24.654  83.253  11.663  0.00  0.00    +0.100 A 
ATOM      5  C   LIG    1      -25.486  83.177  10.526  0.00  0.00    +0.150 A 
ATOM      6  N   LIG    1      -25.571  84.326   9.859  0.00  0.00    -0.173 NA
ATOM      7  N   LIG    1      -24.767  85.167  10.550  0.00  0.00    -0.221 N 
ATOM      8  C   LIG    1      -24.471  86.478  10.234  0.00  0.00    +0.118 A 
ATOM      9  C   LIG    1      -23.644  87.185  11.010  0.00  0.00    +0.063 A 
ENDROOT
BRANCH   1  11
ATOM     10  C   LIG    1      -21.350  86.597  14.061  0.00  0.00    +0.108 C 
ATOM     11  N   LIG    1      -22.274  87.243  13.099  0.00  0.00    -0.308 N 
ATOM     12  C   LIG    1      -22.616  88.580  13.580  0.00  0.00    +0.107 C 
ATOM     13  C   LIG    1      -22.550  88.436  15.087  0.00  0.00    +0.021 C 
ATOM     14  C   LIG    1      -21.331  87.555  15.276  0.00  0.00    +0.029 C 
BRANCH  10  18
ATOM     15  F   LIG    1      -17.201  88.237  11.965  0.00  0.00    -0.205 F 
ATOM     16  C   LIG    1      -17.909  87.218  12.470  0.00  0.00    +0.124 A 
ATOM     17  C   LIG    1      -19.199  87.450  12.941  0.00  0.00    +0.046 A 
ATOM     18  C   LIG    1      -19.956  86.403  13.493  0.00  0.00    +0.011 A 
ATOM     19  C   LIG    1      -19.370  85.129  13.526  0.00  0.00    +0.129 A 
ATOM     20  F   LIG    1      -20.056  84.097  14.038  0.00  0.00    -0.205 F 
ATOM     21  C   LIG    1      -18.077  84.898  13.054  0.00  0.00    +0.041 A 
ATOM     22  C   LIG    1      -17.339  85.952  12.526  0.00  0.00    +0.041 A 
ENDBRANCH  10  18
ENDBRANCH   1  11
BRANCH   4  23
ATOM     23  C   LIG    1      -24.380  82.165  12.581  0.00  0.00    +0.249 C 
ATOM     24  N   LIG    1      -23.103  82.152  13.103  0.00  0.00    -0.308 N 
ATOM     25  H   LIG    1      -22.466  82.888  12.804  0.00  0.00    +0.149 HD
ATOM     26  O   LIG    1      -25.223  81.321  12.851  0.00  0.00    -0.270 OA
BRANCH  24  27
ATOM     27  C   LIG    1      -22.682  81.151  14.061  0.00  0.00    +0.077 C 
ATOM     28  C   LIG    1      -23.165  81.478  15.493  0.00  0.00    +0.010 C 
ATOM     29  C   LIG    1      -22.046  82.381  16.019  0.00  0.00    +0.009 C 
ATOM     30  C   LIG    1      -20.953  81.353  15.732  0.00  0.00    -0.009 C 
ATOM     31  C   LIG    1      -21.455  80.124  16.508  0.00  0.00    +0.004 C 
ATOM     32  C   LIG    1      -22.982  80.224  16.367  0.00  0.00    +0.005 C 
ATOM     33  C   LIG    1      -21.147  81.108  14.228  0.00  0.00    +0.026 C 
ENDBRANCH  24  27
ENDBRANCH   4  23
TORSDOF 4
ENDMDL
MODEL 3
REMARK VINA RESULT:      -5.9      1.590      2.321
REMARK  Name = pdb/CHEMBL3671143.pdb
REMARK                            x       y       z     vdW  Elec       q    Type
REMARK                         _______ _______ _______ _____ _____    ______ ____
ROOT
ATOM      1  C   LIG    1      -24.239  78.483  34.812  0.00  0.00    +0.126 A 
ATOM      2  N   LIG    1      -22.929  78.609  34.871  0.00  0.00    -0.212 NA
ATOM      3  C   LIG    1      -22.407  79.673  35.570  0.00  0.00    +0.170 A 
ATOM      4  C   LIG    1      -21.108  80.074  35.832  0.00  0.00    +0.100 A 
ATOM      5  C   LIG    1      -21.249  81.247  36.603  0.00  0.00    +0.150 A 
ATOM      6  N   LIG    1      -22.519  81.586  36.817  0.00  0.00    -0.173 NA
ATOM      7  N   LIG    1      -23.227  80.611  36.201  0.00  0.00    -0.221 N 
ATOM      8  C   LIG    1      -24.600  80.473  36.175  0.00  0.00    +0.118 A 
ATOM      9  C   LIG    1      -25.160  79.445  35.531  0.00  0.00    +0.063 A 
ENDROOT
BRANCH   1  11
ATOM     10  C   LIG    1      -25.184  77.572  32.664  0.00  0.00    +0.108 C 
ATOM     11  N   LIG    1      -24.801  77.435  34.089  0.00  0.00    -0.308 N 
ATOM     12  C   LIG    1      -25.600  76.378  34.707  0.00  0.00    +0.107 C 
ATOM     13  C   LIG    1      -26.904  76.432  33.937  0.00  0.00    +0.021 C 
ATOM     14  C   LIG    1      -26.433  76.670  32.515  0.00  0.00    +0.029 C 
BRANCH  10  18
ATOM     15  F   LIG    1      -21.387  74.705  31.376  0.00  0.00    -0.205 F 
ATOM     16  C   LIG    1      -22.215  75.716  31.083  0.00  0.00    +0.124 A 
ATOM     17  C   LIG    1      -23.185  76.094  32.008  0.00  0.00    +0.046 A 
ATOM     18  C   LIG    1      -24.078  77.139  31.719  0.00  0.00    +0.011 A 
ATOM     19  C   LIG    1      -23.936  77.789  30.484  0.00  0.00    +0.129 A 
ATOM     20  F   LIG    1      -24.761  78.796  30.165  0.00  0.00    -0.205 F 
ATOM     21  C   LIG    1      -22.964  77.409  29.557  0.00  0.00    +0.041 A 
ATOM     22  C   LIG    1      -22.099  76.361  29.858  0.00  0.00    +0.041 A 
ENDBRANCH  10  18
ENDBRANCH   1  11
BRANCH   4  23
ATOM     23  C   LIG    1      -19.850  79.472  35.436  0.00  0.00    +0.249 C 
ATOM     24  N   LIG    1      -19.928  78.613  34.361  0.00  0.00    -0.308 N 
ATOM     25  H   LIG    1      -20.846  78.466  33.943  0.00  0.00    +0.149 HD
ATOM     26  O   LIG    1      -18.807  79.708  36.030  0.00  0.00    -0.270 OA
BRANCH  24  27
ATOM     27  C   LIG    1      -18.755  77.958  33.821  0.00  0.00    +0.077 C 
ATOM     28  C   LIG    1      -18.291  78.601  32.494  0.00  0.00    +0.010 C 
ATOM     29  C   LIG    1      -19.127  77.850  31.454  0.00  0.00    +0.009 C 
ATOM     30  C   LIG    1      -18.645  76.477  31.919  0.00  0.00    -0.009 C 
ATOM     31  C   LIG    1      -17.118  76.617  31.804  0.00  0.00    +0.004 C 
ATOM     32  C   LIG    1      -16.875  78.089  32.174  0.00  0.00    +0.005 C 
ATOM     33  C   LIG    1      -19.038  76.497  33.404  0.00  0.00    +0.026 C 
ENDBRANCH  24  27
ENDBRANCH   4  23
TORSDOF 4
ENDMDL
MODEL 4
REMARK VINA RESULT:      -5.8      2.818      5.992
REMARK  Name = pdb/CHEMBL3671143.pdb
REMARK                            x       y       z     vdW  Elec       q    Type
REMARK                         _______ _______ _______ _____ _____    ______ ____
ROOT
ATOM      1  C   LIG    1      -20.372  76.991  31.297  0.00  0.00    +0.126 A 
ATOM      2  N   LIG    1      -21.324  77.509  32.048  0.00  0.00    -0.212 NA
ATOM      3  C   LIG    1      -22.595  77.585  31.528  0.00  0.00    +0.170 A 
ATOM      4  C   LIG    1      -23.793  78.047  32.049  0.00  0.00    +0.100 A 
ATOM      5  C   LIG    1      -24.727  77.851  31.011  0.00  0.00    +0.150 A 
ATOM      6  N   LIG    1      -24.191  77.320  29.914  0.00  0.00    -0.173 NA
ATOM      7  N   LIG    1      -22.891  77.140  30.239  0.00  0.00    -0.221 N 
ATOM      8  C   LIG    1      -21.910  76.566  29.453  0.00  0.00    +0.118 A 
ATOM      9  C   LIG    1      -20.664  76.444  29.917  0.00  0.00    +0.063 A 
ENDROOT
BRANCH   1  11
ATOM     10  C   LIG    1      -18.573  77.824  32.849  0.00  0.00    +0.108 C 
ATOM     11  N   LIG    1      -19.069  76.926  31.780  0.00  0.00    -0.308 N 
ATOM     12  C   LIG    1      -17.941  76.466  30.972  0.00  0.00    +0.107 C 
ATOM     13  C   LIG    1      -16.964  77.622  31.047  0.00  0.00    +0.021 C 
ATOM     14  C   LIG    1      -17.085  78.055  32.495  0.00  0.00    +0.029 C 
BRANCH  10  18
ATOM     15  F   LIG    1      -19.142  74.030  35.943  0.00  0.00    -0.205 F 
ATOM     16  C   LIG    1      -18.990  75.347  35.756  0.00  0.00    +0.124 A 
ATOM     17  C   LIG    1      -18.899  75.846  34.458  0.00  0.00    +0.046 A 
ATOM     18  C   LIG    1      -18.722  77.222  34.234  0.00  0.00    +0.011 A 
ATOM     19  C   LIG    1      -18.663  78.059  35.358  0.00  0.00    +0.129 A 
ATOM     20  F   LIG    1      -18.500  79.380  35.194  0.00  0.00    -0.205 F 
ATOM     21  C   LIG    1      -18.753  77.557  36.657  0.00  0.00    +0.041 A 
ATOM     22  C   LIG    1      -18.914  76.190  36.858  0.00  0.00    +0.041 A 
ENDBRANCH  10  18
ENDBRANCH   1  11
BRANCH   4  23
ATOM     23  C   LIG    1      -24.086  78.613  33.351  0.00  0.00    +0.249 C 
ATOM     24  N   LIG    1      -23.025  79.246  33.963  0.00  0.00    -0.308 N 
ATOM     25  H   LIG    1      -22.136  79.261  33.465  0.00  0.00    +0.149 HD
ATOM     26  O   LIG    1      -25.193  78.515  33.862  0.00  0.00    -0.270 OA
BRANCH  24  27
ATOM     27  C   LIG    1      -23.163  79.893  35.251  0.00  0.00    +0.077 C 
ATOM     28  C   LIG    1      -22.685  81.363  35.216  0.00  0.00    +0.010 C 
ATOM     29  C   LIG    1      -21.187  81.228  35.502  0.00  0.00    +0.009 C 
ATOM     30  C   LIG    1      -21.407  80.462  36.805  0.00  0.00    -0.009 C 
ATOM     31  C   LIG    1      -22.313  81.422  37.593  0.00  0.00    +0.004 C 
ATOM     32  C   LIG    1      -23.176  82.064  36.496  0.00  0.00    +0.005 C 
ATOM     33  C   LIG    1      -22.244  79.267  36.323  0.00  0.00    +0.026 C 
ENDBRANCH  24  27
ENDBRANCH   4  23
TORSDOF 4
ENDMDL
MODEL 5
REMARK VINA RESULT:      -5.8     14.068     17.320
REMARK  Name = pdb/CHEMBL3671143.pdb
REMARK                            x       y       z     vdW  Elec       q    Type
REMARK                         _______ _______ _______ _____ _____    ______ ____
ROOT
ATOM      1  C   LIG    1      -38.715  74.782  24.830  0.00  0.00    +0.126 A 
ATOM      2  N   LIG    1      -37.898  73.775  25.064  0.00  0.00    -0.212 NA
ATOM      3  C   LIG    1      -38.310  72.509  24.718  0.00  0.00    +0.170 A 
ATOM      4  C   LIG    1      -37.700  71.268  24.812  0.00  0.00    +0.100 A 
ATOM      5  C   LIG    1      -38.651  70.368  24.287  0.00  0.00    +0.150 A 
ATOM      6  N   LIG    1      -39.777  70.960  23.896  0.00  0.00    -0.173 NA
ATOM      7  N   LIG    1      -39.560  72.273  24.142  0.00  0.00    -0.221 N 
ATOM      8  C   LIG    1      -40.413  73.322  23.862  0.00  0.00    +0.118 A 
ATOM      9  C   LIG    1      -40.053  74.575  24.154  0.00  0.00    +0.063 A 
ENDROOT
BRANCH   1  11
ATOM     10  C   LIG    1      -38.460  76.569  26.584  0.00  0.00    +0.108 C 
ATOM     11  N   LIG    1      -38.344  76.073  25.193  0.00  0.00    -0.308 N 
ATOM     12  C   LIG    1      -38.385  77.205  24.269  0.00  0.00    +0.107 C 
ATOM     13  C   LIG    1      -39.261  78.210  24.990  0.00  0.00    +0.021 C 
ATOM     14  C   LIG    1      -38.801  78.071  26.428  0.00  0.00    +0.029 C 
BRANCH  10  18
ATOM     15  F   LIG    1      -33.567  76.139  26.994  0.00  0.00    -0.205 F 
ATOM     16  C   LIG    1      -34.771  76.177  27.580  0.00  0.00    +0.124 A 
ATOM     17  C   LIG    1      -35.910  76.316  26.791  0.00  0.00    +0.046 A 
ATOM     18  C   LIG    1      -37.184  76.376  27.382  0.00  0.00    +0.011 A 
ATOM     19  C   LIG    1      -37.255  76.269  28.779  0.00  0.00    +0.129 A 
ATOM     20  F   LIG    1      -38.449  76.315  29.388  0.00  0.00    -0.205 F 
ATOM     21  C   LIG    1      -36.112  76.130  29.568  0.00  0.00    +0.041 A 
ATOM     22  C   LIG    1      -34.860  76.088  28.964  0.00  0.00    +0.041 A 
ENDBRANCH  10  18
ENDBRANCH   1  11
BRANCH   4  23
ATOM     23  C   LIG    1      -36.391  70.910  25.321  0.00  0.00    +0.249 C 
ATOM     24  N   LIG    1      -35.971  71.641  26.412  0.00  0.00    -0.308 N 
ATOM     25  H   LIG    1      -36.597  72.364  26.763  0.00  0.00    +0.149 HD
ATOM     26  O   LIG    1      -35.715  70.033  24.802  0.00  0.00    -0.270 OA
BRANCH  24  27
ATOM     27  C   LIG    1      -34.702  71.383  27.060  0.00  0.00    +0.077 C 
ATOM     28  C   LIG    1      -34.825  70.316  28.172  0.00  0.00    +0.010 C 
ATOM     29  C   LIG    1      -35.218  71.155  29.391  0.00  0.00    +0.009 C 
ATOM     30  C   LIG    1      -34.009  72.080  29.263  0.00  0.00    -0.009 C 
ATOM     31  C   LIG    1      -32.838  71.083  29.293  0.00  0.00    +0.004 C 
ATOM     32  C   LIG    1      -33.409  69.856  28.564  0.00  0.00    +0.005 C 
ATOM     33  C   LIG    1      -34.176  72.613  27.832  0.00  0.00    +0.026 C 
ENDBRANCH  24  27
ENDBRANCH   4  23
TORSDOF 4
ENDMDL
MODEL 6
REMARK VINA RESULT:      -5.8      2.083      4.253
REMARK  Name = pdb/CHEMBL3671143.pdb
REMARK                            x       y       z     vdW  Elec       q    Type
REMARK                         _______ _______ _______ _____ _____    ______ ____
ROOT
ATOM      1  C   LIG    1      -23.440  76.640  32.298  0.00  0.00    +0.126 A 
ATOM      2  N   LIG    1      -23.664  77.524  33.249  0.00  0.00    -0.212 NA
ATOM      3  C   LIG    1      -24.922  77.582  33.802  0.00  0.00    +0.170 A 
ATOM      4  C   LIG    1      -25.469  78.365  34.806  0.00  0.00    +0.100 A 
ATOM      5  C   LIG    1      -26.809  77.935  34.899  0.00  0.00    +0.150 A 
ATOM      6  N   LIG    1      -27.112  76.969  34.034  0.00  0.00    -0.173 NA
ATOM      7  N   LIG    1      -25.952  76.741  33.377  0.00  0.00    -0.221 N 
ATOM      8  C   LIG    1      -25.723  75.788  32.404  0.00  0.00    +0.118 A 
ATOM      9  C   LIG    1      -24.513  75.672  31.850  0.00  0.00    +0.063 A 
ENDROOT
BRANCH   1  11
ATOM     10  C   LIG    1      -21.200  77.674  31.798  0.00  0.00    +0.108 C 
ATOM     11  N   LIG    1      -22.187  76.574  31.696  0.00  0.00    -0.308 N 
ATOM     12  C   LIG    1      -21.924  75.797  30.486  0.00  0.00    +0.107 C 
ATOM     13  C   LIG    1      -21.343  76.822  29.533  0.00  0.00    +0.021 C 
ATOM     14  C   LIG    1      -20.452  77.644  30.444  0.00  0.00    +0.029 C 
BRANCH  10  18
ATOM     15  F   LIG    1      -19.199  75.054  35.463  0.00  0.00    -0.205 F 
ATOM     16  C   LIG    1      -19.248  76.191  34.757  0.00  0.00    +0.124 A 
ATOM     17  C   LIG    1      -20.179  76.315  33.727  0.00  0.00    +0.046 A 
ATOM     18  C   LIG    1      -20.240  77.490  32.960  0.00  0.00    +0.011 A 
ATOM     19  C   LIG    1      -19.351  78.525  33.287  0.00  0.00    +0.129 A 
ATOM     20  F   LIG    1      -19.376  79.668  32.587  0.00  0.00    -0.205 F 
ATOM     21  C   LIG    1      -18.419  78.398  34.318  0.00  0.00    +0.041 A 
ATOM     22  C   LIG    1      -18.365  77.220  35.056  0.00  0.00    +0.041 A 
ENDBRANCH  10  18
ENDBRANCH   1  11
BRANCH   4  23
ATOM     23  C   LIG    1      -24.859  79.403  35.613  0.00  0.00    +0.249 C 
ATOM     24  N   LIG    1      -23.511  79.239  35.852  0.00  0.00    -0.308 N 
ATOM     25  H   LIG    1      -23.061  78.414  35.456  0.00  0.00    +0.149 HD
ATOM     26  O   LIG    1      -25.508  80.341  36.054  0.00  0.00    -0.270 OA
BRANCH  24  27
ATOM     27  C   LIG    1      -22.748  80.207  36.611  0.00  0.00    +0.077 C 
ATOM     28  C   LIG    1      -22.374  81.445  35.764  0.00  0.00    +0.010 C 
ATOM     29  C   LIG    1      -21.065  81.008  35.102  0.00  0.00    +0.009 C 
ATOM     30  C   LIG    1      -20.389  80.684  36.433  0.00  0.00    -0.009 C 
ATOM     31  C   LIG    1      -20.524  82.013  37.194  0.00  0.00    +0.004 C 
ATOM     32  C   LIG    1      -21.880  82.552  36.713  0.00  0.00    +0.005 C 
ATOM     33  C   LIG    1      -21.365  79.662  37.035  0.00  0.00    +0.026 C 
ENDBRANCH  24  27
ENDBRANCH   4  23
TORSDOF 4
ENDMDL
MODEL 7
REMARK VINA RESULT:      -5.8      2.121      3.656
REMARK  Name = pdb/CHEMBL3671143.pdb
REMARK                            x       y       z     vdW  Elec       q    Type
REMARK                         _______ _______ _______ _____ _____    ______ ____
ROOT
ATOM      1  C   LIG    1      -22.611  77.564  32.390  0.00  0.00    +0.126 A 
ATOM      2  N   LIG    1      -22.106  78.378  33.295  0.00  0.00    -0.212 NA
ATOM      3  C   LIG    1      -22.972  79.013  34.155  0.00  0.00    +0.170 A 
ATOM      4  C   LIG    1      -22.770  79.895  35.204  0.00  0.00    +0.100 A 
ATOM      5  C   LIG    1      -24.066  80.179  35.681  0.00  0.00    +0.150 A 
ATOM      6  N   LIG    1      -25.025  79.549  35.005  0.00  0.00    -0.173 NA
ATOM      7  N   LIG    1      -24.353  78.821  34.084  0.00  0.00    -0.221 N 
ATOM      8  C   LIG    1      -24.893  77.946  33.162  0.00  0.00    +0.118 A 
ATOM      9  C   LIG    1      -24.097  77.284  32.319  0.00  0.00    +0.063 A 
ENDROOT
BRANCH   1  11
ATOM     10  C   LIG    1      -20.572  77.591  30.915  0.00  0.00    +0.108 C 
ATOM     11  N   LIG    1      -21.768  76.927  31.485  0.00  0.00    -0.308 N 
ATOM     12  C   LIG    1      -22.222  75.879  30.572  0.00  0.00    +0.107 C 
ATOM     13  C   LIG    1      -21.824  76.408  29.209  0.00  0.00    +0.021 C 
ATOM     14  C   LIG    1      -20.463  77.018  29.482  0.00  0.00    +0.029 C 
BRANCH  10  18
ATOM     15  F   LIG    1      -16.900  74.677  32.441  0.00  0.00    -0.205 F 
ATOM     16  C   LIG    1      -17.498  75.876  32.455  0.00  0.00    +0.124 A 
ATOM     17  C   LIG    1      -18.675  76.060  31.732  0.00  0.00    +0.046 A 
ATOM     18  C   LIG    1      -19.313  77.312  31.715  0.00  0.00    +0.011 A 
ATOM     19  C   LIG    1      -18.732  78.345  32.466  0.00  0.00    +0.129 A 
ATOM     20  F   LIG    1      -19.308  79.555  32.485  0.00  0.00    -0.205 F 
ATOM     21  C   LIG    1      -17.553  78.158  33.189  0.00  0.00    +0.041 A 
ATOM     22  C   LIG    1      -16.929  76.915  33.180  0.00  0.00    +0.041 A 
ENDBRANCH  10  18
ENDBRANCH   1  11
BRANCH   4  23
ATOM     23  C   LIG    1      -21.537  80.441  35.738  0.00  0.00    +0.249 C 
ATOM     24  N   LIG    1      -20.586  79.503  36.081  0.00  0.00    -0.308 N 
ATOM     25  H   LIG    1      -20.822  78.522  35.941  0.00  0.00    +0.149 HD
ATOM     26  O   LIG    1      -21.373  81.644  35.880  0.00  0.00    -0.270 OA
BRANCH  24  27
ATOM     27  C   LIG    1      -19.288  79.887  36.595  0.00  0.00    +0.077 C 
ATOM     28  C   LIG    1      -18.304  78.696  36.634  0.00  0.00    +0.010 C 
ATOM     29  C   LIG    1      -18.602  78.067  37.998  0.00  0.00    +0.009 C 
ATOM     30  C   LIG    1      -18.354  79.368  38.758  0.00  0.00    -0.009 C 
ATOM     31  C   LIG    1      -16.928  79.733  38.313  0.00  0.00    +0.004 C 
ATOM     32  C   LIG    1      -16.883  79.245  36.857  0.00  0.00    +0.005 C 
ATOM     33  C   LIG    1      -19.349  80.320  38.077  0.00  0.00    +0.026 C 
ENDBRANCH  24  27
ENDBRANCH   4  23
TORSDOF 4
ENDMDL
MODEL 8
REMARK VINA RESULT:      -5.7     16.358     20.014
REMARK  Name = pdb/CHEMBL3671143.pdb
REMARK                            x       y       z     vdW  Elec       q    Type
REMARK                         _______ _______ _______ _____ _____    ______ ____
ROOT
ATOM      1  C   LIG    1      -39.756  69.976  23.282  0.00  0.00    +0.126 A 
ATOM      2  N   LIG    1      -38.530  69.505  23.382  0.00  0.00    -0.212 NA
ATOM      3  C   LIG    1      -38.006  68.818  22.311  0.00  0.00    +0.170 A 
ATOM      4  C   LIG    1      -36.774  68.224  22.091  0.00  0.00    +0.100 A 
ATOM      5  C   LIG    1      -36.870  67.684  20.792  0.00  0.00    +0.150 A 
ATOM      6  N   LIG    1      -38.053  67.896  20.220  0.00  0.00    -0.173 NA
ATOM      7  N   LIG    1      -38.741  68.607  21.142  0.00  0.00    -0.221 N 
ATOM      8  C   LIG    1      -40.015  69.122  21.012  0.00  0.00    +0.118 A 
ATOM      9  C   LIG    1      -40.563  69.819  22.012  0.00  0.00    +0.063 A 
ENDROOT
BRANCH   1  11
ATOM     10  C   LIG    1      -39.515  71.388  25.352  0.00  0.00    +0.108 C 
ATOM     11  N   LIG    1      -40.328  70.650  24.357  0.00  0.00    -0.308 N 
ATOM     12  C   LIG    1      -41.596  70.252  24.965  0.00  0.00    +0.107 C 
ATOM     13  C   LIG    1      -41.236  70.060  26.425  0.00  0.00    +0.021 C 
ATOM     14  C   LIG    1      -40.289  71.216  26.681  0.00  0.00    +0.029 C 
BRANCH  10  18
ATOM     15  F   LIG    1      -41.041  75.606  23.308  0.00  0.00    -0.205 F 
ATOM     16  C   LIG    1      -40.112  74.935  24.000  0.00  0.00    +0.124 A 
ATOM     17  C   LIG    1      -40.301  73.579  24.260  0.00  0.00    +0.046 A 
ATOM     18  C   LIG    1      -39.350  72.855  24.999  0.00  0.00    +0.011 A 
ATOM     19  C   LIG    1      -38.210  73.544  25.438  0.00  0.00    +0.129 A 
ATOM     20  F   LIG    1      -37.272  72.894  26.143  0.00  0.00    -0.205 F 
ATOM     21  C   LIG    1      -38.022  74.903  25.178  0.00  0.00    +0.041 A 
ATOM     22  C   LIG    1      -38.983  75.604  24.457  0.00  0.00    +0.041 A 
ENDBRANCH  10  18
ENDBRANCH   1  11
BRANCH   4  23
ATOM     23  C   LIG    1      -35.613  68.142  22.955  0.00  0.00    +0.249 C 
ATOM     24  N   LIG    1      -35.792  68.656  24.222  0.00  0.00    -0.308 N 
ATOM     25  H   LIG    1      -36.705  69.051  24.444  0.00  0.00    +0.149 HD
ATOM     26  O   LIG    1      -34.555  67.664  22.570  0.00  0.00    -0.270 OA
BRANCH  24  27
ATOM     27  C   LIG    1      -34.740  68.618  25.216  0.00  0.00    +0.077 C 
ATOM     28  C   LIG    1      -35.199  67.929  26.521  0.00  0.00    +0.010 C 
ATOM     29  C   LIG    1      -35.826  69.087  27.302  0.00  0.00    +0.009 C 
ATOM     30  C   LIG    1      -34.566  69.948  27.222  0.00  0.00    -0.009 C 
ATOM     31  C   LIG    1      -33.504  69.020  27.835  0.00  0.00    +0.004 C 
ATOM     32  C   LIG    1      -33.955  67.625  27.375  0.00  0.00    +0.005 C 
ATOM     33  C   LIG    1      -34.343  70.030  25.704  0.00  0.00    +0.026 C 
ENDBRANCH  24  27
ENDBRANCH   4  23
TORSDOF 4
ENDMDL
MODEL 9
REMARK VINA RESULT:      -5.7      3.002      7.467
REMARK  Name = pdb/CHEMBL3671143.pdb
REMARK                            x       y       z     vdW  Elec       q    Type
REMARK                         _______ _______ _______ _____ _____    ______ ____
ROOT
ATOM      1  C   LIG    1      -20.751  78.048  33.424  0.00  0.00    +0.126 A 
ATOM      2  N   LIG    1      -21.921  77.703  32.925  0.00  0.00    -0.212 NA
ATOM      3  C   LIG    1      -21.993  77.399  31.585  0.00  0.00    +0.170 A 
ATOM      4  C   LIG    1      -23.039  76.994  30.772  0.00  0.00    +0.100 A 
ATOM      5  C   LIG    1      -22.458  76.847  29.496  0.00  0.00    +0.150 A 
ATOM      6  N   LIG    1      -21.158  77.136  29.473  0.00  0.00    -0.173 NA
ATOM      7  N   LIG    1      -20.871  77.454  30.756  0.00  0.00    -0.221 N 
ATOM      8  C   LIG    1      -19.633  77.783  31.273  0.00  0.00    +0.118 A 
ATOM      9  C   LIG    1      -19.501  78.064  32.573  0.00  0.00    +0.063 A 
ENDROOT
BRANCH   1  11
ATOM     10  C   LIG    1      -20.474  79.792  35.218  0.00  0.00    +0.108 C 
ATOM     11  N   LIG    1      -20.647  78.391  34.769  0.00  0.00    -0.308 N 
ATOM     12  C   LIG    1      -20.110  77.487  35.784  0.00  0.00    +0.107 C 
ATOM     13  C   LIG    1      -18.989  78.292  36.409  0.00  0.00    +0.021 C 
ATOM     14  C   LIG    1      -19.589  79.682  36.482  0.00  0.00    +0.029 C 
BRANCH  10  18
ATOM     15  F   LIG    1      -25.376  79.826  35.738  0.00  0.00    -0.205 F 
ATOM     16  C   LIG    1      -24.210  80.481  35.796  0.00  0.00    +0.124 A 
ATOM     17  C   LIG    1      -23.034  79.814  35.460  0.00  0.00    +0.046 A 
ATOM     18  C   LIG    1      -21.795  80.473  35.529  0.00  0.00    +0.011 A 
ATOM     19  C   LIG    1      -21.799  81.819  35.925  0.00  0.00    +0.129 A 
ATOM     20  F   LIG    1      -20.641  82.491  36.001  0.00  0.00    -0.205 F 
ATOM     21  C   LIG    1      -22.977  82.486  36.262  0.00  0.00    +0.041 A 
ATOM     22  C   LIG    1      -24.192  81.810  36.201  0.00  0.00    +0.041 A 
ENDBRANCH  10  18
ENDBRANCH   1  11
BRANCH   4  23
ATOM     23  C   LIG    1      -24.433  76.757  31.096  0.00  0.00    +0.249 C 
ATOM     24  N   LIG    1      -24.681  76.467  32.421  0.00  0.00    -0.308 N 
ATOM     25  H   LIG    1      -23.882  76.436  33.053  0.00  0.00    +0.149 HD
ATOM     26  O   LIG    1      -25.309  76.801  30.244  0.00  0.00    -0.270 OA
BRANCH  24  27
ATOM     27  C   LIG    1      -26.024  76.240  32.913  0.00  0.00    +0.077 C 
ATOM     28  C   LIG    1      -26.418  77.252  34.013  0.00  0.00    +0.010 C 
ATOM     29  C   LIG    1      -25.893  76.577  35.283  0.00  0.00    +0.009 C 
ATOM     30  C   LIG    1      -26.670  75.286  35.033  0.00  0.00    -0.009 C 
ATOM     31  C   LIG    1      -28.114  75.799  34.909  0.00  0.00    +0.004 C 
ATOM     32  C   LIG    1      -27.940  77.167  34.230  0.00  0.00    +0.005 C 
ATOM     33  C   LIG    1      -26.161  74.884  33.640  0.00  0.00    +0.026 C 
ENDBRANCH  24  27
ENDBRANCH   4  23
TORSDOF 4
ENDMDL
