MODEL 1
REMARK VINA RESULT:      -7.0      0.000      0.000
REMARK  Name = pdb/CHEMBL254555.pdb
REMARK                            x       y       z     vdW  Elec       q    Type
REMARK                         _______ _______ _______ _____ _____    ______ ____
ROOT
ATOM      1  C   LIG    1      -37.902  74.278  24.992  0.00  0.00    +0.093 C 
ATOM      2  C   LIG    1      -39.170  74.834  24.372  0.00  0.00    -0.004 A 
ATOM      3  C   LIG    1      -39.573  76.129  24.214  0.00  0.00    +0.052 A 
ATOM      4  C   LIG    1      -40.820  76.489  23.798  0.00  0.00    +0.013 A 
ATOM      5  C   LIG    1      -41.744  75.501  23.398  0.00  0.00    -0.008 A 
ATOM      6  C   LIG    1      -41.300  74.149  23.467  0.00  0.00    +0.050 A 
ATOM      7  C   LIG    1      -42.365  73.330  22.940  0.00  0.00    +0.245 C 
ATOM      8  O   LIG    1      -42.501  72.131  22.735  0.00  0.00    -0.270 OA
ATOM      9  N   LIG    1      -43.379  74.229  22.624  0.00  0.00    -0.307 N 
ATOM     10  H   LIG    1      -44.233  73.881  22.215  0.00  0.00    +0.149 HD
ATOM     11  C   LIG    1      -43.102  75.624  22.878  0.00  0.00    +0.141 C 
ATOM     12  C   LIG    1      -41.092  77.844  23.939  0.00  0.00    +0.008 A 
ATOM     13  C   LIG    1      -42.196  78.710  23.825  0.00  0.00    +0.010 A 
ATOM     14  C   LIG    1      -42.052  80.055  24.181  0.00  0.00    +0.001 A 
ATOM     15  C   LIG    1      -40.821  80.552  24.599  0.00  0.00    +0.002 A 
ATOM     16  C   LIG    1      -39.695  79.725  24.680  0.00  0.00    +0.026 A 
ATOM     17  C   LIG    1      -39.857  78.367  24.371  0.00  0.00    +0.047 A 
ATOM     18  N   LIG    1      -38.937  77.320  24.442  0.00  0.00    -0.354 N 
ATOM     19  H   LIG    1      -37.967  77.420  24.703  0.00  0.00    +0.166 HD
ATOM     20  C   LIG    1      -40.051  73.810  23.975  0.00  0.00    +0.001 A 
ATOM     21  C   LIG    1      -39.403  72.547  24.235  0.00  0.00    -0.013 A 
ATOM     22  C   LIG    1      -39.851  71.241  24.106  0.00  0.00    +0.009 A 
ATOM     23  C   LIG    1      -39.000  70.186  24.447  0.00  0.00    +0.001 A 
ATOM     24  C   LIG    1      -37.697  70.432  24.895  0.00  0.00    +0.000 A 
ATOM     25  C   LIG    1      -37.238  71.741  25.051  0.00  0.00    +0.005 A 
ATOM     26  C   LIG    1      -38.108  72.784  24.753  0.00  0.00    -0.029 A 
ENDROOT
BRANCH   1  28
ATOM     27  C   LIG    1      -39.075  74.417  27.296  0.00  0.00    +0.053 C 
ATOM     28  C   LIG    1      -37.761  74.605  26.517  0.00  0.00    +0.187 C 
BRANCH  28  29
ATOM     29  O   LIG    1      -37.296  75.977  26.650  0.00  0.00    -0.446 OA
BRANCH  29  30
ATOM     30  C   LIG    1      -35.998  76.158  27.011  0.00  0.00    +0.401 C 
ATOM     31  N   LIG    1      -35.528  75.003  27.559  0.00  0.00    -0.278 N 
ATOM     32  H   LIG    1      -36.160  74.226  27.628  0.00  0.00    +0.152 HD
ATOM     33  O   LIG    1      -35.349  77.170  26.854  0.00  0.00    -0.226 OA
BRANCH  31  34
ATOM     34  C   LIG    1      -34.166  74.861  27.994  0.00  0.00    +0.134 C 
BRANCH  34  35
ATOM     35  C   LIG    1      -33.865  73.399  28.003  0.00  0.00    -0.016 C 
ATOM     36  C   LIG    1      -34.786  72.434  27.889  0.00  0.00    +0.005 C 
ENDBRANCH  34  35
ENDBRANCH  31  34
ENDBRANCH  29  30
ENDBRANCH  28  29
ENDBRANCH   1  28
TORSDOF 5
ENDMDL
MODEL 2
REMARK VINA RESULT:      -6.8      2.452      4.601
REMARK  Name = pdb/CHEMBL254555.pdb
REMARK                            x       y       z     vdW  Elec       q    Type
REMARK                         _______ _______ _______ _____ _____    ______ ____
ROOT
ATOM      1  C   LIG    1      -39.335  72.337  24.285  0.00  0.00    +0.093 C 
ATOM      2  C   LIG    1      -39.461  73.846  24.371  0.00  0.00    -0.004 A 
ATOM      3  C   LIG    1      -38.641  74.761  24.964  0.00  0.00    +0.052 A 
ATOM      4  C   LIG    1      -38.961  76.077  25.121  0.00  0.00    +0.013 A 
ATOM      5  C   LIG    1      -40.152  76.586  24.561  0.00  0.00    -0.008 A 
ATOM      6  C   LIG    1      -40.970  75.658  23.855  0.00  0.00    +0.050 A 
ATOM      7  C   LIG    1      -42.075  76.406  23.306  0.00  0.00    +0.245 C 
ATOM      8  O   LIG    1      -43.033  76.123  22.598  0.00  0.00    -0.270 OA
ATOM      9  N   LIG    1      -41.870  77.711  23.742  0.00  0.00    -0.307 N 
ATOM     10  H   LIG    1      -42.520  78.430  23.462  0.00  0.00    +0.149 HD
ATOM     11  C   LIG    1      -40.693  77.941  24.547  0.00  0.00    +0.141 C 
ATOM     12  C   LIG    1      -38.098  76.771  25.960  0.00  0.00    +0.008 A 
ATOM     13  C   LIG    1      -38.024  78.037  26.573  0.00  0.00    +0.010 A 
ATOM     14  C   LIG    1      -36.988  78.300  27.476  0.00  0.00    +0.001 A 
ATOM     15  C   LIG    1      -36.009  77.345  27.735  0.00  0.00    +0.002 A 
ATOM     16  C   LIG    1      -36.033  76.095  27.107  0.00  0.00    +0.026 A 
ATOM     17  C   LIG    1      -37.101  75.817  26.242  0.00  0.00    +0.047 A 
ATOM     18  N   LIG    1      -37.412  74.642  25.555  0.00  0.00    -0.354 N 
ATOM     19  H   LIG    1      -36.849  73.804  25.563  0.00  0.00    +0.166 HD
ATOM     20  C   LIG    1      -40.656  74.305  23.784  0.00  0.00    +0.001 A 
ATOM     21  C   LIG    1      -41.339  73.164  23.225  0.00  0.00    -0.013 A 
ATOM     22  C   LIG    1      -42.577  73.043  22.612  0.00  0.00    +0.009 A 
ATOM     23  C   LIG    1      -43.003  71.789  22.165  0.00  0.00    +0.001 A 
ATOM     24  C   LIG    1      -42.186  70.660  22.310  0.00  0.00    +0.000 A 
ATOM     25  C   LIG    1      -40.947  70.761  22.944  0.00  0.00    +0.005 A 
ATOM     26  C   LIG    1      -40.552  72.004  23.426  0.00  0.00    -0.029 A 
ENDROOT
BRANCH   1  28
ATOM     27  C   LIG    1      -40.227  72.413  26.714  0.00  0.00    +0.053 C 
ATOM     28  C   LIG    1      -39.401  71.628  25.679  0.00  0.00    +0.187 C 
BRANCH  28  29
ATOM     29  O   LIG    1      -38.042  71.444  26.165  0.00  0.00    -0.446 OA
BRANCH  29  30
ATOM     30  C   LIG    1      -37.178  70.779  25.352  0.00  0.00    +0.401 C 
ATOM     31  N   LIG    1      -37.793  69.657  24.883  0.00  0.00    -0.278 N 
ATOM     32  H   LIG    1      -38.733  69.476  25.184  0.00  0.00    +0.152 HD
ATOM     33  O   LIG    1      -36.054  71.130  25.068  0.00  0.00    -0.226 OA
BRANCH  31  34
ATOM     34  C   LIG    1      -37.153  68.766  23.955  0.00  0.00    +0.134 C 
BRANCH  34  35
ATOM     35  C   LIG    1      -37.439  69.289  22.586  0.00  0.00    -0.016 C 
ATOM     36  C   LIG    1      -38.173  68.648  21.668  0.00  0.00    +0.005 C 
ENDBRANCH  34  35
ENDBRANCH  31  34
ENDBRANCH  29  30
ENDBRANCH  28  29
ENDBRANCH   1  28
TORSDOF 5
ENDMDL
MODEL 3
REMARK VINA RESULT:      -6.6      2.013      3.538
REMARK  Name = pdb/CHEMBL254555.pdb
REMARK                            x       y       z     vdW  Elec       q    Type
REMARK                         _______ _______ _______ _____ _____    ______ ____
ROOT
ATOM      1  C   LIG    1      -38.222  72.726  25.039  0.00  0.00    +0.093 C 
ATOM      2  C   LIG    1      -38.583  74.198  24.985  0.00  0.00    -0.004 A 
ATOM      3  C   LIG    1      -37.951  75.275  25.534  0.00  0.00    +0.052 A 
ATOM      4  C   LIG    1      -38.478  76.532  25.558  0.00  0.00    +0.013 A 
ATOM      5  C   LIG    1      -39.696  76.800  24.899  0.00  0.00    -0.008 A 
ATOM      6  C   LIG    1      -40.317  75.701  24.239  0.00  0.00    +0.050 A 
ATOM      7  C   LIG    1      -41.489  76.218  23.574  0.00  0.00    +0.245 C 
ATOM      8  O   LIG    1      -42.346  75.732  22.848  0.00  0.00    -0.270 OA
ATOM      9  N   LIG    1      -41.513  77.570  23.901  0.00  0.00    -0.307 N 
ATOM     10  H   LIG    1      -42.248  78.152  23.528  0.00  0.00    +0.149 HD
ATOM     11  C   LIG    1      -40.437  78.047  24.739  0.00  0.00    +0.141 C 
ATOM     12  C   LIG    1      -37.786  77.419  26.373  0.00  0.00    +0.008 A 
ATOM     13  C   LIG    1      -37.944  78.725  26.875  0.00  0.00    +0.010 A 
ATOM     14  C   LIG    1      -37.018  79.220  27.799  0.00  0.00    +0.001 A 
ATOM     15  C   LIG    1      -35.922  78.455  28.189  0.00  0.00    +0.002 A 
ATOM     16  C   LIG    1      -35.715  77.171  27.673  0.00  0.00    +0.026 A 
ATOM     17  C   LIG    1      -36.673  76.660  26.786  0.00  0.00    +0.047 A 
ATOM     18  N   LIG    1      -36.757  75.399  26.192  0.00  0.00    -0.354 N 
ATOM     19  H   LIG    1      -36.074  74.664  26.301  0.00  0.00    +0.166 HD
ATOM     20  C   LIG    1      -39.796  74.413  24.303  0.00  0.00    +0.001 A 
ATOM     21  C   LIG    1      -40.260  73.137  23.815  0.00  0.00    -0.013 A 
ATOM     22  C   LIG    1      -41.424  72.773  23.156  0.00  0.00    +0.009 A 
ATOM     23  C   LIG    1      -41.625  71.436  22.802  0.00  0.00    +0.001 A 
ATOM     24  C   LIG    1      -40.655  70.467  23.085  0.00  0.00    +0.000 A 
ATOM     25  C   LIG    1      -39.487  70.812  23.767  0.00  0.00    +0.005 A 
ATOM     26  C   LIG    1      -39.318  72.136  24.155  0.00  0.00    -0.029 A 
ENDROOT
BRANCH   1  28
ATOM     27  C   LIG    1      -39.605  72.375  27.199  0.00  0.00    +0.053 C 
ATOM     28  C   LIG    1      -38.264  72.128  26.486  0.00  0.00    +0.187 C 
BRANCH  28  29
ATOM     29  O   LIG    1      -37.177  72.714  27.255  0.00  0.00    -0.446 OA
BRANCH  29  30
ATOM     30  C   LIG    1      -36.034  71.986  27.367  0.00  0.00    +0.401 C 
ATOM     31  N   LIG    1      -35.222  72.580  28.286  0.00  0.00    -0.278 N 
ATOM     32  H   LIG    1      -35.546  73.424  28.723  0.00  0.00    +0.152 HD
ATOM     33  O   LIG    1      -35.779  70.963  26.769  0.00  0.00    -0.226 OA
BRANCH  31  34
ATOM     34  C   LIG    1      -33.955  72.018  28.664  0.00  0.00    +0.134 C 
BRANCH  34  35
ATOM     35  C   LIG    1      -33.011  73.161  28.841  0.00  0.00    -0.016 C 
ATOM     36  C   LIG    1      -33.323  74.444  28.621  0.00  0.00    +0.005 C 
ENDBRANCH  34  35
ENDBRANCH  31  34
ENDBRANCH  29  30
ENDBRANCH  28  29
ENDBRANCH   1  28
TORSDOF 5
ENDMDL
MODEL 4
REMARK VINA RESULT:      -6.5      2.837      4.813
REMARK  Name = pdb/CHEMBL254555.pdb
REMARK                            x       y       z     vdW  Elec       q    Type
REMARK                         _______ _______ _______ _____ _____    ______ ____
ROOT
ATOM      1  C   LIG    1      -35.615  70.925  26.081  0.00  0.00    +0.093 C 
ATOM      2  C   LIG    1      -36.853  70.963  25.206  0.00  0.00    -0.004 A 
ATOM      3  C   LIG    1      -37.635  72.019  24.838  0.00  0.00    +0.052 A 
ATOM      4  C   LIG    1      -38.826  71.891  24.188  0.00  0.00    +0.013 A 
ATOM      5  C   LIG    1      -39.264  70.621  23.760  0.00  0.00    -0.008 A 
ATOM      6  C   LIG    1      -38.408  69.520  24.053  0.00  0.00    +0.050 A 
ATOM      7  C   LIG    1      -39.008  68.351  23.458  0.00  0.00    +0.245 C 
ATOM      8  O   LIG    1      -38.686  67.173  23.372  0.00  0.00    -0.270 OA
ATOM      9  N   LIG    1      -40.187  68.813  22.882  0.00  0.00    -0.307 N 
ATOM     10  H   LIG    1      -40.777  68.164  22.384  0.00  0.00    +0.149 HD
ATOM     11  C   LIG    1      -40.456  70.226  23.017  0.00  0.00    +0.141 C 
ATOM     12  C   LIG    1      -39.565  73.066  24.128  0.00  0.00    +0.008 A 
ATOM     13  C   LIG    1      -40.855  73.475  23.740  0.00  0.00    +0.010 A 
ATOM     14  C   LIG    1      -41.248  74.800  23.959  0.00  0.00    +0.001 A 
ATOM     15  C   LIG    1      -40.365  75.723  24.511  0.00  0.00    +0.002 A 
ATOM     16  C   LIG    1      -39.062  75.356  24.866  0.00  0.00    +0.026 A 
ATOM     17  C   LIG    1      -38.689  74.015  24.691  0.00  0.00    +0.047 A 
ATOM     18  N   LIG    1      -37.499  73.368  25.029  0.00  0.00    -0.354 N 
ATOM     19  H   LIG    1      -36.690  73.821  25.429  0.00  0.00    +0.166 HD
ATOM     20  C   LIG    1      -37.239  69.673  24.791  0.00  0.00    +0.001 A 
ATOM     21  C   LIG    1      -36.262  68.738  25.294  0.00  0.00    -0.013 A 
ATOM     22  C   LIG    1      -36.205  67.354  25.244  0.00  0.00    +0.009 A 
ATOM     23  C   LIG    1      -35.127  66.688  25.836  0.00  0.00    +0.001 A 
ATOM     24  C   LIG    1      -34.096  67.405  26.457  0.00  0.00    +0.000 A 
ATOM     25  C   LIG    1      -34.150  68.797  26.535  0.00  0.00    +0.005 A 
ATOM     26  C   LIG    1      -35.249  69.446  25.984  0.00  0.00    -0.029 A 
ENDROOT
BRANCH   1  28
ATOM     27  C   LIG    1      -37.252  70.877  28.085  0.00  0.00    +0.053 C 
ATOM     28  C   LIG    1      -35.887  71.357  27.561  0.00  0.00    +0.187 C 
BRANCH  28  29
ATOM     29  O   LIG    1      -35.807  72.808  27.638  0.00  0.00    -0.446 OA
BRANCH  29  30
ATOM     30  C   LIG    1      -34.638  73.341  28.081  0.00  0.00    +0.401 C 
ATOM     31  N   LIG    1      -34.580  74.649  27.702  0.00  0.00    -0.278 N 
ATOM     32  H   LIG    1      -35.350  75.019  27.175  0.00  0.00    +0.152 HD
ATOM     33  O   LIG    1      -33.790  72.763  28.726  0.00  0.00    -0.226 OA
BRANCH  31  34
ATOM     34  C   LIG    1      -33.483  75.502  28.066  0.00  0.00    +0.134 C 
BRANCH  34  35
ATOM     35  C   LIG    1      -33.534  76.683  27.154  0.00  0.00    -0.016 C 
ATOM     36  C   LIG    1      -32.733  77.752  27.252  0.00  0.00    +0.005 C 
ENDBRANCH  34  35
ENDBRANCH  31  34
ENDBRANCH  29  30
ENDBRANCH  28  29
ENDBRANCH   1  28
TORSDOF 5
ENDMDL
MODEL 5
REMARK VINA RESULT:      -6.4      1.883      5.826
REMARK  Name = pdb/CHEMBL254555.pdb
REMARK                            x       y       z     vdW  Elec       q    Type
REMARK                         _______ _______ _______ _____ _____    ______ ____
ROOT
ATOM      1  C   LIG    1      -38.871  75.701  26.036  0.00  0.00    +0.093 C 
ATOM      2  C   LIG    1      -38.889  74.249  25.597  0.00  0.00    -0.004 A 
ATOM      3  C   LIG    1      -38.054  73.223  25.930  0.00  0.00    +0.052 A 
ATOM      4  C   LIG    1      -38.075  72.001  25.326  0.00  0.00    +0.013 A 
ATOM      5  C   LIG    1      -39.069  71.704  24.369  0.00  0.00    -0.008 A 
ATOM      6  C   LIG    1      -40.007  72.736  24.084  0.00  0.00    +0.050 A 
ATOM      7  C   LIG    1      -40.964  72.189  23.154  0.00  0.00    +0.245 C 
ATOM      8  O   LIG    1      -41.979  72.616  22.618  0.00  0.00    -0.270 OA
ATOM      9  N   LIG    1      -40.525  70.890  22.918  0.00  0.00    -0.307 N 
ATOM     10  H   LIG    1      -41.058  70.296  22.300  0.00  0.00    +0.149 HD
ATOM     11  C   LIG    1      -39.335  70.477  23.624  0.00  0.00    +0.141 C 
ATOM     12  C   LIG    1      -36.990  71.195  25.645  0.00  0.00    +0.008 A 
ATOM     13  C   LIG    1      -36.437  69.968  25.231  0.00  0.00    +0.010 A 
ATOM     14  C   LIG    1      -35.212  69.553  25.766  0.00  0.00    +0.001 A 
ATOM     15  C   LIG    1      -34.564  70.316  26.734  0.00  0.00    +0.002 A 
ATOM     16  C   LIG    1      -35.112  71.517  27.197  0.00  0.00    +0.026 A 
ATOM     17  C   LIG    1      -36.314  71.953  26.621  0.00  0.00    +0.047 A 
ATOM     18  N   LIG    1      -37.029  73.133  26.833  0.00  0.00    -0.354 N 
ATOM     19  H   LIG    1      -36.778  73.848  27.500  0.00  0.00    +0.166 HD
ATOM     20  C   LIG    1      -39.908  74.000  24.656  0.00  0.00    +0.001 A 
ATOM     21  C   LIG    1      -40.651  75.224  24.477  0.00  0.00    -0.013 A 
ATOM     22  C   LIG    1      -41.691  75.550  23.621  0.00  0.00    +0.009 A 
ATOM     23  C   LIG    1      -42.228  76.841  23.651  0.00  0.00    +0.001 A 
ATOM     24  C   LIG    1      -41.742  77.798  24.551  0.00  0.00    +0.000 A 
ATOM     25  C   LIG    1      -40.681  77.492  25.404  0.00  0.00    +0.005 A 
ATOM     26  C   LIG    1      -40.124  76.220  25.334  0.00  0.00    -0.029 A 
ENDROOT
BRANCH   1  28
ATOM     27  C   LIG    1      -37.397  76.462  24.048  0.00  0.00    +0.053 C 
ATOM     28  C   LIG    1      -37.589  76.473  25.576  0.00  0.00    +0.187 C 
BRANCH  28  29
ATOM     29  O   LIG    1      -36.435  75.874  26.226  0.00  0.00    -0.446 OA
BRANCH  29  30
ATOM     30  C   LIG    1      -35.629  76.701  26.944  0.00  0.00    +0.401 C 
ATOM     31  N   LIG    1      -34.422  76.094  27.121  0.00  0.00    -0.278 N 
ATOM     32  H   LIG    1      -34.297  75.177  26.734  0.00  0.00    +0.152 HD
ATOM     33  O   LIG    1      -35.920  77.807  27.346  0.00  0.00    -0.226 OA
BRANCH  31  34
ATOM     34  C   LIG    1      -33.335  76.740  27.802  0.00  0.00    +0.134 C 
BRANCH  34  35
ATOM     35  C   LIG    1      -32.462  77.341  26.751  0.00  0.00    -0.016 C 
ATOM     36  C   LIG    1      -32.369  78.654  26.501  0.00  0.00    +0.005 C 
ENDBRANCH  34  35
ENDBRANCH  31  34
ENDBRANCH  29  30
ENDBRANCH  28  29
ENDBRANCH   1  28
TORSDOF 5
ENDMDL
MODEL 6
REMARK VINA RESULT:      -6.3      1.980      3.142
REMARK  Name = pdb/CHEMBL254555.pdb
REMARK                            x       y       z     vdW  Elec       q    Type
REMARK                         _______ _______ _______ _____ _____    ______ ____
ROOT
ATOM      1  C   LIG    1      -36.929  71.132  25.247  0.00  0.00    +0.093 C 
ATOM      2  C   LIG    1      -38.061  71.978  24.695  0.00  0.00    -0.004 A 
ATOM      3  C   LIG    1      -38.242  73.330  24.734  0.00  0.00    +0.052 A 
ATOM      4  C   LIG    1      -39.394  73.951  24.352  0.00  0.00    +0.013 A 
ATOM      5  C   LIG    1      -40.445  73.202  23.782  0.00  0.00    -0.008 A 
ATOM      6  C   LIG    1      -40.228  71.801  23.647  0.00  0.00    +0.050 A 
ATOM      7  C   LIG    1      -41.384  71.259  22.975  0.00  0.00    +0.245 C 
ATOM      8  O   LIG    1      -41.701  70.144  22.581  0.00  0.00    -0.270 OA
ATOM      9  N   LIG    1      -42.224  72.351  22.782  0.00  0.00    -0.307 N 
ATOM     10  H   LIG    1      -43.103  72.215  22.305  0.00  0.00    +0.149 HD
ATOM     11  C   LIG    1      -41.740  73.626  23.258  0.00  0.00    +0.141 C 
ATOM     12  C   LIG    1      -39.452  75.295  24.699  0.00  0.00    +0.008 A 
ATOM     13  C   LIG    1      -40.396  76.339  24.698  0.00  0.00    +0.010 A 
ATOM     14  C   LIG    1      -40.055  77.572  25.264  0.00  0.00    +0.001 A 
ATOM     15  C   LIG    1      -38.782  77.789  25.782  0.00  0.00    +0.002 A 
ATOM     16  C   LIG    1      -37.808  76.784  25.757  0.00  0.00    +0.026 A 
ATOM     17  C   LIG    1      -38.171  75.535  25.235  0.00  0.00    +0.047 A 
ATOM     18  N   LIG    1      -37.436  74.350  25.160  0.00  0.00    -0.354 N 
ATOM     19  H   LIG    1      -36.475  74.248  25.455  0.00  0.00    +0.166 HD
ATOM     20  C   LIG    1      -39.075  71.186  24.123  0.00  0.00    +0.001 A 
ATOM     21  C   LIG    1      -38.651  69.808  24.195  0.00  0.00    -0.013 A 
ATOM     22  C   LIG    1      -39.296  68.629  23.853  0.00  0.00    +0.009 A 
ATOM     23  C   LIG    1      -38.642  67.408  24.042  0.00  0.00    +0.001 A 
ATOM     24  C   LIG    1      -37.339  67.365  24.551  0.00  0.00    +0.000 A 
ATOM     25  C   LIG    1      -36.684  68.540  24.922  0.00  0.00    +0.005 A 
ATOM     26  C   LIG    1      -37.360  69.746  24.772  0.00  0.00    -0.029 A 
ENDROOT
BRANCH   1  28
ATOM     27  C   LIG    1      -38.122  70.833  27.526  0.00  0.00    +0.053 C 
ATOM     28  C   LIG    1      -36.810  71.196  26.807  0.00  0.00    +0.187 C 
BRANCH  28  29
ATOM     29  O   LIG    1      -36.393  72.539  27.180  0.00  0.00    -0.446 OA
BRANCH  29  30
ATOM     30  C   LIG    1      -35.148  72.677  27.708  0.00  0.00    +0.401 C 
ATOM     31  N   LIG    1      -34.844  74.004  27.774  0.00  0.00    -0.278 N 
ATOM     32  H   LIG    1      -35.526  74.659  27.439  0.00  0.00    +0.152 HD
ATOM     33  O   LIG    1      -34.429  71.777  28.083  0.00  0.00    -0.226 OA
BRANCH  31  34
ATOM     34  C   LIG    1      -33.609  74.478  28.336  0.00  0.00    +0.134 C 
BRANCH  34  35
ATOM     35  C   LIG    1      -33.431  75.883  27.864  0.00  0.00    -0.016 C 
ATOM     36  C   LIG    1      -34.381  76.605  27.256  0.00  0.00    +0.005 C 
ENDBRANCH  34  35
ENDBRANCH  31  34
ENDBRANCH  29  30
ENDBRANCH  28  29
ENDBRANCH   1  28
TORSDOF 5
ENDMDL
MODEL 7
REMARK VINA RESULT:      -6.1     21.559     23.611
REMARK  Name = pdb/CHEMBL254555.pdb
REMARK                            x       y       z     vdW  Elec       q    Type
REMARK                         _______ _______ _______ _____ _____    ______ ____
ROOT
ATOM      1  C   LIG    1      -22.824  86.480  13.962  0.00  0.00    +0.093 C 
ATOM      2  C   LIG    1      -22.941  85.132  13.277  0.00  0.00    -0.004 A 
ATOM      3  C   LIG    1      -22.988  83.878  13.814  0.00  0.00    +0.052 A 
ATOM      4  C   LIG    1      -22.918  82.734  13.075  0.00  0.00    +0.013 A 
ATOM      5  C   LIG    1      -22.897  82.803  11.667  0.00  0.00    -0.008 A 
ATOM      6  C   LIG    1      -22.945  84.106  11.092  0.00  0.00    +0.050 A 
ATOM      7  C   LIG    1      -22.997  83.933   9.661  0.00  0.00    +0.245 C 
ATOM      8  O   LIG    1      -23.086  84.696   8.708  0.00  0.00    -0.270 OA
ATOM      9  N   LIG    1      -22.944  82.556   9.470  0.00  0.00    -0.307 N 
ATOM     10  H   LIG    1      -22.984  82.188   8.531  0.00  0.00    +0.149 HD
ATOM     11  C   LIG    1      -22.871  81.744  10.663  0.00  0.00    +0.141 C 
ATOM     12  C   LIG    1      -22.740  81.584  13.834  0.00  0.00    +0.008 A 
ATOM     13  C   LIG    1      -22.464  80.220  13.621  0.00  0.00    +0.010 A 
ATOM     14  C   LIG    1      -22.245  79.385  14.722  0.00  0.00    +0.001 A 
ATOM     15  C   LIG    1      -22.343  79.879  16.020  0.00  0.00    +0.002 A 
ATOM     16  C   LIG    1      -22.659  81.220  16.263  0.00  0.00    +0.026 A 
ATOM     17  C   LIG    1      -22.828  82.063  15.155  0.00  0.00    +0.047 A 
ATOM     18  N   LIG    1      -23.066  83.438  15.108  0.00  0.00    -0.354 N 
ATOM     19  H   LIG    1      -23.195  84.029  15.916  0.00  0.00    +0.166 HD
ATOM     20  C   LIG    1      -22.933  85.256  11.874  0.00  0.00    +0.001 A 
ATOM     21  C   LIG    1      -22.885  86.663  11.557  0.00  0.00    -0.013 A 
ATOM     22  C   LIG    1      -22.782  87.328  10.345  0.00  0.00    +0.009 A 
ATOM     23  C   LIG    1      -22.744  88.725  10.328  0.00  0.00    +0.001 A 
ATOM     24  C   LIG    1      -22.832  89.458  11.519  0.00  0.00    +0.000 A 
ATOM     25  C   LIG    1      -22.915  88.804  12.748  0.00  0.00    +0.005 A 
ATOM     26  C   LIG    1      -22.905  87.414  12.756  0.00  0.00    -0.029 A 
ENDROOT
BRANCH   1  28
ATOM     27  C   LIG    1      -21.636  87.522  16.014  0.00  0.00    +0.053 C 
ATOM     28  C   LIG    1      -21.480  86.664  14.745  0.00  0.00    +0.187 C 
BRANCH  28  29
ATOM     29  O   LIG    1      -20.508  87.274  13.850  0.00  0.00    -0.446 OA
BRANCH  29  30
ATOM     30  C   LIG    1      -19.356  86.587  13.626  0.00  0.00    +0.401 C 
ATOM     31  N   LIG    1      -19.588  85.261  13.835  0.00  0.00    -0.278 N 
ATOM     32  H   LIG    1      -20.511  84.984  14.116  0.00  0.00    +0.152 HD
ATOM     33  O   LIG    1      -18.299  87.064  13.275  0.00  0.00    -0.226 OA
BRANCH  31  34
ATOM     34  C   LIG    1      -18.573  84.265  13.628  0.00  0.00    +0.134 C 
BRANCH  34  35
ATOM     35  C   LIG    1      -19.271  82.949  13.532  0.00  0.00    -0.016 C 
ATOM     36  C   LIG    1      -19.154  81.961  14.427  0.00  0.00    +0.005 C 
ENDBRANCH  34  35
ENDBRANCH  31  34
ENDBRANCH  29  30
ENDBRANCH  28  29
ENDBRANCH   1  28
TORSDOF 5
ENDMDL
MODEL 8
REMARK VINA RESULT:      -6.1      2.246      8.224
REMARK  Name = pdb/CHEMBL254555.pdb
REMARK                            x       y       z     vdW  Elec       q    Type
REMARK                         _______ _______ _______ _____ _____    ______ ____
ROOT
ATOM      1  C   LIG    1      -43.025  75.224  23.016  0.00  0.00    +0.093 C 
ATOM      2  C   LIG    1      -41.584  75.125  23.478  0.00  0.00    -0.004 A 
ATOM      3  C   LIG    1      -40.787  74.027  23.633  0.00  0.00    +0.052 A 
ATOM      4  C   LIG    1      -39.560  74.059  24.226  0.00  0.00    +0.013 A 
ATOM      5  C   LIG    1      -38.999  75.291  24.622  0.00  0.00    -0.008 A 
ATOM      6  C   LIG    1      -39.781  76.455  24.376  0.00  0.00    +0.050 A 
ATOM      7  C   LIG    1      -38.986  77.589  24.780  0.00  0.00    +0.245 C 
ATOM      8  O   LIG    1      -39.149  78.802  24.754  0.00  0.00    -0.270 OA
ATOM      9  N   LIG    1      -37.806  77.037  25.268  0.00  0.00    -0.307 N 
ATOM     10  H   LIG    1      -37.076  77.651  25.597  0.00  0.00    +0.149 HD
ATOM     11  C   LIG    1      -37.705  75.597  25.225  0.00  0.00    +0.141 C 
ATOM     12  C   LIG    1      -39.032  72.803  24.497  0.00  0.00    +0.008 A 
ATOM     13  C   LIG    1      -37.938  72.253  25.190  0.00  0.00    +0.010 A 
ATOM     14  C   LIG    1      -37.834  70.863  25.315  0.00  0.00    +0.001 A 
ATOM     15  C   LIG    1      -38.772  70.023  24.721  0.00  0.00    +0.002 A 
ATOM     16  C   LIG    1      -39.846  70.541  23.988  0.00  0.00    +0.026 A 
ATOM     17  C   LIG    1      -39.973  71.935  23.909  0.00  0.00    +0.047 A 
ATOM     18  N   LIG    1      -40.975  72.708  23.320  0.00  0.00    -0.354 N 
ATOM     19  H   LIG    1      -41.763  72.338  22.809  0.00  0.00    +0.166 HD
ATOM     20  C   LIG    1      -41.065  76.381  23.846  0.00  0.00    +0.001 A 
ATOM     21  C   LIG    1      -42.082  77.371  23.587  0.00  0.00    -0.013 A 
ATOM     22  C   LIG    1      -42.124  78.734  23.837  0.00  0.00    +0.009 A 
ATOM     23  C   LIG    1      -43.263  79.463  23.486  0.00  0.00    +0.001 A 
ATOM     24  C   LIG    1      -44.351  78.838  22.865  0.00  0.00    +0.000 A 
ATOM     25  C   LIG    1      -44.335  77.463  22.626  0.00  0.00    +0.005 A 
ATOM     26  C   LIG    1      -43.215  76.739  23.021  0.00  0.00    -0.029 A 
ENDROOT
BRANCH   1  28
ATOM     27  C   LIG    1      -43.619  74.597  25.457  0.00  0.00    +0.053 C 
ATOM     28  C   LIG    1      -44.036  74.512  23.978  0.00  0.00    +0.187 C 
BRANCH  28  29
ATOM     29  O   LIG    1      -44.151  73.120  23.573  0.00  0.00    -0.446 OA
BRANCH  29  30
ATOM     30  C   LIG    1      -44.298  72.871  22.245  0.00  0.00    +0.401 C 
ATOM     31  N   LIG    1      -45.448  73.459  21.812  0.00  0.00    -0.278 N 
ATOM     32  H   LIG    1      -46.003  73.956  22.485  0.00  0.00    +0.152 HD
ATOM     33  O   LIG    1      -43.526  72.250  21.546  0.00  0.00    -0.226 OA
BRANCH  31  34
ATOM     34  C   LIG    1      -45.858  73.417  20.436  0.00  0.00    +0.134 C 
BRANCH  34  35
ATOM     35  C   LIG    1      -45.715  74.803  19.901  0.00  0.00    -0.016 C 
ATOM     36  C   LIG    1      -44.559  75.346  19.497  0.00  0.00    +0.005 C 
ENDBRANCH  34  35
ENDBRANCH  31  34
ENDBRANCH  29  30
ENDBRANCH  28  29
ENDBRANCH   1  28
TORSDOF 5
ENDMDL
MODEL 9
REMARK VINA RESULT:      -6.1      1.701      2.624
REMARK  Name = pdb/CHEMBL254555.pdb
REMARK                            x       y       z     vdW  Elec       q    Type
REMARK                         _______ _______ _______ _____ _____    ______ ____
ROOT
ATOM      1  C   LIG    1      -38.043  74.963  24.712  0.00  0.00    +0.093 C 
ATOM      2  C   LIG    1      -39.347  75.561  24.220  0.00  0.00    -0.004 A 
ATOM      3  C   LIG    1      -39.688  76.866  24.014  0.00  0.00    +0.052 A 
ATOM      4  C   LIG    1      -40.956  77.283  23.736  0.00  0.00    +0.013 A 
ATOM      5  C   LIG    1      -41.983  76.337  23.540  0.00  0.00    -0.008 A 
ATOM      6  C   LIG    1      -41.617  74.966  23.657  0.00  0.00    +0.050 A 
ATOM      7  C   LIG    1      -42.790  74.188  23.340  0.00  0.00    +0.245 C 
ATOM      8  O   LIG    1      -43.025  72.990  23.251  0.00  0.00    -0.270 OA
ATOM      9  N   LIG    1      -43.781  75.131  23.088  0.00  0.00    -0.307 N 
ATOM     10  H   LIG    1      -44.703  74.816  22.824  0.00  0.00    +0.149 HD
ATOM     11  C   LIG    1      -43.390  76.518  23.192  0.00  0.00    +0.141 C 
ATOM     12  C   LIG    1      -41.124  78.661  23.804  0.00  0.00    +0.008 A 
ATOM     13  C   LIG    1      -42.180  79.591  23.766  0.00  0.00    +0.010 A 
ATOM     14  C   LIG    1      -41.908  80.945  23.992  0.00  0.00    +0.001 A 
ATOM     15  C   LIG    1      -40.604  81.383  24.206  0.00  0.00    +0.002 A 
ATOM     16  C   LIG    1      -39.529  80.487  24.205  0.00  0.00    +0.026 A 
ATOM     17  C   LIG    1      -39.813  79.125  24.028  0.00  0.00    +0.047 A 
ATOM     18  N   LIG    1      -38.957  78.023  24.062  0.00  0.00    -0.354 N 
ATOM     19  H   LIG    1      -37.956  78.074  24.186  0.00  0.00    +0.166 HD
ATOM     20  C   LIG    1      -40.333  74.576  24.024  0.00  0.00    +0.001 A 
ATOM     21  C   LIG    1      -39.733  73.292  24.297  0.00  0.00    -0.013 A 
ATOM     22  C   LIG    1      -40.272  72.015  24.331  0.00  0.00    +0.009 A 
ATOM     23  C   LIG    1      -39.448  70.929  24.641  0.00  0.00    +0.001 A 
ATOM     24  C   LIG    1      -38.084  71.115  24.894  0.00  0.00    +0.000 A 
ATOM     25  C   LIG    1      -37.530  72.396  24.885  0.00  0.00    +0.005 A 
ATOM     26  C   LIG    1      -38.368  73.474  24.621  0.00  0.00    -0.029 A 
ENDROOT
BRANCH   1  28
ATOM     27  C   LIG    1      -38.910  75.532  27.084  0.00  0.00    +0.053 C 
ATOM     28  C   LIG    1      -37.677  75.386  26.175  0.00  0.00    +0.187 C 
BRANCH  28  29
ATOM     29  O   LIG    1      -36.948  76.644  26.119  0.00  0.00    -0.446 OA
BRANCH  29  30
ATOM     30  C   LIG    1      -36.924  77.396  27.252  0.00  0.00    +0.401 C 
ATOM     31  N   LIG    1      -37.537  78.586  27.002  0.00  0.00    -0.278 N 
ATOM     32  H   LIG    1      -37.894  78.746  26.077  0.00  0.00    +0.152 HD
ATOM     33  O   LIG    1      -36.456  77.062  28.318  0.00  0.00    -0.226 OA
BRANCH  31  34
ATOM     34  C   LIG    1      -37.716  79.583  28.021  0.00  0.00    +0.134 C 
BRANCH  34  35
ATOM     35  C   LIG    1      -39.127  80.059  27.917  0.00  0.00    -0.016 C 
ATOM     36  C   LIG    1      -40.179  79.267  27.676  0.00  0.00    +0.005 C 
ENDBRANCH  34  35
ENDBRANCH  31  34
ENDBRANCH  29  30
ENDBRANCH  28  29
ENDBRANCH   1  28
TORSDOF 5
ENDMDL
