MODEL 1
REMARK VINA RESULT:      -6.0      0.000      0.000
REMARK  Name = pdb/CHEMBL3675972.pdb
REMARK                            x       y       z     vdW  Elec       q    Type
REMARK                         _______ _______ _______ _____ _____    ______ ____
ROOT
ATOM      1  C   LIG    1      -25.406  77.508  32.485  0.00  0.00    +0.100 A 
ATOM      2  C   LIG    1      -24.893  78.134  33.609  0.00  0.00    +0.170 A 
ATOM      3  N   LIG    1      -23.780  78.920  33.791  0.00  0.00    -0.212 NA
ATOM      4  C   LIG    1      -23.524  79.363  35.003  0.00  0.00    +0.126 A 
ATOM      5  C   LIG    1      -24.436  79.055  36.168  0.00  0.00    +0.063 A 
ATOM      6  C   LIG    1      -25.509  78.292  35.931  0.00  0.00    +0.118 A 
ATOM      7  N   LIG    1      -25.756  77.818  34.655  0.00  0.00    -0.221 N 
ATOM      8  N   LIG    1      -26.787  77.042  34.251  0.00  0.00    -0.173 NA
ATOM      9  C   LIG    1      -26.571  76.864  32.946  0.00  0.00    +0.150 A 
ENDROOT
BRANCH   4  10
ATOM     10  N   LIG    1      -22.393  80.134  35.222  0.00  0.00    -0.308 N 
ATOM     11  C   LIG    1      -21.157  79.594  35.810  0.00  0.00    +0.107 C 
ATOM     12  C   LIG    1      -20.617  80.766  36.647  0.00  0.00    +0.029 C 
ATOM     13  C   LIG    1      -21.078  81.998  35.890  0.00  0.00    +0.021 C 
ATOM     14  C   LIG    1      -22.445  81.590  35.361  0.00  0.00    +0.107 C 
BRANCH  11  15
ATOM     15  C   LIG    1      -20.191  79.131  34.737  0.00  0.00    -0.006 A 
ATOM     16  C   LIG    1      -20.533  79.037  33.380  0.00  0.00    +0.046 A 
ATOM     17  C   LIG    1      -19.597  78.593  32.457  0.00  0.00    +0.142 A 
ATOM     18  F   LIG    1      -19.926  78.490  31.163  0.00  0.00    -0.204 F 
ATOM     19  C   LIG    1      -18.331  78.258  32.895  0.00  0.00    +0.149 A 
ATOM     20  N   LIG    1      -17.946  78.344  34.190  0.00  0.00    -0.260 NA
ATOM     21  C   LIG    1      -18.884  78.775  35.071  0.00  0.00    +0.116 A 
ENDBRANCH  11  15
ENDBRANCH   4  10
BRANCH   1  24
ATOM     22  N   LIG    1      -23.504  77.585  31.072  0.00  0.00    -0.308 N 
ATOM     23  H   LIG    1      -22.993  77.495  31.950  0.00  0.00    +0.149 HD
ATOM     24  C   LIG    1      -24.877  77.521  31.136  0.00  0.00    +0.249 C 
ATOM     25  O   LIG    1      -25.593  77.477  30.147  0.00  0.00    -0.270 OA
BRANCH  22  26
ATOM     26  C   LIG    1      -22.790  77.636  29.815  0.00  0.00    +0.142 C 
BRANCH  26  28
ATOM     27  F   LIG    1      -20.861  76.639  28.912  0.00  0.00    -0.243 F 
ATOM     28  C   LIG    1      -22.044  76.335  29.534  0.00  0.00    +0.197 C 
BRANCH  28  29
ATOM     29  C   LIG    1      -21.716  75.541  30.788  0.00  0.00    +0.147 C 
ATOM     30 CL   LIG    1      -19.970  75.292  31.004  0.00  0.00    -0.122 Cl
ENDBRANCH  28  29
ENDBRANCH  26  28
ENDBRANCH  22  26
ENDBRANCH   1  24
TORSDOF 6
ENDMDL
MODEL 2
REMARK VINA RESULT:      -5.5     18.401     21.301
REMARK  Name = pdb/CHEMBL3675972.pdb
REMARK                            x       y       z     vdW  Elec       q    Type
REMARK                         _______ _______ _______ _____ _____    ______ ____
ROOT
ATOM      1  C   LIG    1      -18.470  85.398  13.154  0.00  0.00    +0.100 A 
ATOM      2  C   LIG    1      -18.789  84.078  13.430  0.00  0.00    +0.170 A 
ATOM      3  N   LIG    1      -19.829  83.515  14.131  0.00  0.00    -0.212 NA
ATOM      4  C   LIG    1      -19.858  82.206  14.254  0.00  0.00    +0.126 A 
ATOM      5  C   LIG    1      -18.804  81.327  13.619  0.00  0.00    +0.063 A 
ATOM      6  C   LIG    1      -17.821  81.929  12.942  0.00  0.00    +0.118 A 
ATOM      7  N   LIG    1      -17.792  83.308  12.836  0.00  0.00    -0.221 N 
ATOM      8  N   LIG    1      -16.875  84.065  12.192  0.00  0.00    -0.173 NA
ATOM      9  C   LIG    1      -17.293  85.318  12.386  0.00  0.00    +0.150 A 
ENDROOT
BRANCH   4  10
ATOM     10  N   LIG    1      -20.878  81.611  14.980  0.00  0.00    -0.308 N 
ATOM     11  C   LIG    1      -22.091  82.332  15.396  0.00  0.00    +0.107 C 
ATOM     12  C   LIG    1      -22.422  81.716  16.765  0.00  0.00    +0.029 C 
ATOM     13  C   LIG    1      -21.926  80.286  16.652  0.00  0.00    +0.021 C 
ATOM     14  C   LIG    1      -20.670  80.419  15.804  0.00  0.00    +0.107 C 
BRANCH  11  15
ATOM     15  C   LIG    1      -23.207  82.168  14.382  0.00  0.00    -0.006 A 
ATOM     16  C   LIG    1      -23.230  82.832  13.147  0.00  0.00    +0.046 A 
ATOM     17  C   LIG    1      -24.292  82.639  12.275  0.00  0.00    +0.142 A 
ATOM     18  F   LIG    1      -24.322  83.282  11.100  0.00  0.00    -0.204 F 
ATOM     19  C   LIG    1      -25.311  81.782  12.639  0.00  0.00    +0.149 A 
ATOM     20  N   LIG    1      -25.330  81.108  13.812  0.00  0.00    -0.260 NA
ATOM     21  C   LIG    1      -24.283  81.320  14.648  0.00  0.00    +0.116 A 
ENDBRANCH  11  15
ENDBRANCH   4  10
BRANCH   1  24
ATOM     22  N   LIG    1      -20.305  86.346  14.317  0.00  0.00    -0.308 N 
ATOM     23  H   LIG    1      -20.451  85.387  14.633  0.00  0.00    +0.149 HD
ATOM     24  C   LIG    1      -19.190  86.592  13.550  0.00  0.00    +0.249 C 
ATOM     25  O   LIG    1      -18.831  87.714  13.230  0.00  0.00    -0.270 OA
BRANCH  22  26
ATOM     26  C   LIG    1      -21.170  87.406  14.787  0.00  0.00    +0.142 C 
BRANCH  26  28
ATOM     27  F   LIG    1      -22.679  88.646  13.476  0.00  0.00    -0.243 F 
ATOM     28  C   LIG    1      -22.507  87.414  14.053  0.00  0.00    +0.197 C 
BRANCH  28  29
ATOM     29  C   LIG    1      -22.602  86.370  12.953  0.00  0.00    +0.147 C 
ATOM     30 CL   LIG    1      -24.178  86.382  12.132  0.00  0.00    -0.122 Cl
ENDBRANCH  28  29
ENDBRANCH  26  28
ENDBRANCH  22  26
ENDBRANCH   1  24
TORSDOF 6
ENDMDL
MODEL 3
REMARK VINA RESULT:      -5.4      2.973      5.298
REMARK  Name = pdb/CHEMBL3675972.pdb
REMARK                            x       y       z     vdW  Elec       q    Type
REMARK                         _______ _______ _______ _____ _____    ______ ____
ROOT
ATOM      1  C   LIG    1      -22.890  76.859  30.508  0.00  0.00    +0.100 A 
ATOM      2  C   LIG    1      -21.971  77.440  31.366  0.00  0.00    +0.170 A 
ATOM      3  N   LIG    1      -22.117  78.043  32.593  0.00  0.00    -0.212 NA
ATOM      4  C   LIG    1      -21.045  78.538  33.174  0.00  0.00    +0.126 A 
ATOM      5  C   LIG    1      -19.678  78.427  32.539  0.00  0.00    +0.063 A 
ATOM      6  C   LIG    1      -19.594  77.824  31.349  0.00  0.00    +0.118 A 
ATOM      7  N   LIG    1      -20.731  77.324  30.741  0.00  0.00    -0.221 N 
ATOM      8  N   LIG    1      -20.818  76.691  29.549  0.00  0.00    -0.173 NA
ATOM      9  C   LIG    1      -22.116  76.414  29.419  0.00  0.00    +0.150 A 
ENDROOT
BRANCH   4  10
ATOM     10  N   LIG    1      -21.167  79.177  34.398  0.00  0.00    -0.308 N 
ATOM     11  C   LIG    1      -22.277  80.086  34.721  0.00  0.00    +0.107 C 
ATOM     12  C   LIG    1      -21.621  81.149  35.619  0.00  0.00    +0.029 C 
ATOM     13  C   LIG    1      -20.520  80.390  36.337  0.00  0.00    +0.021 C 
ATOM     14  C   LIG    1      -20.024  79.414  35.281  0.00  0.00    +0.107 C 
BRANCH  11  15
ATOM     15  C   LIG    1      -23.414  79.348  35.402  0.00  0.00    -0.006 A 
ATOM     16  C   LIG    1      -24.656  79.936  35.684  0.00  0.00    +0.046 A 
ATOM     17  C   LIG    1      -25.644  79.199  36.321  0.00  0.00    +0.142 A 
ATOM     18  F   LIG    1      -26.826  79.763  36.602  0.00  0.00    -0.204 F 
ATOM     19  C   LIG    1      -25.388  77.885  36.658  0.00  0.00    +0.149 A 
ATOM     20  N   LIG    1      -24.213  77.267  36.396  0.00  0.00    -0.260 NA
ATOM     21  C   LIG    1      -23.262  78.013  35.779  0.00  0.00    +0.116 A 
ENDBRANCH  11  15
ENDBRANCH   4  10
BRANCH   1  24
ATOM     22  N   LIG    1      -24.680  76.073  31.849  0.00  0.00    -0.308 N 
ATOM     23  H   LIG    1      -23.935  75.859  32.513  0.00  0.00    +0.149 HD
ATOM     24  C   LIG    1      -24.321  76.725  30.692  0.00  0.00    +0.249 C 
ATOM     25  O   LIG    1      -25.132  77.157  29.887  0.00  0.00    -0.270 OA
BRANCH  22  26
ATOM     26  C   LIG    1      -26.061  75.816  32.196  0.00  0.00    +0.142 C 
BRANCH  26  28
ATOM     27  F   LIG    1      -25.820  77.818  33.409  0.00  0.00    -0.243 F 
ATOM     28  C   LIG    1      -26.499  76.627  33.413  0.00  0.00    +0.197 C 
BRANCH  28  29
ATOM     29  C   LIG    1      -27.986  76.942  33.428  0.00  0.00    +0.147 C 
ATOM     30 CL   LIG    1      -28.735  76.790  31.825  0.00  0.00    -0.122 Cl
ENDBRANCH  28  29
ENDBRANCH  26  28
ENDBRANCH  22  26
ENDBRANCH   1  24
TORSDOF 6
ENDMDL
MODEL 4
REMARK VINA RESULT:      -5.2      2.853      5.210
REMARK  Name = pdb/CHEMBL3675972.pdb
REMARK                            x       y       z     vdW  Elec       q    Type
REMARK                         _______ _______ _______ _____ _____    ______ ____
ROOT
ATOM      1  C   LIG    1      -24.183  77.948  32.059  0.00  0.00    +0.100 A 
ATOM      2  C   LIG    1      -22.958  77.579  31.530  0.00  0.00    +0.170 A 
ATOM      3  N   LIG    1      -21.678  77.683  32.023  0.00  0.00    -0.212 NA
ATOM      4  C   LIG    1      -20.686  77.262  31.269  0.00  0.00    +0.126 A 
ATOM      5  C   LIG    1      -20.929  76.647  29.909  0.00  0.00    +0.063 A 
ATOM      6  C   LIG    1      -22.194  76.564  29.484  0.00  0.00    +0.118 A 
ATOM      7  N   LIG    1      -23.227  77.027  30.280  0.00  0.00    -0.221 N 
ATOM      8  N   LIG    1      -24.550  77.016  30.000  0.00  0.00    -0.173 NA
ATOM      9  C   LIG    1      -25.116  77.568  31.075  0.00  0.00    +0.150 A 
ENDROOT
BRANCH   4  10
ATOM     10  N   LIG    1      -19.383  77.381  31.727  0.00  0.00    -0.308 N 
ATOM     11  C   LIG    1      -18.986  78.331  32.778  0.00  0.00    +0.107 C 
ATOM     12  C   LIG    1      -17.574  78.765  32.353  0.00  0.00    +0.029 C 
ATOM     13  C   LIG    1      -17.013  77.544  31.647  0.00  0.00    +0.021 C 
ATOM     14  C   LIG    1      -18.226  76.969  30.931  0.00  0.00    +0.107 C 
BRANCH  11  15
ATOM     15  C   LIG    1      -19.027  77.686  34.149  0.00  0.00    -0.006 A 
ATOM     16  C   LIG    1      -19.510  76.390  34.378  0.00  0.00    +0.046 A 
ATOM     17  C   LIG    1      -19.526  75.872  35.666  0.00  0.00    +0.142 A 
ATOM     18  F   LIG    1      -19.999  74.639  35.888  0.00  0.00    -0.204 F 
ATOM     19  C   LIG    1      -19.052  76.646  36.706  0.00  0.00    +0.149 A 
ATOM     20  N   LIG    1      -18.563  77.897  36.537  0.00  0.00    -0.260 NA
ATOM     21  C   LIG    1      -18.565  78.381  35.269  0.00  0.00    +0.116 A 
ENDBRANCH  11  15
ENDBRANCH   4  10
BRANCH   1  24
ATOM     22  N   LIG    1      -23.485  79.466  33.741  0.00  0.00    -0.308 N 
ATOM     23  H   LIG    1      -22.754  79.696  33.068  0.00  0.00    +0.149 HD
ATOM     24  C   LIG    1      -24.450  78.572  33.340  0.00  0.00    +0.249 C 
ATOM     25  O   LIG    1      -25.449  78.323  33.998  0.00  0.00    -0.270 OA
BRANCH  22  26
ATOM     26  C   LIG    1      -23.559  80.169  35.003  0.00  0.00    +0.142 C 
BRANCH  26  28
ATOM     27  F   LIG    1      -21.853  78.665  35.601  0.00  0.00    -0.243 F 
ATOM     28  C   LIG    1      -22.320  79.927  35.861  0.00  0.00    +0.197 C 
BRANCH  28  29
ATOM     29  C   LIG    1      -21.190  80.905  35.585  0.00  0.00    +0.147 C 
ATOM     30 CL   LIG    1      -20.176  81.201  37.014  0.00  0.00    -0.122 Cl
ENDBRANCH  28  29
ENDBRANCH  26  28
ENDBRANCH  22  26
ENDBRANCH   1  24
TORSDOF 6
ENDMDL
MODEL 5
REMARK VINA RESULT:      -5.2     13.025     15.867
REMARK  Name = pdb/CHEMBL3675972.pdb
REMARK                            x       y       z     vdW  Elec       q    Type
REMARK                         _______ _______ _______ _____ _____    ______ ____
ROOT
ATOM      1  C   LIG    1      -38.876  73.675  24.771  0.00  0.00    +0.100 A 
ATOM      2  C   LIG    1      -38.364  74.689  25.563  0.00  0.00    +0.170 A 
ATOM      3  N   LIG    1      -37.324  74.712  26.463  0.00  0.00    -0.212 NA
ATOM      4  C   LIG    1      -37.080  75.835  27.102  0.00  0.00    +0.126 A 
ATOM      5  C   LIG    1      -37.889  77.086  26.843  0.00  0.00    +0.063 A 
ATOM      6  C   LIG    1      -38.883  77.008  25.952  0.00  0.00    +0.118 A 
ATOM      7  N   LIG    1      -39.140  75.815  25.300  0.00  0.00    -0.221 N 
ATOM      8  N   LIG    1      -40.100  75.571  24.379  0.00  0.00    -0.173 NA
ATOM      9  C   LIG    1      -39.931  74.285  24.065  0.00  0.00    +0.150 A 
ENDROOT
BRANCH   4  10
ATOM     10  N   LIG    1      -36.057  75.880  28.035  0.00  0.00    -0.308 N 
ATOM     11  C   LIG    1      -34.642  75.681  27.684  0.00  0.00    +0.107 C 
ATOM     12  C   LIG    1      -34.068  74.950  28.909  0.00  0.00    +0.029 C 
ATOM     13  C   LIG    1      -34.894  75.476  30.069  0.00  0.00    +0.021 C 
ATOM     14  C   LIG    1      -36.279  75.642  29.463  0.00  0.00    +0.107 C 
BRANCH  11  15
ATOM     15  C   LIG    1      -33.953  77.002  27.400  0.00  0.00    -0.006 A 
ATOM     16  C   LIG    1      -34.304  78.206  28.026  0.00  0.00    +0.046 A 
ATOM     17  C   LIG    1      -33.634  79.378  27.705  0.00  0.00    +0.142 A 
ATOM     18  F   LIG    1      -33.977  80.531  28.293  0.00  0.00    -0.204 F 
ATOM     19  C   LIG    1      -32.617  79.334  26.772  0.00  0.00    +0.149 A 
ATOM     20  N   LIG    1      -32.230  78.196  26.149  0.00  0.00    -0.260 NA
ATOM     21  C   LIG    1      -32.907  77.067  26.477  0.00  0.00    +0.116 A 
ENDBRANCH  11  15
ENDBRANCH   4  10
BRANCH   1  24
ATOM     22  N   LIG    1      -37.171  72.086  25.201  0.00  0.00    -0.308 N 
ATOM     23  H   LIG    1      -36.739  72.859  25.707  0.00  0.00    +0.149 HD
ATOM     24  C   LIG    1      -38.424  72.302  24.675  0.00  0.00    +0.249 C 
ATOM     25  O   LIG    1      -39.101  71.419  24.172  0.00  0.00    -0.270 OA
BRANCH  22  26
ATOM     26  C   LIG    1      -36.535  70.787  25.175  0.00  0.00    +0.142 C 
BRANCH  26  28
ATOM     27  F   LIG    1      -34.220  70.953  25.558  0.00  0.00    -0.243 F 
ATOM     28  C   LIG    1      -35.404  70.689  26.196  0.00  0.00    +0.197 C 
BRANCH  28  29
ATOM     29  C   LIG    1      -35.539  71.672  27.347  0.00  0.00    +0.147 C 
ATOM     30 CL   LIG    1      -34.353  71.381  28.638  0.00  0.00    -0.122 Cl
ENDBRANCH  28  29
ENDBRANCH  26  28
ENDBRANCH  22  26
ENDBRANCH   1  24
TORSDOF 6
ENDMDL
MODEL 6
REMARK VINA RESULT:      -5.1     18.455     21.523
REMARK  Name = pdb/CHEMBL3675972.pdb
REMARK                            x       y       z     vdW  Elec       q    Type
REMARK                         _______ _______ _______ _____ _____    ______ ____
ROOT
ATOM      1  C   LIG    1      -18.706  82.582  13.831  0.00  0.00    +0.100 A 
ATOM      2  C   LIG    1      -18.960  83.922  13.596  0.00  0.00    +0.170 A 
ATOM      3  N   LIG    1      -20.053  84.710  13.875  0.00  0.00    -0.212 NA
ATOM      4  C   LIG    1      -20.021  85.971  13.502  0.00  0.00    +0.126 A 
ATOM      5  C   LIG    1      -18.812  86.564  12.815  0.00  0.00    +0.063 A 
ATOM      6  C   LIG    1      -17.776  85.754  12.576  0.00  0.00    +0.118 A 
ATOM      7  N   LIG    1      -17.830  84.425  12.957  0.00  0.00    -0.221 N 
ATOM      8  N   LIG    1      -16.875  83.481  12.790  0.00  0.00    -0.173 NA
ATOM      9  C   LIG    1      -17.409  82.379  13.320  0.00  0.00    +0.150 A 
ENDROOT
BRANCH   4  10
ATOM     10  N   LIG    1      -21.119  86.781  13.745  0.00  0.00    -0.308 N 
ATOM     11  C   LIG    1      -21.772  87.581  12.696  0.00  0.00    +0.107 C 
ATOM     12  C   LIG    1      -22.216  88.851  13.439  0.00  0.00    +0.029 C 
ATOM     13  C   LIG    1      -22.499  88.369  14.851  0.00  0.00    +0.021 C 
ATOM     14  C   LIG    1      -21.435  87.305  15.074  0.00  0.00    +0.107 C 
BRANCH  11  15
ATOM     15  C   LIG    1      -22.925  86.825  12.063  0.00  0.00    -0.006 A 
ATOM     16  C   LIG    1      -23.333  85.550  12.481  0.00  0.00    +0.046 A 
ATOM     17  C   LIG    1      -24.390  84.916  11.844  0.00  0.00    +0.142 A 
ATOM     18  F   LIG    1      -24.774  83.693  12.233  0.00  0.00    -0.204 F 
ATOM     19  C   LIG    1      -25.033  85.563  10.807  0.00  0.00    +0.149 A 
ATOM     20  N   LIG    1      -24.687  86.798  10.375  0.00  0.00    -0.260 NA
ATOM     21  C   LIG    1      -23.646  87.391  11.011  0.00  0.00    +0.116 A 
ENDBRANCH  11  15
ENDBRANCH   4  10
BRANCH   1  24
ATOM     22  N   LIG    1      -20.237  82.087  15.572  0.00  0.00    -0.308 N 
ATOM     23  H   LIG    1      -20.164  83.086  15.762  0.00  0.00    +0.149 HD
ATOM     24  C   LIG    1      -19.568  81.607  14.469  0.00  0.00    +0.249 C 
ATOM     25  O   LIG    1      -19.688  80.464  14.057  0.00  0.00    -0.270 OA
BRANCH  22  26
ATOM     26  C   LIG    1      -21.123  81.258  16.360  0.00  0.00    +0.142 C 
BRANCH  26  28
ATOM     27  F   LIG    1      -22.453  83.196  16.448  0.00  0.00    -0.243 F 
ATOM     28  C   LIG    1      -22.537  81.829  16.409  0.00  0.00    +0.197 C 
BRANCH  28  29
ATOM     29  C   LIG    1      -23.386  81.452  15.206  0.00  0.00    +0.147 C 
ATOM     30 CL   LIG    1      -24.226  79.901  15.419  0.00  0.00    -0.122 Cl
ENDBRANCH  28  29
ENDBRANCH  26  28
ENDBRANCH  22  26
ENDBRANCH   1  24
TORSDOF 6
ENDMDL
MODEL 7
REMARK VINA RESULT:      -5.0     18.251     20.698
REMARK  Name = pdb/CHEMBL3675972.pdb
REMARK                            x       y       z     vdW  Elec       q    Type
REMARK                         _______ _______ _______ _____ _____    ______ ____
ROOT
ATOM      1  C   LIG    1      -24.584  80.740  14.132  0.00  0.00    +0.100 A 
ATOM      2  C   LIG    1      -23.343  81.202  14.535  0.00  0.00    +0.170 A 
ATOM      3  N   LIG    1      -22.500  82.148  14.001  0.00  0.00    -0.212 NA
ATOM      4  C   LIG    1      -21.348  82.362  14.598  0.00  0.00    +0.126 A 
ATOM      5  C   LIG    1      -20.959  81.622  15.858  0.00  0.00    +0.063 A 
ATOM      6  C   LIG    1      -21.821  80.719  16.337  0.00  0.00    +0.118 A 
ATOM      7  N   LIG    1      -23.021  80.490  15.688  0.00  0.00    -0.221 N 
ATOM      8  N   LIG    1      -23.994  79.619  16.039  0.00  0.00    -0.173 NA
ATOM      9  C   LIG    1      -24.930  79.779  15.101  0.00  0.00    +0.150 A 
ENDROOT
BRANCH   4  10
ATOM     10  N   LIG    1      -20.465  83.289  14.066  0.00  0.00    -0.308 N 
ATOM     11  C   LIG    1      -20.867  84.303  13.079  0.00  0.00    +0.107 C 
ATOM     12  C   LIG    1      -19.627  84.438  12.180  0.00  0.00    +0.029 C 
ATOM     13  C   LIG    1      -18.465  84.151  13.114  0.00  0.00    +0.021 C 
ATOM     14  C   LIG    1      -19.018  83.073  14.035  0.00  0.00    +0.107 C 
BRANCH  11  15
ATOM     15  C   LIG    1      -21.261  85.603  13.752  0.00  0.00    -0.006 A 
ATOM     16  C   LIG    1      -20.768  86.856  13.360  0.00  0.00    +0.046 A 
ATOM     17  C   LIG    1      -21.167  88.002  14.033  0.00  0.00    +0.142 A 
ATOM     18  F   LIG    1      -20.687  89.197  13.667  0.00  0.00    -0.204 F 
ATOM     19  C   LIG    1      -22.060  87.887  15.080  0.00  0.00    +0.149 A 
ATOM     20  N   LIG    1      -22.576  86.705  15.489  0.00  0.00    -0.260 NA
ATOM     21  C   LIG    1      -22.163  85.600  14.818  0.00  0.00    +0.116 A 
ENDBRANCH  11  15
ENDBRANCH   4  10
BRANCH   1  24
ATOM     22  N   LIG    1      -25.335  82.513  12.749  0.00  0.00    -0.308 N 
ATOM     23  H   LIG    1      -24.692  83.070  13.312  0.00  0.00    +0.149 HD
ATOM     24  C   LIG    1      -25.362  81.157  12.982  0.00  0.00    +0.249 C 
ATOM     25  O   LIG    1      -25.982  80.369  12.285  0.00  0.00    -0.270 OA
BRANCH  22  26
ATOM     26  C   LIG    1      -26.072  83.126  11.665  0.00  0.00    +0.142 C 
BRANCH  26  28
ATOM     27  F   LIG    1      -25.866  84.776  10.001  0.00  0.00    -0.243 F 
ATOM     28  C   LIG    1      -25.145  83.823  10.673  0.00  0.00    +0.197 C 
BRANCH  28  29
ATOM     29  C   LIG    1      -23.962  84.515  11.331  0.00  0.00    +0.147 C 
ATOM     30 CL   LIG    1      -24.369  86.134  11.939  0.00  0.00    -0.122 Cl
ENDBRANCH  28  29
ENDBRANCH  26  28
ENDBRANCH  22  26
ENDBRANCH   1  24
TORSDOF 6
ENDMDL
MODEL 8
REMARK VINA RESULT:      -5.0     20.938     23.020
REMARK  Name = pdb/CHEMBL3675972.pdb
REMARK                            x       y       z     vdW  Elec       q    Type
REMARK                         _______ _______ _______ _____ _____    ______ ____
ROOT
ATOM      1  C   LIG    1      -31.724  93.840  22.778  0.00  0.00    +0.100 A 
ATOM      2  C   LIG    1      -32.207  93.464  21.535  0.00  0.00    +0.170 A 
ATOM      3  N   LIG    1      -33.320  92.748  21.164  0.00  0.00    -0.212 NA
ATOM      4  C   LIG    1      -33.512  92.518  19.883  0.00  0.00    +0.126 A 
ATOM      5  C   LIG    1      -32.562  93.048  18.832  0.00  0.00    +0.063 A 
ATOM      6  C   LIG    1      -31.500  93.744  19.250  0.00  0.00    +0.118 A 
ATOM      7  N   LIG    1      -31.301  93.963  20.602  0.00  0.00    -0.221 N 
ATOM      8  N   LIG    1      -30.287  94.641  21.185  0.00  0.00    -0.173 NA
ATOM      9  C   LIG    1      -30.551  94.565  22.491  0.00  0.00    +0.150 A 
ENDROOT
BRANCH   4  10
ATOM     10  N   LIG    1      -34.610  91.775  19.480  0.00  0.00    -0.308 N 
ATOM     11  C   LIG    1      -35.146  91.814  18.110  0.00  0.00    +0.107 C 
ATOM     12  C   LIG    1      -36.662  91.660  18.315  0.00  0.00    +0.029 C 
ATOM     13  C   LIG    1      -36.777  90.802  19.562  0.00  0.00    +0.021 C 
ATOM     14  C   LIG    1      -35.616  91.280  20.421  0.00  0.00    +0.107 C 
BRANCH  11  15
ATOM     15  C   LIG    1      -34.545  90.720  17.250  0.00  0.00    -0.006 A 
ATOM     16  C   LIG    1      -33.885  89.600  17.776  0.00  0.00    +0.046 A 
ATOM     17  C   LIG    1      -33.349  88.646  16.923  0.00  0.00    +0.142 A 
ATOM     18  F   LIG    1      -32.708  87.582  17.423  0.00  0.00    -0.204 F 
ATOM     19  C   LIG    1      -33.486  88.813  15.559  0.00  0.00    +0.149 A 
ATOM     20  N   LIG    1      -34.125  89.868  15.001  0.00  0.00    -0.260 NA
ATOM     21  C   LIG    1      -34.633  90.789  15.858  0.00  0.00    +0.116 A 
ENDBRANCH  11  15
ENDBRANCH   4  10
BRANCH   1  24
ATOM     22  N   LIG    1      -33.636  93.243  24.045  0.00  0.00    -0.308 N 
ATOM     23  H   LIG    1      -34.060  93.110  23.127  0.00  0.00    +0.149 HD
ATOM     24  C   LIG    1      -32.299  93.565  24.079  0.00  0.00    +0.249 C 
ATOM     25  O   LIG    1      -31.648  93.615  25.111  0.00  0.00    -0.270 OA
BRANCH  22  26
ATOM     26  C   LIG    1      -34.395  92.963  25.245  0.00  0.00    +0.142 C 
BRANCH  26  28
ATOM     27  F   LIG    1      -34.942  95.251  25.229  0.00  0.00    -0.243 F 
ATOM     28  C   LIG    1      -35.473  94.015  25.492  0.00  0.00    +0.197 C 
BRANCH  28  29
ATOM     29  C   LIG    1      -36.702  93.843  24.614  0.00  0.00    +0.147 C 
ATOM     30 CL   LIG    1      -36.947  92.159  24.102  0.00  0.00    -0.122 Cl
ENDBRANCH  28  29
ENDBRANCH  26  28
ENDBRANCH  22  26
ENDBRANCH   1  24
TORSDOF 6
ENDMDL
MODEL 9
REMARK VINA RESULT:      -5.0     18.600     21.273
REMARK  Name = pdb/CHEMBL3675972.pdb
REMARK                            x       y       z     vdW  Elec       q    Type
REMARK                         _______ _______ _______ _____ _____    ______ ____
ROOT
ATOM      1  C   LIG    1      -24.796  82.578  12.146  0.00  0.00    +0.100 A 
ATOM      2  C   LIG    1      -24.244  83.818  11.871  0.00  0.00    +0.170 A 
ATOM      3  N   LIG    1      -23.519  84.690  12.649  0.00  0.00    -0.212 NA
ATOM      4  C   LIG    1      -23.142  85.832  12.115  0.00  0.00    +0.126 A 
ATOM      5  C   LIG    1      -23.459  86.178  10.678  0.00  0.00    +0.063 A 
ATOM      6  C   LIG    1      -24.160  85.289   9.967  0.00  0.00    +0.118 A 
ATOM      7  N   LIG    1      -24.566  84.100  10.546  0.00  0.00    -0.221 N 
ATOM      8  N   LIG    1      -25.275  83.103   9.969  0.00  0.00    -0.173 NA
ATOM      9  C   LIG    1      -25.406  82.193  10.936  0.00  0.00    +0.150 A 
ENDROOT
BRANCH   4  10
ATOM     10  N   LIG    1      -22.434  86.743  12.883  0.00  0.00    -0.308 N 
ATOM     11  C   LIG    1      -21.605  86.349  14.034  0.00  0.00    +0.107 C 
ATOM     12  C   LIG    1      -21.779  87.518  15.017  0.00  0.00    +0.029 C 
ATOM     13  C   LIG    1      -21.987  88.724  14.119  0.00  0.00    +0.021 C 
ATOM     14  C   LIG    1      -22.796  88.159  12.961  0.00  0.00    +0.107 C 
BRANCH  11  15
ATOM     15  C   LIG    1      -20.163  86.123  13.623  0.00  0.00    -0.006 A 
ATOM     16  C   LIG    1      -19.581  84.852  13.518  0.00  0.00    +0.046 A 
ATOM     17  C   LIG    1      -18.250  84.726  13.147  0.00  0.00    +0.142 A 
ATOM     18  F   LIG    1      -17.689  83.513  13.059  0.00  0.00    -0.204 F 
ATOM     19  C   LIG    1      -17.519  85.866  12.876  0.00  0.00    +0.149 A 
ATOM     20  N   LIG    1      -18.036  87.114  12.949  0.00  0.00    -0.260 NA
ATOM     21  C   LIG    1      -19.338  87.208  13.321  0.00  0.00    +0.116 A 
ENDBRANCH  11  15
ENDBRANCH   4  10
BRANCH   1  24
ATOM     22  N   LIG    1      -23.742  82.230  14.240  0.00  0.00    -0.308 N 
ATOM     23  H   LIG    1      -23.216  83.065  13.983  0.00  0.00    +0.149 HD
ATOM     24  C   LIG    1      -24.748  81.835  13.389  0.00  0.00    +0.249 C 
ATOM     25  O   LIG    1      -25.536  80.939  13.652  0.00  0.00    -0.270 OA
BRANCH  22  26
ATOM     26  C   LIG    1      -23.514  81.590  15.518  0.00  0.00    +0.142 C 
BRANCH  26  28
ATOM     27  F   LIG    1      -22.627  82.339  17.563  0.00  0.00    -0.243 F 
ATOM     28  C   LIG    1      -22.307  82.181  16.240  0.00  0.00    +0.197 C 
BRANCH  28  29
ATOM     29  C   LIG    1      -21.066  81.306  16.165  0.00  0.00    +0.147 C 
ATOM     30 CL   LIG    1      -20.151  81.543  14.661  0.00  0.00    -0.122 Cl
ENDBRANCH  28  29
ENDBRANCH  26  28
ENDBRANCH  22  26
ENDBRANCH   1  24
TORSDOF 6
ENDMDL
