MODEL 1
REMARK VINA RESULT:      -5.7      0.000      0.000
REMARK  Name = pdb/CHEMBL3676027.pdb
REMARK                            x       y       z     vdW  Elec       q    Type
REMARK                         _______ _______ _______ _____ _____    ______ ____
ROOT
ATOM      1  C   LIG    1      -21.601  82.735  11.928  0.00  0.00    +0.126 A 
ATOM      2  N   LIG    1      -20.923  83.683  12.555  0.00  0.00    -0.212 NA
ATOM      3  C   LIG    1      -19.550  83.676  12.455  0.00  0.00    +0.170 A 
ATOM      4  C   LIG    1      -18.569  84.597  12.820  0.00  0.00    +0.100 A 
ATOM      5  C   LIG    1      -17.354  83.944  12.535  0.00  0.00    +0.150 A 
ATOM      6  N   LIG    1      -17.518  82.744  11.979  0.00  0.00    -0.173 NA
ATOM      7  N   LIG    1      -18.861  82.631  11.844  0.00  0.00    -0.221 N 
ATOM      8  C   LIG    1      -19.554  81.687  11.112  0.00  0.00    +0.118 A 
ATOM      9  C   LIG    1      -20.888  81.746  11.033  0.00  0.00    +0.063 A 
ENDROOT
BRANCH   1  11
ATOM     10  C   LIG    1      -23.712  81.532  12.802  0.00  0.00    +0.110 C 
ATOM     11  N   LIG    1      -22.980  82.633  12.130  0.00  0.00    -0.308 N 
ATOM     12  C   LIG    1      -23.918  83.523  11.433  0.00  0.00    +0.107 C 
ATOM     13  C   LIG    1      -25.250  82.783  11.442  0.00  0.00    +0.021 C 
ATOM     14  C   LIG    1      -25.190  81.938  12.698  0.00  0.00    +0.029 C 
BRANCH  10  16
ATOM     15  C   LIG    1      -22.928  79.956  14.642  0.00  0.00    +0.220 A 
ATOM     16  C   LIG    1      -23.321  81.244  14.241  0.00  0.00    +0.037 A 
ATOM     17  C   LIG    1      -23.254  82.247  15.222  0.00  0.00    +0.050 A 
ATOM     18  C   LIG    1      -22.674  81.976  16.452  0.00  0.00    +0.142 A 
ATOM     19  F   LIG    1      -22.483  82.957  17.341  0.00  0.00    -0.204 F 
ATOM     20  C   LIG    1      -22.249  80.693  16.722  0.00  0.00    +0.153 A 
ATOM     21  N   LIG    1      -22.389  79.672  15.852  0.00  0.00    -0.218 NA
BRANCH  15  23
ATOM     22  C   LIG    1      -24.027  77.920  14.223  0.00  0.00    +0.279 C 
ATOM     23  O   LIG    1      -23.109  78.911  13.756  0.00  0.00    -0.479 OA
ENDBRANCH  15  23
ENDBRANCH  10  16
ENDBRANCH   1  11
BRANCH   4  24
ATOM     24  C   LIG    1      -18.724  85.946  13.334  0.00  0.00    +0.249 C 
ATOM     25  N   LIG    1      -19.849  86.114  14.104  0.00  0.00    -0.309 N 
ATOM     26  H   LIG    1      -20.365  85.281  14.399  0.00  0.00    +0.149 HD
ATOM     27  O   LIG    1      -17.953  86.845  13.055  0.00  0.00    -0.270 OA
BRANCH  25  28
ATOM     28  C   LIG    1      -20.218  87.380  14.697  0.00  0.00    +0.135 C 
BRANCH  28  29
ATOM     29  C   LIG    1      -21.633  87.310  15.279  0.00  0.00    +0.128 C 
ATOM     30  C   LIG    1      -22.505  88.430  14.737  0.00  0.00    +0.039 C 
BRANCH  29  31
ATOM     31  O   LIG    1      -21.569  87.418  16.707  0.00  0.00    -0.391 OA
ATOM     32  H   LIG    1      -21.977  88.267  16.947  0.00  0.00    +0.210 HD
ENDBRANCH  29  31
ENDBRANCH  28  29
ENDBRANCH  25  28
ENDBRANCH   4  24
TORSDOF 7
ENDMDL
MODEL 2
REMARK VINA RESULT:      -5.5     19.033     22.047
REMARK  Name = pdb/CHEMBL3676027.pdb
REMARK                            x       y       z     vdW  Elec       q    Type
REMARK                         _______ _______ _______ _____ _____    ______ ____
ROOT
ATOM      1  C   LIG    1      -39.157  78.472  27.171  0.00  0.00    +0.126 A 
ATOM      2  N   LIG    1      -38.073  79.087  27.614  0.00  0.00    -0.212 NA
ATOM      3  C   LIG    1      -37.743  78.950  28.944  0.00  0.00    +0.170 A 
ATOM      4  C   LIG    1      -36.610  79.295  29.679  0.00  0.00    +0.100 A 
ATOM      5  C   LIG    1      -36.946  78.972  31.009  0.00  0.00    +0.150 A 
ATOM      6  N   LIG    1      -38.150  78.413  31.128  0.00  0.00    -0.173 NA
ATOM      7  N   LIG    1      -38.588  78.313  29.850  0.00  0.00    -0.221 N 
ATOM      8  C   LIG    1      -39.673  77.593  29.389  0.00  0.00    +0.118 A 
ATOM      9  C   LIG    1      -39.942  77.551  28.079  0.00  0.00    +0.063 A 
ENDROOT
BRANCH   1  11
ATOM     10  C   LIG    1      -39.024  78.160  24.612  0.00  0.00    +0.110 C 
ATOM     11  N   LIG    1      -39.593  78.711  25.866  0.00  0.00    -0.308 N 
ATOM     12  C   LIG    1      -40.542  79.791  25.567  0.00  0.00    +0.107 C 
ATOM     13  C   LIG    1      -40.338  80.104  24.089  0.00  0.00    +0.021 C 
ATOM     14  C   LIG    1      -39.874  78.788  23.498  0.00  0.00    +0.029 C 
BRANCH  10  16
ATOM     15  C   LIG    1      -37.916  75.899  24.993  0.00  0.00    +0.220 A 
ATOM     16  C   LIG    1      -38.996  76.645  24.494  0.00  0.00    +0.037 A 
ATOM     17  C   LIG    1      -40.066  75.909  23.960  0.00  0.00    +0.050 A 
ATOM     18  C   LIG    1      -40.088  74.528  24.085  0.00  0.00    +0.142 A 
ATOM     19  F   LIG    1      -41.163  73.831  23.702  0.00  0.00    -0.204 F 
ATOM     20  C   LIG    1      -39.009  73.892  24.662  0.00  0.00    +0.153 A 
ATOM     21  N   LIG    1      -37.912  74.548  25.093  0.00  0.00    -0.218 NA
BRANCH  15  23
ATOM     22  C   LIG    1      -36.296  76.159  26.679  0.00  0.00    +0.279 C 
ATOM     23  O   LIG    1      -36.783  76.577  25.400  0.00  0.00    -0.479 OA
ENDBRANCH  15  23
ENDBRANCH  10  16
ENDBRANCH   1  11
BRANCH   4  24
ATOM     24  C   LIG    1      -35.341  79.823  29.215  0.00  0.00    +0.249 C 
ATOM     25  N   LIG    1      -34.972  79.354  27.977  0.00  0.00    -0.309 N 
ATOM     26  H   LIG    1      -35.666  78.846  27.423  0.00  0.00    +0.149 HD
ATOM     27  O   LIG    1      -34.652  80.563  29.892  0.00  0.00    -0.270 OA
BRANCH  25  28
ATOM     28  C   LIG    1      -33.733  79.723  27.329  0.00  0.00    +0.135 C 
BRANCH  28  29
ATOM     29  C   LIG    1      -33.003  78.479  26.813  0.00  0.00    +0.128 C 
ATOM     30  C   LIG    1      -32.068  77.916  27.870  0.00  0.00    +0.039 C 
BRANCH  29  31
ATOM     31  O   LIG    1      -32.239  78.821  25.650  0.00  0.00    -0.391 OA
ATOM     32  H   LIG    1      -32.185  78.022  25.099  0.00  0.00    +0.210 HD
ENDBRANCH  29  31
ENDBRANCH  28  29
ENDBRANCH  25  28
ENDBRANCH   4  24
TORSDOF 7
ENDMDL
MODEL 3
REMARK VINA RESULT:      -5.4     18.393     20.696
REMARK  Name = pdb/CHEMBL3676027.pdb
REMARK                            x       y       z     vdW  Elec       q    Type
REMARK                         _______ _______ _______ _____ _____    ______ ____
ROOT
ATOM      1  C   LIG    1      -35.887  79.170  28.284  0.00  0.00    +0.126 A 
ATOM      2  N   LIG    1      -36.299  80.201  27.565  0.00  0.00    -0.212 NA
ATOM      3  C   LIG    1      -35.971  81.467  27.994  0.00  0.00    +0.170 A 
ATOM      4  C   LIG    1      -36.077  82.725  27.402  0.00  0.00    +0.100 A 
ATOM      5  C   LIG    1      -35.655  83.620  28.406  0.00  0.00    +0.150 A 
ATOM      6  N   LIG    1      -35.251  83.009  29.520  0.00  0.00    -0.173 NA
ATOM      7  N   LIG    1      -35.355  81.692  29.223  0.00  0.00    -0.221 N 
ATOM      8  C   LIG    1      -34.842  80.627  29.939  0.00  0.00    +0.118 A 
ATOM      9  C   LIG    1      -34.983  79.379  29.479  0.00  0.00    +0.063 A 
ENDROOT
BRANCH   1  11
ATOM     10  C   LIG    1      -35.573  76.838  27.222  0.00  0.00    +0.110 C 
ATOM     11  N   LIG    1      -36.327  77.886  27.952  0.00  0.00    -0.308 N 
ATOM     12  C   LIG    1      -37.743  77.514  28.066  0.00  0.00    +0.107 C 
ATOM     13  C   LIG    1      -37.920  76.326  27.127  0.00  0.00    +0.021 C 
ATOM     14  C   LIG    1      -36.557  75.664  27.116  0.00  0.00    +0.029 C 
BRANCH  10  16
ATOM     15  C   LIG    1      -33.049  77.029  27.508  0.00  0.00    +0.220 A 
ATOM     16  C   LIG    1      -34.258  76.397  27.845  0.00  0.00    +0.037 A 
ATOM     17  C   LIG    1      -34.186  75.405  28.835  0.00  0.00    +0.050 A 
ATOM     18  C   LIG    1      -33.003  75.204  29.530  0.00  0.00    +0.142 A 
ATOM     19  F   LIG    1      -32.961  74.357  30.564  0.00  0.00    -0.204 F 
ATOM     20  C   LIG    1      -31.887  75.931  29.174  0.00  0.00    +0.153 A 
ATOM     21  N   LIG    1      -31.880  76.819  28.159  0.00  0.00    -0.218 NA
BRANCH  15  23
ATOM     22  C   LIG    1      -32.416  79.161  26.744  0.00  0.00    +0.279 C 
ATOM     23  O   LIG    1      -33.045  77.911  26.445  0.00  0.00    -0.479 OA
ENDBRANCH  15  23
ENDBRANCH  10  16
ENDBRANCH   1  11
BRANCH   4  24
ATOM     24  C   LIG    1      -36.478  83.073  26.052  0.00  0.00    +0.249 C 
ATOM     25  N   LIG    1      -37.739  82.634  25.724  0.00  0.00    -0.309 N 
ATOM     26  H   LIG    1      -38.340  82.281  26.473  0.00  0.00    +0.149 HD
ATOM     27  O   LIG    1      -35.738  83.648  25.276  0.00  0.00    -0.270 OA
BRANCH  25  28
ATOM     28  C   LIG    1      -38.334  82.842  24.424  0.00  0.00    +0.135 C 
BRANCH  28  29
ATOM     29  C   LIG    1      -39.389  81.769  24.136  0.00  0.00    +0.128 C 
ATOM     30  C   LIG    1      -39.429  80.731  25.244  0.00  0.00    +0.039 C 
BRANCH  29  31
ATOM     31  O   LIG    1      -39.082  81.117  22.897  0.00  0.00    -0.391 OA
ATOM     32  H   LIG    1      -39.172  80.161  23.048  0.00  0.00    +0.210 HD
ENDBRANCH  29  31
ENDBRANCH  28  29
ENDBRANCH  25  28
ENDBRANCH   4  24
TORSDOF 7
ENDMDL
MODEL 4
REMARK VINA RESULT:      -5.4     17.697     21.001
REMARK  Name = pdb/CHEMBL3676027.pdb
REMARK                            x       y       z     vdW  Elec       q    Type
REMARK                         _______ _______ _______ _____ _____    ______ ____
ROOT
ATOM      1  C   LIG    1      -20.355  78.965  34.375  0.00  0.00    +0.126 A 
ATOM      2  N   LIG    1      -20.492  78.731  33.080  0.00  0.00    -0.212 NA
ATOM      3  C   LIG    1      -19.559  77.930  32.461  0.00  0.00    +0.170 A 
ATOM      4  C   LIG    1      -19.502  77.346  31.196  0.00  0.00    +0.100 A 
ATOM      5  C   LIG    1      -18.237  76.727  31.154  0.00  0.00    +0.150 A 
ATOM      6  N   LIG    1      -17.558  76.837  32.296  0.00  0.00    -0.173 NA
ATOM      7  N   LIG    1      -18.414  77.488  33.120  0.00  0.00    -0.221 N 
ATOM      8  C   LIG    1      -18.304  77.649  34.487  0.00  0.00    +0.118 A 
ATOM      9  C   LIG    1      -19.269  78.273  35.170  0.00  0.00    +0.063 A 
ENDROOT
BRANCH   1  11
ATOM     10  C   LIG    1      -22.623  80.162  34.675  0.00  0.00    +0.110 C 
ATOM     11  N   LIG    1      -21.202  79.887  34.996  0.00  0.00    -0.308 N 
ATOM     12  C   LIG    1      -20.671  80.916  35.900  0.00  0.00    +0.107 C 
ATOM     13  C   LIG    1      -21.725  82.018  35.912  0.00  0.00    +0.021 C 
ATOM     14  C   LIG    1      -23.023  81.283  35.646  0.00  0.00    +0.029 C 
BRANCH  10  16
ATOM     15  C   LIG    1      -23.723  78.270  35.978  0.00  0.00    +0.220 A 
ATOM     16  C   LIG    1      -23.576  78.983  34.776  0.00  0.00    +0.037 A 
ATOM     17  C   LIG    1      -24.410  78.592  33.717  0.00  0.00    +0.050 A 
ATOM     18  C   LIG    1      -25.418  77.664  33.933  0.00  0.00    +0.142 A 
ATOM     19  F   LIG    1      -26.301  77.387  32.968  0.00  0.00    -0.204 F 
ATOM     20  C   LIG    1      -25.528  77.075  35.175  0.00  0.00    +0.153 A 
ATOM     21  N   LIG    1      -24.684  77.339  36.193  0.00  0.00    -0.218 NA
BRANCH  15  23
ATOM     22  C   LIG    1      -22.128  77.360  37.448  0.00  0.00    +0.279 C 
ATOM     23  O   LIG    1      -22.832  78.524  37.003  0.00  0.00    -0.479 OA
ENDBRANCH  15  23
ENDBRANCH  10  16
ENDBRANCH   1  11
BRANCH   4  24
ATOM     24  C   LIG    1      -20.510  77.317  30.153  0.00  0.00    +0.249 C 
ATOM     25  N   LIG    1      -21.767  77.654  30.595  0.00  0.00    -0.309 N 
ATOM     26  H   LIG    1      -21.861  78.060  31.530  0.00  0.00    +0.149 HD
ATOM     27  O   LIG    1      -20.264  76.971  29.013  0.00  0.00    -0.270 OA
BRANCH  25  28
ATOM     28  C   LIG    1      -22.930  77.666  29.736  0.00  0.00    +0.135 C 
BRANCH  28  29
ATOM     29  C   LIG    1      -24.148  77.096  30.470  0.00  0.00    +0.128 C 
ATOM     30  C   LIG    1      -23.966  75.616  30.764  0.00  0.00    +0.039 C 
BRANCH  29  31
ATOM     31  O   LIG    1      -25.318  77.270  29.662  0.00  0.00    -0.391 OA
ATOM     32  H   LIG    1      -26.044  77.516  30.259  0.00  0.00    +0.210 HD
ENDBRANCH  29  31
ENDBRANCH  28  29
ENDBRANCH  25  28
ENDBRANCH   4  24
TORSDOF 7
ENDMDL
MODEL 5
REMARK VINA RESULT:      -5.3     18.551     21.302
REMARK  Name = pdb/CHEMBL3676027.pdb
REMARK                            x       y       z     vdW  Elec       q    Type
REMARK                         _______ _______ _______ _____ _____    ______ ____
ROOT
ATOM      1  C   LIG    1      -20.594  79.046  34.068  0.00  0.00    +0.126 A 
ATOM      2  N   LIG    1      -21.140  78.572  32.961  0.00  0.00    -0.212 NA
ATOM      3  C   LIG    1      -20.321  77.951  32.044  0.00  0.00    +0.170 A 
ATOM      4  C   LIG    1      -20.579  77.200  30.898  0.00  0.00    +0.100 A 
ATOM      5  C   LIG    1      -19.304  76.937  30.358  0.00  0.00    +0.150 A 
ATOM      6  N   LIG    1      -18.308  77.411  31.106  0.00  0.00    -0.173 NA
ATOM      7  N   LIG    1      -18.935  77.942  32.183  0.00  0.00    -0.221 N 
ATOM      8  C   LIG    1      -18.360  78.352  33.370  0.00  0.00    +0.118 A 
ATOM      9  C   LIG    1      -19.129  78.806  34.366  0.00  0.00    +0.063 A 
ENDROOT
BRANCH   1  11
ATOM     10  C   LIG    1      -22.774  79.544  35.357  0.00  0.00    +0.110 C 
ATOM     11  N   LIG    1      -21.374  79.804  34.945  0.00  0.00    -0.308 N 
ATOM     12  C   LIG    1      -20.956  81.148  35.366  0.00  0.00    +0.107 C 
ATOM     13  C   LIG    1      -22.238  81.844  35.806  0.00  0.00    +0.021 C 
ATOM     14  C   LIG    1      -23.119  80.711  36.293  0.00  0.00    +0.029 C 
BRANCH  10  16
ATOM     15  C   LIG    1      -23.975  77.302  35.494  0.00  0.00    +0.220 A 
ATOM     16  C   LIG    1      -23.041  78.206  36.027  0.00  0.00    +0.037 A 
ATOM     17  C   LIG    1      -22.325  77.767  37.152  0.00  0.00    +0.050 A 
ATOM     18  C   LIG    1      -22.444  76.454  37.582  0.00  0.00    +0.142 A 
ATOM     19  F   LIG    1      -21.667  75.991  38.566  0.00  0.00    -0.204 F 
ATOM     20  C   LIG    1      -23.336  75.621  36.942  0.00  0.00    +0.153 A 
ATOM     21  N   LIG    1      -24.124  76.026  35.925  0.00  0.00    -0.218 NA
BRANCH  15  23
ATOM     22  C   LIG    1      -26.135  78.022  34.906  0.00  0.00    +0.279 C 
ATOM     23  O   LIG    1      -24.801  77.738  34.476  0.00  0.00    -0.479 OA
ENDBRANCH  15  23
ENDBRANCH  10  16
ENDBRANCH   1  11
BRANCH   4  24
ATOM     24  C   LIG    1      -21.850  76.734  30.375  0.00  0.00    +0.249 C 
ATOM     25  N   LIG    1      -22.722  76.308  31.348  0.00  0.00    -0.309 N 
ATOM     26  H   LIG    1      -22.498  76.516  32.325  0.00  0.00    +0.149 HD
ATOM     27  O   LIG    1      -22.085  76.677  29.182  0.00  0.00    -0.270 OA
BRANCH  25  28
ATOM     28  C   LIG    1      -24.034  75.778  31.056  0.00  0.00    +0.135 C 
BRANCH  28  29
ATOM     29  C   LIG    1      -25.068  76.906  30.985  0.00  0.00    +0.128 C 
ATOM     30  C   LIG    1      -26.416  76.446  31.514  0.00  0.00    +0.039 C 
BRANCH  29  31
ATOM     31  O   LIG    1      -25.221  77.330  29.625  0.00  0.00    -0.391 OA
ATOM     32  H   LIG    1      -24.771  78.187  29.540  0.00  0.00    +0.210 HD
ENDBRANCH  29  31
ENDBRANCH  28  29
ENDBRANCH  25  28
ENDBRANCH   4  24
TORSDOF 7
ENDMDL
MODEL 6
REMARK VINA RESULT:      -5.3      2.927      6.261
REMARK  Name = pdb/CHEMBL3676027.pdb
REMARK                            x       y       z     vdW  Elec       q    Type
REMARK                         _______ _______ _______ _____ _____    ______ ____
ROOT
ATOM      1  C   LIG    1      -19.946  86.084  13.557  0.00  0.00    +0.126 A 
ATOM      2  N   LIG    1      -20.049  84.779  13.748  0.00  0.00    -0.212 NA
ATOM      3  C   LIG    1      -18.946  83.994  13.497  0.00  0.00    +0.170 A 
ATOM      4  C   LIG    1      -18.656  82.656  13.759  0.00  0.00    +0.100 A 
ATOM      5  C   LIG    1      -17.397  82.449  13.162  0.00  0.00    +0.150 A 
ATOM      6  N   LIG    1      -16.882  83.552  12.621  0.00  0.00    -0.173 NA
ATOM      7  N   LIG    1      -17.791  84.512  12.917  0.00  0.00    -0.221 N 
ATOM      8  C   LIG    1      -17.636  85.880  12.795  0.00  0.00    +0.118 A 
ATOM      9  C   LIG    1      -18.615  86.702  13.186  0.00  0.00    +0.063 A 
ENDROOT
BRANCH   1  11
ATOM     10  C   LIG    1      -21.686  87.742  12.616  0.00  0.00    +0.110 C 
ATOM     11  N   LIG    1      -21.087  86.883  13.665  0.00  0.00    -0.308 N 
ATOM     12  C   LIG    1      -21.690  87.174  14.973  0.00  0.00    +0.107 C 
ATOM     13  C   LIG    1      -22.490  88.454  14.767  0.00  0.00    +0.021 C 
ATOM     14  C   LIG    1      -22.888  88.404  13.305  0.00  0.00    +0.029 C 
BRANCH  10  16
ATOM     15  C   LIG    1      -21.394  87.236  10.137  0.00  0.00    +0.220 A 
ATOM     16  C   LIG    1      -22.105  87.044  11.333  0.00  0.00    +0.037 A 
ATOM     17  C   LIG    1      -23.161  86.119  11.286  0.00  0.00    +0.050 A 
ATOM     18  C   LIG    1      -23.353  85.343  10.152  0.00  0.00    +0.142 A 
ATOM     19  F   LIG    1      -24.267  84.368  10.148  0.00  0.00    -0.204 F 
ATOM     20  C   LIG    1      -22.550  85.557   9.053  0.00  0.00    +0.153 A 
ATOM     21  N   LIG    1      -21.593  86.507   9.013  0.00  0.00    -0.218 NA
BRANCH  15  23
ATOM     22  C   LIG    1      -19.157  87.780   9.656  0.00  0.00    +0.279 C 
ATOM     23  O   LIG    1      -20.440  88.235  10.096  0.00  0.00    -0.479 OA
ENDBRANCH  15  23
ENDBRANCH  10  16
ENDBRANCH   1  11
BRANCH   4  24
ATOM     24  C   LIG    1      -19.425  81.681  14.511  0.00  0.00    +0.249 C 
ATOM     25  N   LIG    1      -20.250  82.243  15.455  0.00  0.00    -0.309 N 
ATOM     26  H   LIG    1      -20.396  83.255  15.431  0.00  0.00    +0.149 HD
ATOM     27  O   LIG    1      -19.298  80.482  14.349  0.00  0.00    -0.270 OA
BRANCH  25  28
ATOM     28  C   LIG    1      -21.088  81.462  16.337  0.00  0.00    +0.135 C 
BRANCH  28  29
ATOM     29  C   LIG    1      -22.416  82.180  16.595  0.00  0.00    +0.128 C 
ATOM     30  C   LIG    1      -23.169  82.418  15.297  0.00  0.00    +0.039 C 
BRANCH  29  31
ATOM     31  O   LIG    1      -22.164  83.441  17.226  0.00  0.00    -0.391 OA
ATOM     32  H   LIG    1      -22.515  83.383  18.130  0.00  0.00    +0.210 HD
ENDBRANCH  29  31
ENDBRANCH  28  29
ENDBRANCH  25  28
ENDBRANCH   4  24
TORSDOF 7
ENDMDL
MODEL 7
REMARK VINA RESULT:      -5.2     18.247     22.045
REMARK  Name = pdb/CHEMBL3676027.pdb
REMARK                            x       y       z     vdW  Elec       q    Type
REMARK                         _______ _______ _______ _____ _____    ______ ____
ROOT
ATOM      1  C   LIG    1      -24.140  79.825  35.436  0.00  0.00    +0.126 A 
ATOM      2  N   LIG    1      -24.267  79.029  34.387  0.00  0.00    -0.212 NA
ATOM      3  C   LIG    1      -25.404  78.259  34.287  0.00  0.00    +0.170 A 
ATOM      4  C   LIG    1      -25.931  77.477  33.261  0.00  0.00    +0.100 A 
ATOM      5  C   LIG    1      -27.070  76.874  33.832  0.00  0.00    +0.150 A 
ATOM      6  N   LIG    1      -27.305  77.269  35.083  0.00  0.00    -0.173 NA
ATOM      7  N   LIG    1      -26.339  78.190  35.318  0.00  0.00    -0.221 N 
ATOM      8  C   LIG    1      -26.266  79.078  36.373  0.00  0.00    +0.118 A 
ATOM      9  C   LIG    1      -25.270  79.969  36.432  0.00  0.00    +0.063 A 
ENDROOT
BRANCH   1  11
ATOM     10  C   LIG    1      -21.632  79.929  36.039  0.00  0.00    +0.110 C 
ATOM     11  N   LIG    1      -22.937  80.507  35.635  0.00  0.00    -0.308 N 
ATOM     12  C   LIG    1      -22.899  81.972  35.726  0.00  0.00    +0.107 C 
ATOM     13  C   LIG    1      -21.615  82.292  36.481  0.00  0.00    +0.021 C 
ATOM     14  C   LIG    1      -20.693  81.140  36.136  0.00  0.00    +0.029 C 
BRANCH  10  16
ATOM     15  C   LIG    1      -21.167  77.497  35.444  0.00  0.00    +0.220 A 
ATOM     16  C   LIG    1      -21.057  78.860  35.124  0.00  0.00    +0.037 A 
ATOM     17  C   LIG    1      -20.463  79.163  33.888  0.00  0.00    +0.050 A 
ATOM     18  C   LIG    1      -20.166  78.145  32.995  0.00  0.00    +0.142 A 
ATOM     19  F   LIG    1      -19.726  78.432  31.765  0.00  0.00    -0.204 F 
ATOM     20  C   LIG    1      -20.382  76.838  33.375  0.00  0.00    +0.153 A 
ATOM     21  N   LIG    1      -20.851  76.492  34.591  0.00  0.00    -0.218 NA
BRANCH  15  23
ATOM     22  C   LIG    1      -20.603  76.573  37.532  0.00  0.00    +0.279 C 
ATOM     23  O   LIG    1      -21.616  77.154  36.705  0.00  0.00    -0.479 OA
ENDBRANCH  15  23
ENDBRANCH  10  16
ENDBRANCH   1  11
BRANCH   4  24
ATOM     24  C   LIG    1      -25.471  77.327  31.893  0.00  0.00    +0.249 C 
ATOM     25  N   LIG    1      -24.123  77.540  31.741  0.00  0.00    -0.309 N 
ATOM     26  H   LIG    1      -23.542  77.598  32.582  0.00  0.00    +0.149 HD
ATOM     27  O   LIG    1      -26.229  77.093  30.969  0.00  0.00    -0.270 OA
BRANCH  25  28
ATOM     28  C   LIG    1      -23.451  77.472  30.463  0.00  0.00    +0.135 C 
BRANCH  28  29
ATOM     29  C   LIG    1      -22.381  76.375  30.475  0.00  0.00    +0.128 C 
ATOM     30  C   LIG    1      -21.420  76.536  29.309  0.00  0.00    +0.039 C 
BRANCH  29  31
ATOM     31  O   LIG    1      -23.011  75.091  30.385  0.00  0.00    -0.391 OA
ATOM     32  H   LIG    1      -23.899  75.233  30.017  0.00  0.00    +0.210 HD
ENDBRANCH  29  31
ENDBRANCH  28  29
ENDBRANCH  25  28
ENDBRANCH   4  24
TORSDOF 7
ENDMDL
MODEL 8
REMARK VINA RESULT:      -5.2     16.895     20.408
REMARK  Name = pdb/CHEMBL3676027.pdb
REMARK                            x       y       z     vdW  Elec       q    Type
REMARK                         _______ _______ _______ _____ _____    ______ ____
ROOT
ATOM      1  C   LIG    1      -31.679  68.102  16.936  0.00  0.00    +0.126 A 
ATOM      2  N   LIG    1      -32.903  68.115  17.437  0.00  0.00    -0.212 NA
ATOM      3  C   LIG    1      -33.875  67.375  16.803  0.00  0.00    +0.170 A 
ATOM      4  C   LIG    1      -35.179  67.025  17.152  0.00  0.00    +0.100 A 
ATOM      5  C   LIG    1      -35.670  66.337  16.025  0.00  0.00    +0.150 A 
ATOM      6  N   LIG    1      -34.762  66.192  15.060  0.00  0.00    -0.173 NA
ATOM      7  N   LIG    1      -33.641  66.742  15.584  0.00  0.00    -0.221 N 
ATOM      8  C   LIG    1      -32.352  66.645  15.097  0.00  0.00    +0.118 A 
ATOM      9  C   LIG    1      -31.338  67.203  15.767  0.00  0.00    +0.063 A 
ENDROOT
BRANCH   1  11
ATOM     10  C   LIG    1      -29.948  68.771  18.731  0.00  0.00    +0.110 C 
ATOM     11  N   LIG    1      -30.711  68.954  17.473  0.00  0.00    -0.308 N 
ATOM     12  C   LIG    1      -30.527  70.317  16.956  0.00  0.00    +0.107 C 
ATOM     13  C   LIG    1      -29.853  71.085  18.086  0.00  0.00    +0.021 C 
ATOM     14  C   LIG    1      -29.066  70.024  18.829  0.00  0.00    +0.029 C 
BRANCH  10  16
ATOM     15  C   LIG    1      -29.703  66.278  19.191  0.00  0.00    +0.220 A 
ATOM     16  C   LIG    1      -29.116  67.503  18.835  0.00  0.00    +0.037 A 
ATOM     17  C   LIG    1      -27.751  67.467  18.509  0.00  0.00    +0.050 A 
ATOM     18  C   LIG    1      -27.096  66.249  18.399  0.00  0.00    +0.142 A 
ATOM     19  F   LIG    1      -25.835  66.197  17.959  0.00  0.00    -0.204 F 
ATOM     20  C   LIG    1      -27.784  65.092  18.697  0.00  0.00    +0.153 A 
ATOM     21  N   LIG    1      -29.065  65.084  19.117  0.00  0.00    -0.218 NA
BRANCH  15  23
ATOM     22  C   LIG    1      -31.807  65.230  19.113  0.00  0.00    +0.279 C 
ATOM     23  O   LIG    1      -31.005  66.285  19.652  0.00  0.00    -0.479 OA
ENDBRANCH  15  23
ENDBRANCH  10  16
ENDBRANCH   1  11
BRANCH   4  24
ATOM     24  C   LIG    1      -35.888  67.256  18.397  0.00  0.00    +0.249 C 
ATOM     25  N   LIG    1      -35.298  66.656  19.484  0.00  0.00    -0.309 N 
ATOM     26  H   LIG    1      -34.356  66.272  19.375  0.00  0.00    +0.149 HD
ATOM     27  O   LIG    1      -36.934  67.876  18.450  0.00  0.00    -0.270 OA
BRANCH  25  28
ATOM     28  C   LIG    1      -35.846  66.729  20.820  0.00  0.00    +0.135 C 
BRANCH  28  29
ATOM     29  C   LIG    1      -34.734  66.596  21.865  0.00  0.00    +0.128 C 
ATOM     30  C   LIG    1      -35.021  67.459  23.082  0.00  0.00    +0.039 C 
BRANCH  29  31
ATOM     31  O   LIG    1      -33.486  67.000  21.291  0.00  0.00    -0.391 OA
ATOM     32  H   LIG    1      -33.034  67.553  21.950  0.00  0.00    +0.210 HD
ENDBRANCH  29  31
ENDBRANCH  28  29
ENDBRANCH  25  28
ENDBRANCH   4  24
TORSDOF 7
ENDMDL
MODEL 9
REMARK VINA RESULT:      -5.2      2.174      3.605
REMARK  Name = pdb/CHEMBL3676027.pdb
REMARK                            x       y       z     vdW  Elec       q    Type
REMARK                         _______ _______ _______ _____ _____    ______ ____
ROOT
ATOM      1  C   LIG    1      -20.342  82.272  13.846  0.00  0.00    +0.126 A 
ATOM      2  N   LIG    1      -19.933  83.523  13.972  0.00  0.00    -0.212 NA
ATOM      3  C   LIG    1      -18.804  83.912  13.286  0.00  0.00    +0.170 A 
ATOM      4  C   LIG    1      -18.219  85.155  13.051  0.00  0.00    +0.100 A 
ATOM      5  C   LIG    1      -17.027  84.855  12.362  0.00  0.00    +0.150 A 
ATOM      6  N   LIG    1      -16.875  83.555  12.112  0.00  0.00    -0.173 NA
ATOM      7  N   LIG    1      -18.013  82.998  12.593  0.00  0.00    -0.221 N 
ATOM      8  C   LIG    1      -18.473  81.713  12.380  0.00  0.00    +0.118 A 
ATOM      9  C   LIG    1      -19.652  81.331  12.882  0.00  0.00    +0.063 A 
ENDROOT
BRANCH   1  11
ATOM     10  C   LIG    1      -22.848  82.024  14.418  0.00  0.00    +0.110 C 
ATOM     11  N   LIG    1      -21.397  81.814  14.640  0.00  0.00    -0.308 N 
ATOM     12  C   LIG    1      -21.156  81.276  15.985  0.00  0.00    +0.107 C 
ATOM     13  C   LIG    1      -22.485  81.424  16.718  0.00  0.00    +0.021 C 
ATOM     14  C   LIG    1      -23.520  81.336  15.614  0.00  0.00    +0.029 C 
BRANCH  10  16
ATOM     15  C   LIG    1      -23.498  82.345  11.976  0.00  0.00    +0.220 A 
ATOM     16  C   LIG    1      -23.408  81.510  13.102  0.00  0.00    +0.037 A 
ATOM     17  C   LIG    1      -23.788  80.172  12.914  0.00  0.00    +0.050 A 
ATOM     18  C   LIG    1      -24.073  79.704  11.640  0.00  0.00    +0.142 A 
ATOM     19  F   LIG    1      -24.304  78.403  11.433  0.00  0.00    -0.204 F 
ATOM     20  C   LIG    1      -24.060  80.590  10.585  0.00  0.00    +0.153 A 
ATOM     21  N   LIG    1      -23.805  81.907  10.732  0.00  0.00    -0.218 NA
BRANCH  15  23
ATOM     22  C   LIG    1      -22.275  84.222  11.259  0.00  0.00    +0.279 C 
ATOM     23  O   LIG    1      -23.268  83.697  12.144  0.00  0.00    -0.479 OA
ENDBRANCH  15  23
ENDBRANCH  10  16
ENDBRANCH   1  11
BRANCH   4  24
ATOM     24  C   LIG    1      -18.714  86.479  13.380  0.00  0.00    +0.249 C 
ATOM     25  N   LIG    1      -19.742  86.468  14.292  0.00  0.00    -0.309 N 
ATOM     26  H   LIG    1      -19.945  85.595  14.786  0.00  0.00    +0.149 HD
ATOM     27  O   LIG    1      -18.289  87.488  12.850  0.00  0.00    -0.270 OA
BRANCH  25  28
ATOM     28  C   LIG    1      -20.407  87.669  14.746  0.00  0.00    +0.135 C 
BRANCH  28  29
ATOM     29  C   LIG    1      -21.811  87.344  15.265  0.00  0.00    +0.128 C 
ATOM     30  C   LIG    1      -22.643  86.655  14.196  0.00  0.00    +0.039 C 
BRANCH  29  31
ATOM     31  O   LIG    1      -22.469  88.554  15.659  0.00  0.00    -0.391 OA
ATOM     32  H   LIG    1      -22.895  88.919  14.865  0.00  0.00    +0.210 HD
ENDBRANCH  29  31
ENDBRANCH  28  29
ENDBRANCH  25  28
ENDBRANCH   4  24
TORSDOF 7
ENDMDL
