MODEL 1
REMARK VINA RESULT:      -5.4      0.000      0.000
REMARK  Name = pdb/CHEMBL3676022.pdb
REMARK                            x       y       z     vdW  Elec       q    Type
REMARK                         _______ _______ _______ _____ _____    ______ ____
ROOT
ATOM      1  C   LIG    1      -36.384  71.171  26.319  0.00  0.00    +0.126 A 
ATOM      2  N   LIG    1      -35.639  72.074  26.923  0.00  0.00    -0.212 NA
ATOM      3  C   LIG    1      -34.683  71.644  27.816  0.00  0.00    +0.170 A 
ATOM      4  C   LIG    1      -33.772  72.303  28.605  0.00  0.00    +0.100 A 
ATOM      5  C   LIG    1      -32.966  71.272  29.147  0.00  0.00    +0.150 A 
ATOM      6  N   LIG    1      -33.401  70.049  28.836  0.00  0.00    -0.173 NA
ATOM      7  N   LIG    1      -34.480  70.277  28.055  0.00  0.00    -0.221 N 
ATOM      8  C   LIG    1      -35.322  69.326  27.511  0.00  0.00    +0.118 A 
ATOM      9  C   LIG    1      -36.294  69.696  26.669  0.00  0.00    +0.063 A 
ENDROOT
BRANCH   1  11
ATOM     10  C   LIG    1      -38.465  72.413  25.622  0.00  0.00    +0.110 C 
ATOM     11  N   LIG    1      -37.263  71.581  25.318  0.00  0.00    -0.308 N 
ATOM     12  C   LIG    1      -37.505  70.779  24.113  0.00  0.00    +0.107 C 
ATOM     13  C   LIG    1      -39.018  70.761  23.984  0.00  0.00    +0.021 C 
ATOM     14  C   LIG    1      -39.388  72.169  24.414  0.00  0.00    +0.029 C 
BRANCH  10  16
ATOM     15  C   LIG    1      -38.181  74.491  27.079  0.00  0.00    +0.220 A 
ATOM     16  C   LIG    1      -38.188  73.893  25.809  0.00  0.00    +0.037 A 
ATOM     17  C   LIG    1      -37.974  74.751  24.716  0.00  0.00    +0.050 A 
ATOM     18  C   LIG    1      -37.704  76.097  24.931  0.00  0.00    +0.142 A 
ATOM     19  F   LIG    1      -37.468  76.916  23.898  0.00  0.00    -0.204 F 
ATOM     20  C   LIG    1      -37.684  76.579  26.223  0.00  0.00    +0.153 A 
ATOM     21  N   LIG    1      -37.931  75.807  27.300  0.00  0.00    -0.218 NA
BRANCH  15  23
ATOM     22  C   LIG    1      -37.674  74.018  29.320  0.00  0.00    +0.279 C 
ATOM     23  O   LIG    1      -38.485  73.709  28.179  0.00  0.00    -0.479 OA
ENDBRANCH  15  23
ENDBRANCH  10  16
ENDBRANCH   1  11
BRANCH   4  24
ATOM     24  C   LIG    1      -33.561  73.727  28.879  0.00  0.00    +0.249 C 
ATOM     25  N   LIG    1      -34.434  74.604  28.261  0.00  0.00    -0.311 N 
ATOM     26  H   LIG    1      -35.030  74.232  27.538  0.00  0.00    +0.149 HD
ATOM     27  O   LIG    1      -32.684  74.100  29.635  0.00  0.00    -0.270 OA
BRANCH  25  28
ATOM     28  C   LIG    1      -34.263  76.049  28.412  0.00  0.00    +0.104 C 
BRANCH  28  29
ATOM     29  C   LIG    1      -33.487  76.644  27.232  0.00  0.00    +0.021 C 
BRANCH  29  30
ATOM     30  C   LIG    1      -32.296  77.498  27.679  0.00  0.00    +0.029 C 
BRANCH  30  31
ATOM     31  C   LIG    1      -32.292  78.870  27.010  0.00  0.00    +0.156 C 
BRANCH  31  32
ATOM     32  O   LIG    1      -32.353  78.697  25.600  0.00  0.00    -0.395 OA
ATOM     33  H   LIG    1      -31.660  79.255  25.207  0.00  0.00    +0.209 HD
ENDBRANCH  31  32
ENDBRANCH  30  31
ENDBRANCH  29  30
ENDBRANCH  28  29
ENDBRANCH  25  28
ENDBRANCH   4  24
TORSDOF 9
ENDMDL
MODEL 2
REMARK VINA RESULT:      -5.3     12.870     17.160
REMARK  Name = pdb/CHEMBL3676022.pdb
REMARK                            x       y       z     vdW  Elec       q    Type
REMARK                         _______ _______ _______ _____ _____    ______ ____
ROOT
ATOM      1  C   LIG    1      -23.630  79.599  35.275  0.00  0.00    +0.126 A 
ATOM      2  N   LIG    1      -23.942  79.063  34.114  0.00  0.00    -0.212 NA
ATOM      3  C   LIG    1      -25.067  78.271  34.038  0.00  0.00    +0.170 A 
ATOM      4  C   LIG    1      -25.653  77.570  33.012  0.00  0.00    +0.100 A 
ATOM      5  C   LIG    1      -26.881  77.119  33.553  0.00  0.00    +0.150 A 
ATOM      6  N   LIG    1      -27.014  77.396  34.852  0.00  0.00    -0.173 NA
ATOM      7  N   LIG    1      -25.882  78.065  35.159  0.00  0.00    -0.221 N 
ATOM      8  C   LIG    1      -25.511  78.532  36.406  0.00  0.00    +0.118 A 
ATOM      9  C   LIG    1      -24.404  79.272  36.540  0.00  0.00    +0.063 A 
ENDROOT
BRANCH   1  11
ATOM     10  C   LIG    1      -21.256  80.134  35.937  0.00  0.00    +0.110 C 
ATOM     11  N   LIG    1      -22.572  80.505  35.339  0.00  0.00    -0.308 N 
ATOM     12  C   LIG    1      -22.789  81.951  35.470  0.00  0.00    +0.107 C 
ATOM     13  C   LIG    1      -21.835  82.363  36.578  0.00  0.00    +0.021 C 
ATOM     14  C   LIG    1      -20.625  81.492  36.293  0.00  0.00    +0.029 C 
BRANCH  10  16
ATOM     15  C   LIG    1      -19.334  78.499  35.538  0.00  0.00    +0.220 A 
ATOM     16  C   LIG    1      -20.346  79.329  35.028  0.00  0.00    +0.037 A 
ATOM     17  C   LIG    1      -20.433  79.413  33.628  0.00  0.00    +0.050 A 
ATOM     18  C   LIG    1      -19.593  78.646  32.830  0.00  0.00    +0.142 A 
ATOM     19  F   LIG    1      -19.690  78.695  31.496  0.00  0.00    -0.204 F 
ATOM     20  C   LIG    1      -18.656  77.832  33.432  0.00  0.00    +0.153 A 
ATOM     21  N   LIG    1      -18.500  77.754  34.769  0.00  0.00    -0.218 NA
BRANCH  15  23
ATOM     22  C   LIG    1      -18.219  77.437  37.307  0.00  0.00    +0.279 C 
ATOM     23  O   LIG    1      -19.141  78.458  36.907  0.00  0.00    -0.479 OA
ENDBRANCH  15  23
ENDBRANCH  10  16
ENDBRANCH   1  11
BRANCH   4  24
ATOM     24  C   LIG    1      -25.226  77.307  31.635  0.00  0.00    +0.249 C 
ATOM     25  N   LIG    1      -24.037  77.892  31.241  0.00  0.00    -0.311 N 
ATOM     26  H   LIG    1      -23.641  78.591  31.850  0.00  0.00    +0.149 HD
ATOM     27  O   LIG    1      -25.875  76.585  30.902  0.00  0.00    -0.270 OA
BRANCH  25  28
ATOM     28  C   LIG    1      -23.562  77.750  29.865  0.00  0.00    +0.104 C 
BRANCH  28  29
ATOM     29  C   LIG    1      -22.162  77.129  29.821  0.00  0.00    +0.021 C 
BRANCH  29  30
ATOM     30  C   LIG    1      -22.134  75.695  30.360  0.00  0.00    +0.029 C 
BRANCH  30  31
ATOM     31  C   LIG    1      -21.313  75.580  31.642  0.00  0.00    +0.156 C 
BRANCH  31  32
ATOM     32  O   LIG    1      -22.048  76.158  32.714  0.00  0.00    -0.395 OA
ATOM     33  H   LIG    1      -21.410  76.606  33.296  0.00  0.00    +0.209 HD
ENDBRANCH  31  32
ENDBRANCH  30  31
ENDBRANCH  29  30
ENDBRANCH  28  29
ENDBRANCH  25  28
ENDBRANCH   4  24
TORSDOF 9
ENDMDL
MODEL 3
REMARK VINA RESULT:      -5.3      2.581      5.176
REMARK  Name = pdb/CHEMBL3676022.pdb
REMARK                            x       y       z     vdW  Elec       q    Type
REMARK                         _______ _______ _______ _____ _____    ______ ____
ROOT
ATOM      1  C   LIG    1      -37.233  71.176  25.306  0.00  0.00    +0.126 A 
ATOM      2  N   LIG    1      -37.104  72.463  25.552  0.00  0.00    -0.212 NA
ATOM      3  C   LIG    1      -38.050  73.326  25.046  0.00  0.00    +0.170 A 
ATOM      4  C   LIG    1      -38.203  74.690  25.104  0.00  0.00    +0.100 A 
ATOM      5  C   LIG    1      -39.479  74.925  24.536  0.00  0.00    +0.150 A 
ATOM      6  N   LIG    1      -40.041  73.821  24.039  0.00  0.00    -0.173 NA
ATOM      7  N   LIG    1      -39.146  72.848  24.313  0.00  0.00    -0.221 N 
ATOM      8  C   LIG    1      -39.238  71.516  23.958  0.00  0.00    +0.118 A 
ATOM      9  C   LIG    1      -38.320  70.643  24.389  0.00  0.00    +0.063 A 
ENDROOT
BRANCH   1  11
ATOM     10  C   LIG    1      -35.203  70.747  26.739  0.00  0.00    +0.110 C 
ATOM     11  N   LIG    1      -36.359  70.279  25.919  0.00  0.00    -0.308 N 
ATOM     12  C   LIG    1      -36.062  68.961  25.345  0.00  0.00    +0.107 C 
ATOM     13  C   LIG    1      -34.548  68.866  25.417  0.00  0.00    +0.021 C 
ATOM     14  C   LIG    1      -34.252  69.536  26.746  0.00  0.00    +0.029 C 
BRANCH  10  16
ATOM     15  C   LIG    1      -34.955  72.291  28.759  0.00  0.00    +0.220 A 
ATOM     16  C   LIG    1      -35.554  71.175  28.152  0.00  0.00    +0.037 A 
ATOM     17  C   LIG    1      -36.458  70.447  28.945  0.00  0.00    +0.050 A 
ATOM     18  C   LIG    1      -36.767  70.883  30.227  0.00  0.00    +0.142 A 
ATOM     19  F   LIG    1      -37.651  70.214  30.978  0.00  0.00    -0.204 F 
ATOM     20  C   LIG    1      -36.150  72.015  30.718  0.00  0.00    +0.153 A 
ATOM     21  N   LIG    1      -35.239  72.719  30.015  0.00  0.00    -0.218 NA
BRANCH  15  23
ATOM     22  C   LIG    1      -32.901  73.415  28.889  0.00  0.00    +0.279 C 
ATOM     23  O   LIG    1      -33.984  72.982  28.057  0.00  0.00    -0.479 OA
ENDBRANCH  15  23
ENDBRANCH  10  16
ENDBRANCH   1  11
BRANCH   4  24
ATOM     24  C   LIG    1      -37.341  75.751  25.631  0.00  0.00    +0.249 C 
ATOM     25  N   LIG    1      -36.625  75.447  26.775  0.00  0.00    -0.311 N 
ATOM     26  H   LIG    1      -36.872  74.600  27.264  0.00  0.00    +0.149 HD
ATOM     27  O   LIG    1      -37.244  76.824  25.065  0.00  0.00    -0.270 OA
BRANCH  25  28
ATOM     28  C   LIG    1      -35.792  76.461  27.419  0.00  0.00    +0.104 C 
BRANCH  28  29
ATOM     29  C   LIG    1      -34.323  76.320  27.008  0.00  0.00    +0.021 C 
BRANCH  29  30
ATOM     30  C   LIG    1      -33.486  77.550  27.376  0.00  0.00    +0.029 C 
BRANCH  30  31
ATOM     31  C   LIG    1      -32.218  77.654  26.532  0.00  0.00    +0.156 C 
BRANCH  31  32
ATOM     32  O   LIG    1      -32.349  78.750  25.635  0.00  0.00    -0.395 OA
ATOM     33  H   LIG    1      -31.555  78.762  25.073  0.00  0.00    +0.209 HD
ENDBRANCH  31  32
ENDBRANCH  30  31
ENDBRANCH  29  30
ENDBRANCH  28  29
ENDBRANCH  25  28
ENDBRANCH   4  24
TORSDOF 9
ENDMDL
MODEL 4
REMARK VINA RESULT:      -5.2     17.725     20.466
REMARK  Name = pdb/CHEMBL3676022.pdb
REMARK                            x       y       z     vdW  Elec       q    Type
REMARK                         _______ _______ _______ _____ _____    ______ ____
ROOT
ATOM      1  C   LIG    1      -33.237  92.789  20.348  0.00  0.00    +0.126 A 
ATOM      2  N   LIG    1      -32.982  92.936  21.632  0.00  0.00    -0.212 NA
ATOM      3  C   LIG    1      -31.881  93.676  22.001  0.00  0.00    +0.170 A 
ATOM      4  C   LIG    1      -31.338  94.006  23.219  0.00  0.00    +0.100 A 
ATOM      5  C   LIG    1      -30.318  94.937  22.908  0.00  0.00    +0.150 A 
ATOM      6  N   LIG    1      -30.136  95.095  21.596  0.00  0.00    -0.173 NA
ATOM      7  N   LIG    1      -31.066  94.288  21.039  0.00  0.00    -0.221 N 
ATOM      8  C   LIG    1      -31.258  94.056  19.691  0.00  0.00    +0.118 A 
ATOM      9  C   LIG    1      -32.290  93.309  19.281  0.00  0.00    +0.063 A 
ENDROOT
BRANCH   1  11
ATOM     10  C   LIG    1      -34.864  92.132  18.537  0.00  0.00    +0.110 C 
ATOM     11  N   LIG    1      -34.417  92.156  19.961  0.00  0.00    -0.308 N 
ATOM     12  C   LIG    1      -35.581  92.060  20.851  0.00  0.00    +0.107 C 
ATOM     13  C   LIG    1      -36.747  92.476  19.970  0.00  0.00    +0.021 C 
ATOM     14  C   LIG    1      -36.375  91.852  18.638  0.00  0.00    +0.029 C 
BRANCH  10  16
ATOM     15  C   LIG    1      -33.575  91.440  16.444  0.00  0.00    +0.220 A 
ATOM     16  C   LIG    1      -34.173  91.098  17.668  0.00  0.00    +0.037 A 
ATOM     17  C   LIG    1      -34.141  89.737  18.016  0.00  0.00    +0.050 A 
ATOM     18  C   LIG    1      -33.481  88.825  17.202  0.00  0.00    +0.142 A 
ATOM     19  F   LIG    1      -33.418  87.531  17.542  0.00  0.00    -0.204 F 
ATOM     20  C   LIG    1      -32.893  89.270  16.037  0.00  0.00    +0.153 A 
ATOM     21  N   LIG    1      -32.939  90.556  15.634  0.00  0.00    -0.218 NA
BRANCH  15  23
ATOM     22  C   LIG    1      -32.422  93.255  15.507  0.00  0.00    +0.279 C 
ATOM     23  O   LIG    1      -33.666  92.749  16.007  0.00  0.00    -0.479 OA
ENDBRANCH  15  23
ENDBRANCH  10  16
ENDBRANCH   1  11
BRANCH   4  24
ATOM     24  C   LIG    1      -31.667  93.587  24.585  0.00  0.00    +0.249 C 
ATOM     25  N   LIG    1      -32.196  92.317  24.725  0.00  0.00    -0.311 N 
ATOM     26  H   LIG    1      -32.484  91.840  23.884  0.00  0.00    +0.149 HD
ATOM     27  O   LIG    1      -31.450  94.313  25.536  0.00  0.00    -0.270 OA
BRANCH  25  28
ATOM     28  C   LIG    1      -32.624  91.833  26.036  0.00  0.00    +0.104 C 
BRANCH  28  29
ATOM     29  C   LIG    1      -34.124  92.058  26.251  0.00  0.00    +0.021 C 
BRANCH  29  30
ATOM     30  C   LIG    1      -34.853  90.789  26.705  0.00  0.00    +0.029 C 
BRANCH  30  31
ATOM     31  C   LIG    1      -36.101  90.515  25.870  0.00  0.00    +0.156 C 
BRANCH  31  32
ATOM     32  O   LIG    1      -35.863  89.385  25.040  0.00  0.00    -0.395 OA
ATOM     33  H   LIG    1      -36.646  88.809  25.101  0.00  0.00    +0.209 HD
ENDBRANCH  31  32
ENDBRANCH  30  31
ENDBRANCH  29  30
ENDBRANCH  28  29
ENDBRANCH  25  28
ENDBRANCH   4  24
TORSDOF 9
ENDMDL
MODEL 5
REMARK VINA RESULT:      -5.2     19.425     22.656
REMARK  Name = pdb/CHEMBL3676022.pdb
REMARK                            x       y       z     vdW  Elec       q    Type
REMARK                         _______ _______ _______ _____ _____    ______ ____
ROOT
ATOM      1  C   LIG    1      -19.986  81.679  14.366  0.00  0.00    +0.126 A 
ATOM      2  N   LIG    1      -20.000  82.991  14.251  0.00  0.00    -0.212 NA
ATOM      3  C   LIG    1      -18.919  83.610  13.663  0.00  0.00    +0.170 A 
ATOM      4  C   LIG    1      -18.617  84.925  13.407  0.00  0.00    +0.100 A 
ATOM      5  C   LIG    1      -17.441  84.867  12.619  0.00  0.00    +0.150 A 
ATOM      6  N   LIG    1      -16.959  83.630  12.489  0.00  0.00    -0.173 NA
ATOM      7  N   LIG    1      -17.841  82.864  13.166  0.00  0.00    -0.221 N 
ATOM      8  C   LIG    1      -17.764  81.500  13.373  0.00  0.00    +0.118 A 
ATOM      9  C   LIG    1      -18.770  80.857  13.977  0.00  0.00    +0.063 A 
ENDROOT
BRANCH   1  11
ATOM     10  C   LIG    1      -22.494  81.579  14.607  0.00  0.00    +0.110 C 
ATOM     11  N   LIG    1      -21.125  81.029  14.838  0.00  0.00    -0.308 N 
ATOM     12  C   LIG    1      -21.113  80.220  16.062  0.00  0.00    +0.107 C 
ATOM     13  C   LIG    1      -22.341  80.691  16.822  0.00  0.00    +0.021 C 
ATOM     14  C   LIG    1      -23.342  80.905  15.701  0.00  0.00    +0.029 C 
BRANCH  10  16
ATOM     15  C   LIG    1      -23.266  82.341  12.295  0.00  0.00    +0.220 A 
ATOM     16  C   LIG    1      -23.066  81.310  13.228  0.00  0.00    +0.037 A 
ATOM     17  C   LIG    1      -23.474  80.025  12.832  0.00  0.00    +0.050 A 
ATOM     18  C   LIG    1      -23.975  79.817  11.553  0.00  0.00    +0.142 A 
ATOM     19  F   LIG    1      -24.337  78.591  11.155  0.00  0.00    -0.204 F 
ATOM     20  C   LIG    1      -24.098  80.892  10.697  0.00  0.00    +0.153 A 
ATOM     21  N   LIG    1      -23.768  82.152  11.048  0.00  0.00    -0.218 NA
BRANCH  15  23
ATOM     22  C   LIG    1      -22.207  84.343  11.689  0.00  0.00    +0.279 C 
ATOM     23  O   LIG    1      -22.975  83.639  12.673  0.00  0.00    -0.479 OA
ENDBRANCH  15  23
ENDBRANCH  10  16
ENDBRANCH   1  11
BRANCH   4  24
ATOM     24  C   LIG    1      -19.286  86.175  13.776  0.00  0.00    +0.249 C 
ATOM     25  N   LIG    1      -20.506  86.050  14.416  0.00  0.00    -0.311 N 
ATOM     26  H   LIG    1      -20.932  85.136  14.426  0.00  0.00    +0.149 HD
ATOM     27  O   LIG    1      -18.770  87.255  13.556  0.00  0.00    -0.270 OA
BRANCH  25  28
ATOM     28  C   LIG    1      -21.287  87.238  14.760  0.00  0.00    +0.104 C 
BRANCH  28  29
ATOM     29  C   LIG    1      -22.594  87.296  13.962  0.00  0.00    +0.021 C 
BRANCH  29  30
ATOM     30  C   LIG    1      -22.450  88.075  12.651  0.00  0.00    +0.029 C 
BRANCH  30  31
ATOM     31  C   LIG    1      -21.460  89.230  12.775  0.00  0.00    +0.156 C 
BRANCH  31  32
ATOM     32  O   LIG    1      -20.407  89.038  11.837  0.00  0.00    -0.395 OA
ATOM     33  H   LIG    1      -19.568  89.136  12.319  0.00  0.00    +0.209 HD
ENDBRANCH  31  32
ENDBRANCH  30  31
ENDBRANCH  29  30
ENDBRANCH  28  29
ENDBRANCH  25  28
ENDBRANCH   4  24
TORSDOF 9
ENDMDL
MODEL 6
REMARK VINA RESULT:      -5.2     19.389     23.306
REMARK  Name = pdb/CHEMBL3676022.pdb
REMARK                            x       y       z     vdW  Elec       q    Type
REMARK                         _______ _______ _______ _____ _____    ______ ____
ROOT
ATOM      1  C   LIG    1      -22.775  85.902  12.517  0.00  0.00    +0.126 A 
ATOM      2  N   LIG    1      -22.949  84.677  12.969  0.00  0.00    -0.212 NA
ATOM      3  C   LIG    1      -23.551  83.753  12.145  0.00  0.00    +0.170 A 
ATOM      4  C   LIG    1      -23.886  82.430  12.305  0.00  0.00    +0.100 A 
ATOM      5  C   LIG    1      -24.310  82.018  11.018  0.00  0.00    +0.150 A 
ATOM      6  N   LIG    1      -24.365  83.020  10.139  0.00  0.00    -0.173 NA
ATOM      7  N   LIG    1      -23.941  84.093  10.842  0.00  0.00    -0.221 N 
ATOM      8  C   LIG    1      -23.862  85.397  10.392  0.00  0.00    +0.118 A 
ATOM      9  C   LIG    1      -23.322  86.342  11.171  0.00  0.00    +0.063 A 
ENDROOT
BRANCH   1  11
ATOM     10  C   LIG    1      -20.927  86.373  14.168  0.00  0.00    +0.110 C 
ATOM     11  N   LIG    1      -22.051  86.810  13.288  0.00  0.00    -0.308 N 
ATOM     12  C   LIG    1      -22.655  88.036  13.824  0.00  0.00    +0.107 C 
ATOM     13  C   LIG    1      -22.217  88.052  15.278  0.00  0.00    +0.021 C 
ATOM     14  C   LIG    1      -20.799  87.520  15.186  0.00  0.00    +0.029 C 
BRANCH  10  16
ATOM     15  C   LIG    1      -19.100  84.833  13.264  0.00  0.00    +0.220 A 
ATOM     16  C   LIG    1      -19.613  86.128  13.451  0.00  0.00    +0.037 A 
ATOM     17  C   LIG    1      -18.815  87.186  12.982  0.00  0.00    +0.050 A 
ATOM     18  C   LIG    1      -17.627  86.918  12.313  0.00  0.00    +0.142 A 
ATOM     19  F   LIG    1      -16.876  87.918  11.835  0.00  0.00    -0.204 F 
ATOM     20  C   LIG    1      -17.230  85.608  12.149  0.00  0.00    +0.153 A 
ATOM     21  N   LIG    1      -17.935  84.560  12.624  0.00  0.00    -0.218 NA
BRANCH  15  23
ATOM     22  C   LIG    1      -19.628  82.560  13.039  0.00  0.00    +0.279 C 
ATOM     23  O   LIG    1      -19.798  83.764  13.796  0.00  0.00    -0.479 OA
ENDBRANCH  15  23
ENDBRANCH  10  16
ENDBRANCH   1  11
BRANCH   4  24
ATOM     24  C   LIG    1      -23.832  81.539  13.467  0.00  0.00    +0.249 C 
ATOM     25  N   LIG    1      -22.671  80.803  13.621  0.00  0.00    -0.311 N 
ATOM     26  H   LIG    1      -22.025  80.791  12.846  0.00  0.00    +0.149 HD
ATOM     27  O   LIG    1      -24.751  81.484  14.262  0.00  0.00    -0.270 OA
BRANCH  25  28
ATOM     28  C   LIG    1      -22.548  79.832  14.707  0.00  0.00    +0.104 C 
BRANCH  28  29
ATOM     29  C   LIG    1      -21.675  80.375  15.843  0.00  0.00    +0.021 C 
BRANCH  29  30
ATOM     30  C   LIG    1      -22.497  81.027  16.959  0.00  0.00    +0.029 C 
BRANCH  30  31
ATOM     31  C   LIG    1      -22.483  82.551  16.867  0.00  0.00    +0.156 C 
BRANCH  31  32
ATOM     32  O   LIG    1      -21.636  82.940  15.793  0.00  0.00    -0.395 OA
ATOM     33  H   LIG    1      -22.166  82.906  14.978  0.00  0.00    +0.209 HD
ENDBRANCH  31  32
ENDBRANCH  30  31
ENDBRANCH  29  30
ENDBRANCH  28  29
ENDBRANCH  25  28
ENDBRANCH   4  24
TORSDOF 9
ENDMDL
MODEL 7
REMARK VINA RESULT:      -5.2     13.512     16.397
REMARK  Name = pdb/CHEMBL3676022.pdb
REMARK                            x       y       z     vdW  Elec       q    Type
REMARK                         _______ _______ _______ _____ _____    ______ ____
ROOT
ATOM      1  C   LIG    1      -23.042  78.339  33.090  0.00  0.00    +0.126 A 
ATOM      2  N   LIG    1      -21.729  78.235  33.083  0.00  0.00    -0.212 NA
ATOM      3  C   LIG    1      -21.009  78.955  34.011  0.00  0.00    +0.170 A 
ATOM      4  C   LIG    1      -19.665  79.081  34.262  0.00  0.00    +0.100 A 
ATOM      5  C   LIG    1      -19.601  79.827  35.464  0.00  0.00    +0.150 A 
ATOM      6  N   LIG    1      -20.796  80.254  35.878  0.00  0.00    -0.173 NA
ATOM      7  N   LIG    1      -21.655  79.755  34.963  0.00  0.00    -0.221 N 
ATOM      8  C   LIG    1      -23.021  79.957  34.916  0.00  0.00    +0.118 A 
ATOM      9  C   LIG    1      -23.761  79.313  34.007  0.00  0.00    +0.063 A 
ENDROOT
BRANCH   1  11
ATOM     10  C   LIG    1      -23.355  76.130  31.915  0.00  0.00    +0.110 C 
ATOM     11  N   LIG    1      -23.789  77.518  32.247  0.00  0.00    -0.308 N 
ATOM     12  C   LIG    1      -24.606  78.059  31.153  0.00  0.00    +0.107 C 
ATOM     13  C   LIG    1      -24.248  77.184  29.964  0.00  0.00    +0.021 C 
ATOM     14  C   LIG    1      -24.108  75.817  30.609  0.00  0.00    +0.029 C 
BRANCH  10  16
ATOM     15  C   LIG    1      -22.872  73.940  33.139  0.00  0.00    +0.220 A 
ATOM     16  C   LIG    1      -23.657  75.094  32.982  0.00  0.00    +0.037 A 
ATOM     17  C   LIG    1      -24.768  75.210  33.835  0.00  0.00    +0.050 A 
ATOM     18  C   LIG    1      -25.000  74.249  34.812  0.00  0.00    +0.142 A 
ATOM     19  F   LIG    1      -26.037  74.367  35.649  0.00  0.00    -0.204 F 
ATOM     20  C   LIG    1      -24.145  73.170  34.907  0.00  0.00    +0.153 A 
ATOM     21  N   LIG    1      -23.095  72.988  34.081  0.00  0.00    -0.218 NA
BRANCH  15  23
ATOM     22  C   LIG    1      -20.611  73.355  32.921  0.00  0.00    +0.279 C 
ATOM     23  O   LIG    1      -21.825  73.729  32.259  0.00  0.00    -0.479 OA
ENDBRANCH  15  23
ENDBRANCH  10  16
ENDBRANCH   1  11
BRANCH   4  24
ATOM     24  C   LIG    1      -18.483  78.582  33.552  0.00  0.00    +0.249 C 
ATOM     25  N   LIG    1      -18.681  78.175  32.245  0.00  0.00    -0.311 N 
ATOM     26  H   LIG    1      -19.634  78.079  31.930  0.00  0.00    +0.149 HD
ATOM     27  O   LIG    1      -17.389  78.564  34.084  0.00  0.00    -0.270 OA
BRANCH  25  28
ATOM     28  C   LIG    1      -17.582  77.595  31.475  0.00  0.00    +0.104 C 
BRANCH  28  29
ATOM     29  C   LIG    1      -18.093  76.558  30.469  0.00  0.00    +0.021 C 
BRANCH  29  30
ATOM     30  C   LIG    1      -19.577  76.228  30.663  0.00  0.00    +0.029 C 
BRANCH  30  31
ATOM     31  C   LIG    1      -20.451  76.864  29.586  0.00  0.00    +0.156 C 
BRANCH  31  32
ATOM     32  O   LIG    1      -20.866  78.151  30.027  0.00  0.00    -0.395 OA
ATOM     33  H   LIG    1      -21.100  78.074  30.968  0.00  0.00    +0.209 HD
ENDBRANCH  31  32
ENDBRANCH  30  31
ENDBRANCH  29  30
ENDBRANCH  28  29
ENDBRANCH  25  28
ENDBRANCH   4  24
TORSDOF 9
ENDMDL
MODEL 8
REMARK VINA RESULT:      -5.1     17.572     20.942
REMARK  Name = pdb/CHEMBL3676022.pdb
REMARK                            x       y       z     vdW  Elec       q    Type
REMARK                         _______ _______ _______ _____ _____    ______ ____
ROOT
ATOM      1  C   LIG    1      -23.301  81.778  13.431  0.00  0.00    +0.126 A 
ATOM      2  N   LIG    1      -23.613  83.007  13.076  0.00  0.00    -0.212 NA
ATOM      3  C   LIG    1      -24.397  83.188  11.958  0.00  0.00    +0.170 A 
ATOM      4  C   LIG    1      -24.881  84.306  11.323  0.00  0.00    +0.100 A 
ATOM      5  C   LIG    1      -25.767  83.796  10.343  0.00  0.00    +0.150 A 
ATOM      6  N   LIG    1      -25.755  82.463  10.269  0.00  0.00    -0.173 NA
ATOM      7  N   LIG    1      -24.882  82.092  11.230  0.00  0.00    -0.221 N 
ATOM      8  C   LIG    1      -24.477  80.805  11.528  0.00  0.00    +0.118 A 
ATOM      9  C   LIG    1      -23.682  80.580  12.580  0.00  0.00    +0.063 A 
ENDROOT
BRANCH   1  11
ATOM     10  C   LIG    1      -23.146  80.655  15.683  0.00  0.00    +0.110 C 
ATOM     11  N   LIG    1      -22.621  81.573  14.630  0.00  0.00    -0.308 N 
ATOM     12  C   LIG    1      -21.792  82.616  15.247  0.00  0.00    +0.107 C 
ATOM     13  C   LIG    1      -22.225  82.611  16.703  0.00  0.00    +0.021 C 
ATOM     14  C   LIG    1      -22.438  81.131  16.964  0.00  0.00    +0.029 C 
BRANCH  10  16
ATOM     15  C   LIG    1      -23.918  78.227  15.498  0.00  0.00    +0.220 A 
ATOM     16  C   LIG    1      -22.889  79.181  15.432  0.00  0.00    +0.037 A 
ATOM     17  C   LIG    1      -21.599  78.687  15.171  0.00  0.00    +0.050 A 
ATOM     18  C   LIG    1      -21.409  77.332  14.927  0.00  0.00    +0.142 A 
ATOM     19  F   LIG    1      -20.189  76.857  14.647  0.00  0.00    -0.204 F 
ATOM     20  C   LIG    1      -22.494  76.482  14.979  0.00  0.00    +0.153 A 
ATOM     21  N   LIG    1      -23.742  76.900  15.274  0.00  0.00    -0.218 NA
BRANCH  15  23
ATOM     22  C   LIG    1      -26.098  78.648  14.744  0.00  0.00    +0.279 C 
ATOM     23  O   LIG    1      -25.188  78.648  15.850  0.00  0.00    -0.479 OA
ENDBRANCH  15  23
ENDBRANCH  10  16
ENDBRANCH   1  11
BRANCH   4  24
ATOM     24  C   LIG    1      -24.641  85.736  11.535  0.00  0.00    +0.249 C 
ATOM     25  N   LIG    1      -23.422  86.075  12.094  0.00  0.00    -0.311 N 
ATOM     26  H   LIG    1      -22.865  85.327  12.478  0.00  0.00    +0.149 HD
ATOM     27  O   LIG    1      -25.463  86.569  11.202  0.00  0.00    -0.270 OA
BRANCH  25  28
ATOM     28  C   LIG    1      -23.116  87.469  12.413  0.00  0.00    +0.104 C 
BRANCH  28  29
ATOM     29  C   LIG    1      -22.597  87.611  13.848  0.00  0.00    +0.021 C 
BRANCH  29  30
ATOM     30  C   LIG    1      -21.821  86.378  14.320  0.00  0.00    +0.029 C 
BRANCH  30  31
ATOM     31  C   LIG    1      -20.313  86.559  14.176  0.00  0.00    +0.156 C 
BRANCH  31  32
ATOM     32  O   LIG    1      -19.893  87.628  15.015  0.00  0.00    -0.395 OA
ATOM     33  H   LIG    1      -19.942  88.446  14.491  0.00  0.00    +0.209 HD
ENDBRANCH  31  32
ENDBRANCH  30  31
ENDBRANCH  29  30
ENDBRANCH  28  29
ENDBRANCH  25  28
ENDBRANCH   4  24
TORSDOF 9
ENDMDL
MODEL 9
REMARK VINA RESULT:      -5.1      3.770      6.359
REMARK  Name = pdb/CHEMBL3676022.pdb
REMARK                            x       y       z     vdW  Elec       q    Type
REMARK                         _______ _______ _______ _____ _____    ______ ____
ROOT
ATOM      1  C   LIG    1      -39.317  78.719  27.248  0.00  0.00    +0.126 A 
ATOM      2  N   LIG    1      -38.060  79.032  27.486  0.00  0.00    -0.212 NA
ATOM      3  C   LIG    1      -37.587  78.910  28.774  0.00  0.00    +0.170 A 
ATOM      4  C   LIG    1      -36.366  79.158  29.352  0.00  0.00    +0.100 A 
ATOM      5  C   LIG    1      -36.492  78.654  30.669  0.00  0.00    +0.150 A 
ATOM      6  N   LIG    1      -37.727  78.235  30.953  0.00  0.00    -0.173 NA
ATOM      7  N   LIG    1      -38.409  78.433  29.804  0.00  0.00    -0.221 N 
ATOM      8  C   LIG    1      -39.755  78.202  29.592  0.00  0.00    +0.118 A 
ATOM      9  C   LIG    1      -40.274  78.346  28.366  0.00  0.00    +0.063 A 
ENDROOT
BRANCH   1  11
ATOM     10  C   LIG    1      -38.954  78.143  24.820  0.00  0.00    +0.110 C 
ATOM     11  N   LIG    1      -39.773  78.711  25.931  0.00  0.00    -0.308 N 
ATOM     12  C   LIG    1      -40.670  79.750  25.408  0.00  0.00    +0.107 C 
ATOM     13  C   LIG    1      -40.037  80.143  24.084  0.00  0.00    +0.021 C 
ATOM     14  C   LIG    1      -39.542  78.807  23.561  0.00  0.00    +0.029 C 
BRANCH  10  16
ATOM     15  C   LIG    1      -37.913  75.830  25.117  0.00  0.00    +0.220 A 
ATOM     16  C   LIG    1      -38.992  76.630  24.707  0.00  0.00    +0.037 A 
ATOM     17  C   LIG    1      -40.087  75.955  24.142  0.00  0.00    +0.050 A 
ATOM     18  C   LIG    1      -40.091  74.567  24.075  0.00  0.00    +0.142 A 
ATOM     19  F   LIG    1      -41.142  73.914  23.566  0.00  0.00    -0.204 F 
ATOM     20  C   LIG    1      -38.994  73.871  24.539  0.00  0.00    +0.153 A 
ATOM     21  N   LIG    1      -37.899  74.474  25.044  0.00  0.00    -0.218 NA
BRANCH  15  23
ATOM     22  C   LIG    1      -36.350  75.948  26.861  0.00  0.00    +0.279 C 
ATOM     23  O   LIG    1      -36.771  76.452  25.588  0.00  0.00    -0.479 OA
ENDBRANCH  15  23
ENDBRANCH  10  16
ENDBRANCH   1  11
BRANCH   4  24
ATOM     24  C   LIG    1      -35.138  79.763  28.828  0.00  0.00    +0.249 C 
ATOM     25  N   LIG    1      -34.634  79.214  27.663  0.00  0.00    -0.311 N 
ATOM     26  H   LIG    1      -35.031  78.340  27.354  0.00  0.00    +0.149 HD
ATOM     27  O   LIG    1      -34.620  80.716  29.380  0.00  0.00    -0.270 OA
BRANCH  25  28
ATOM     28  C   LIG    1      -33.375  79.699  27.099  0.00  0.00    +0.104 C 
BRANCH  28  29
ATOM     29  C   LIG    1      -32.269  78.645  27.219  0.00  0.00    +0.021 C 
BRANCH  29  30
ATOM     30  C   LIG    1      -32.822  77.223  27.364  0.00  0.00    +0.029 C 
BRANCH  30  31
ATOM     31  C   LIG    1      -32.415  76.582  28.688  0.00  0.00    +0.156 C 
BRANCH  31  32
ATOM     32  O   LIG    1      -33.070  77.263  29.751  0.00  0.00    -0.395 OA
ATOM     33  H   LIG    1      -33.604  77.974  29.356  0.00  0.00    +0.209 HD
ENDBRANCH  31  32
ENDBRANCH  30  31
ENDBRANCH  29  30
ENDBRANCH  28  29
ENDBRANCH  25  28
ENDBRANCH   4  24
TORSDOF 9
ENDMDL
