MODEL 1
REMARK VINA RESULT:      -6.3      0.000      0.000
REMARK  Name = pdb/CHEMBL1970142.pdb
REMARK                            x       y       z     vdW  Elec       q    Type
REMARK                         _______ _______ _______ _____ _____    ______ ____
ROOT
ATOM      1  C   LIG    1      -22.822  80.804  15.608  0.00  0.00    +0.018 A 
ATOM      2  C   LIG    1      -22.940  81.717  14.535  0.00  0.00    +0.032 A 
ATOM      3  S   LIG    1      -23.325  81.372  12.888  0.00  0.00    -0.095 S 
ATOM      4  C   LIG    1      -23.064  82.964  12.391  0.00  0.00    +0.055 A 
ATOM      5  C   LIG    1      -22.751  83.820  13.428  0.00  0.00    +0.000 A 
ATOM      6  C   LIG    1      -22.744  83.103  14.721  0.00  0.00    +0.037 A 
ATOM      7  C   LIG    1      -22.555  83.551  16.060  0.00  0.00    +0.125 A 
ATOM      8  N   LIG    1      -22.411  82.675  17.071  0.00  0.00    -0.239 NA
ATOM      9  C   LIG    1      -22.521  81.364  16.838  0.00  0.00    +0.122 A 
ENDROOT
BRANCH   5  10
ATOM     10  C   LIG    1      -22.395  85.222  13.122  0.00  0.00    -0.017 A 
ATOM     11  C   LIG    1      -23.235  86.296  13.451  0.00  0.00    +0.010 A 
ATOM     12  C   LIG    1      -22.909  87.616  13.077  0.00  0.00    +0.024 A 
ATOM     13  C   LIG    1      -21.697  87.914  12.440  0.00  0.00    +0.035 A 
ATOM     14  C   LIG    1      -20.832  86.854  12.176  0.00  0.00    +0.024 A 
ATOM     15  C   LIG    1      -21.211  85.527  12.448  0.00  0.00    +0.010 A 
BRANCH  13  16
ATOM     16  N   LIG    1      -21.435  89.265  12.088  0.00  0.00    -0.269 N 
ATOM     17  H   LIG    1      -20.774  89.754  12.673  0.00  0.00    +0.156 HD
ATOM     18  C   LIG    1      -22.017  90.015  11.076  0.00  0.00    +0.308 C 
ATOM     19  N   LIG    1      -21.527  91.318  11.048  0.00  0.00    -0.269 N 
ATOM     20  H   LIG    1      -20.566  91.415  11.340  0.00  0.00    +0.156 HD
ATOM     21  O   LIG    1      -22.845  89.582  10.259  0.00  0.00    -0.252 OA
BRANCH  19  22
ATOM     22  C   LIG    1      -21.987  92.313  10.147  0.00  0.00    +0.035 A 
ATOM     23  C   LIG    1      -23.140  93.037  10.466  0.00  0.00    +0.023 A 
ATOM     24  C   LIG    1      -23.601  94.055   9.620  0.00  0.00    +0.005 A 
ATOM     25  C   LIG    1      -22.976  94.298   8.393  0.00  0.00    -0.050 A 
ATOM     26  C   LIG    1      -23.485  95.365   7.468  0.00  0.00    +0.044 C 
ATOM     27  C   LIG    1      -21.855  93.532   8.049  0.00  0.00    +0.005 A 
ATOM     28  C   LIG    1      -21.351  92.562   8.928  0.00  0.00    +0.023 A 
ENDBRANCH  19  22
ENDBRANCH  13  16
ENDBRANCH   5  10
BRANCH   1  32
ATOM     29  N   LIG    1      -22.420  77.269  15.055  0.00  0.00    -0.259 N 
ATOM     30  N   LIG    1      -23.744  77.226  15.288  0.00  0.00    -0.178 NA
ATOM     31  C   LIG    1      -24.067  78.499  15.523  0.00  0.00    +0.143 A 
ATOM     32  C   LIG    1      -22.959  79.372  15.454  0.00  0.00    +0.022 A 
ATOM     33  C   LIG    1      -21.899  78.528  15.204  0.00  0.00    +0.117 A 
BRANCH  29  34
ATOM     34  C   LIG    1      -21.696  76.045  14.715  0.00  0.00    +0.189 C 
ATOM     35  C   LIG    1      -22.327  75.391  13.482  0.00  0.00    +0.042 C 
BRANCH  34  39
ATOM     36  C   LIG    1      -22.625  73.617  17.616  0.00  0.00    +0.128 C 
ATOM     37  N   LIG    1      -22.635  74.533  16.499  0.00  0.00    -0.317 N 
ATOM     38  H   LIG    1      -23.556  74.772  16.168  0.00  0.00    +0.148 HD
ATOM     39  C   LIG    1      -21.512  75.063  15.899  0.00  0.00    +0.237 C 
ATOM     40  O   LIG    1      -20.381  74.769  16.295  0.00  0.00    -0.273 OA
ENDBRANCH  34  39
ENDBRANCH  29  34
ENDBRANCH   1  32
BRANCH   7  41
ATOM     41  N   LIG    1      -22.555  84.875  16.475  0.00  0.00    -0.343 N 
ATOM     42  H   LIG    1      -21.643  85.308  16.416  0.00  0.00    +0.144 HD
ATOM     43  H   LIG    1      -23.294  85.368  15.982  0.00  0.00    +0.144 HD
ENDBRANCH   7  41
TORSDOF 7
ENDMDL
MODEL 2
REMARK VINA RESULT:      -6.2     19.741     21.608
REMARK  Name = pdb/CHEMBL1970142.pdb
REMARK                            x       y       z     vdW  Elec       q    Type
REMARK                         _______ _______ _______ _____ _____    ______ ____
ROOT
ATOM      1  C   LIG    1      -32.193  88.175  31.083  0.00  0.00    +0.018 A 
ATOM      2  C   LIG    1      -33.284  87.446  30.559  0.00  0.00    +0.032 A 
ATOM      3  S   LIG    1      -34.090  86.091  31.262  0.00  0.00    -0.095 S 
ATOM      4  C   LIG    1      -35.055  85.834  29.902  0.00  0.00    +0.055 A 
ATOM      5  C   LIG    1      -34.869  86.775  28.909  0.00  0.00    +0.000 A 
ATOM      6  C   LIG    1      -33.868  87.782  29.317  0.00  0.00    +0.037 A 
ATOM      7  C   LIG    1      -33.393  88.968  28.686  0.00  0.00    +0.125 A 
ATOM      8  N   LIG    1      -32.334  89.639  29.174  0.00  0.00    -0.239 NA
ATOM      9  C   LIG    1      -31.756  89.237  30.310  0.00  0.00    +0.122 A 
ENDROOT
BRANCH   5  10
ATOM     10  C   LIG    1      -35.575  86.611  27.620  0.00  0.00    -0.017 A 
ATOM     11  C   LIG    1      -35.240  85.601  26.706  0.00  0.00    +0.010 A 
ATOM     12  C   LIG    1      -35.876  85.516  25.450  0.00  0.00    +0.024 A 
ATOM     13  C   LIG    1      -36.922  86.381  25.104  0.00  0.00    +0.035 A 
ATOM     14  C   LIG    1      -37.302  87.340  26.042  0.00  0.00    +0.024 A 
ATOM     15  C   LIG    1      -36.590  87.494  27.245  0.00  0.00    +0.010 A 
BRANCH  13  16
ATOM     16  N   LIG    1      -37.515  86.241  23.820  0.00  0.00    -0.269 N 
ATOM     17  H   LIG    1      -37.078  86.758  23.072  0.00  0.00    +0.156 HD
ATOM     18  C   LIG    1      -38.655  85.528  23.477  0.00  0.00    +0.308 C 
ATOM     19  N   LIG    1      -38.950  85.643  22.121  0.00  0.00    -0.269 N 
ATOM     20  H   LIG    1      -38.146  85.744  21.520  0.00  0.00    +0.156 HD
ATOM     21  O   LIG    1      -39.320  84.833  24.261  0.00  0.00    -0.252 OA
BRANCH  19  22
ATOM     22  C   LIG    1      -40.089  85.058  21.511  0.00  0.00    +0.035 A 
ATOM     23  C   LIG    1      -39.928  83.897  20.747  0.00  0.00    +0.023 A 
ATOM     24  C   LIG    1      -41.035  83.267  20.163  0.00  0.00    +0.005 A 
ATOM     25  C   LIG    1      -42.307  83.842  20.248  0.00  0.00    -0.050 A 
ATOM     26  C   LIG    1      -43.492  83.189  19.595  0.00  0.00    +0.044 C 
ATOM     27  C   LIG    1      -42.457  85.035  20.964  0.00  0.00    +0.005 A 
ATOM     28  C   LIG    1      -41.361  85.628  21.609  0.00  0.00    +0.023 A 
ENDBRANCH  19  22
ENDBRANCH  13  16
ENDBRANCH   5  10
BRANCH   1  32
ATOM     29  N   LIG    1      -29.998  87.047  33.706  0.00  0.00    -0.259 N 
ATOM     30  N   LIG    1      -30.982  87.472  34.518  0.00  0.00    -0.178 NA
ATOM     31  C   LIG    1      -31.908  87.941  33.679  0.00  0.00    +0.143 A 
ATOM     32  C   LIG    1      -31.529  87.833  32.323  0.00  0.00    +0.022 A 
ATOM     33  C   LIG    1      -30.259  87.299  32.384  0.00  0.00    +0.117 A 
BRANCH  29  34
ATOM     34  C   LIG    1      -28.803  86.421  34.269  0.00  0.00    +0.189 C 
ATOM     35  C   LIG    1      -29.205  85.331  35.267  0.00  0.00    +0.042 C 
BRANCH  34  39
ATOM     36  C   LIG    1      -27.276  89.797  35.471  0.00  0.00    +0.128 C 
ATOM     37  N   LIG    1      -28.130  88.747  34.967  0.00  0.00    -0.317 N 
ATOM     38  H   LIG    1      -29.051  89.056  34.700  0.00  0.00    +0.148 HD
ATOM     39  C   LIG    1      -27.769  87.421  34.842  0.00  0.00    +0.237 C 
ATOM     40  O   LIG    1      -26.645  87.036  35.174  0.00  0.00    -0.273 OA
ENDBRANCH  34  39
ENDBRANCH  29  34
ENDBRANCH   1  32
BRANCH   7  41
ATOM     41  N   LIG    1      -33.971  89.581  27.583  0.00  0.00    -0.343 N 
ATOM     42  H   LIG    1      -34.893  89.951  27.773  0.00  0.00    +0.144 HD
ATOM     43  H   LIG    1      -33.311  90.254  27.205  0.00  0.00    +0.144 HD
ENDBRANCH   7  41
TORSDOF 7
ENDMDL
MODEL 3
REMARK VINA RESULT:      -6.1     20.405     23.624
REMARK  Name = pdb/CHEMBL1970142.pdb
REMARK                            x       y       z     vdW  Elec       q    Type
REMARK                         _______ _______ _______ _____ _____    ______ ____
ROOT
ATOM      1  C   LIG    1      -26.986  91.799  35.013  0.00  0.00    +0.018 A 
ATOM      2  C   LIG    1      -27.553  90.511  34.888  0.00  0.00    +0.032 A 
ATOM      3  S   LIG    1      -27.148  89.084  35.773  0.00  0.00    -0.095 S 
ATOM      4  C   LIG    1      -28.164  88.104  34.847  0.00  0.00    +0.055 A 
ATOM      5  C   LIG    1      -28.888  88.801  33.899  0.00  0.00    +0.000 A 
ATOM      6  C   LIG    1      -28.586  90.246  33.962  0.00  0.00    +0.037 A 
ATOM      7  C   LIG    1      -29.118  91.364  33.258  0.00  0.00    +0.125 A 
ATOM      8  N   LIG    1      -28.553  92.580  33.357  0.00  0.00    -0.239 NA
ATOM      9  C   LIG    1      -27.521  92.771  34.184  0.00  0.00    +0.122 A 
ENDROOT
BRANCH   5  10
ATOM     10  C   LIG    1      -29.739  88.051  32.950  0.00  0.00    -0.017 A 
ATOM     11  C   LIG    1      -30.874  87.340  33.365  0.00  0.00    +0.010 A 
ATOM     12  C   LIG    1      -31.624  86.569  32.452  0.00  0.00    +0.024 A 
ATOM     13  C   LIG    1      -31.313  86.554  31.086  0.00  0.00    +0.035 A 
ATOM     14  C   LIG    1      -30.226  87.319  30.664  0.00  0.00    +0.024 A 
ATOM     15  C   LIG    1      -29.415  87.994  31.593  0.00  0.00    +0.010 A 
BRANCH  13  16
ATOM     16  N   LIG    1      -32.108  85.753  30.223  0.00  0.00    -0.269 N 
ATOM     17  H   LIG    1      -31.670  84.915  29.870  0.00  0.00    +0.156 HD
ATOM     18  C   LIG    1      -33.390  86.007  29.757  0.00  0.00    +0.308 C 
ATOM     19  N   LIG    1      -33.840  85.003  28.903  0.00  0.00    -0.269 N 
ATOM     20  H   LIG    1      -33.489  84.080  29.112  0.00  0.00    +0.156 HD
ATOM     21  O   LIG    1      -34.083  86.983  30.084  0.00  0.00    -0.252 OA
BRANCH  19  22
ATOM     22  C   LIG    1      -35.097  85.035  28.245  0.00  0.00    +0.035 A 
ATOM     23  C   LIG    1      -36.177  84.351  28.811  0.00  0.00    +0.023 A 
ATOM     24  C   LIG    1      -37.443  84.393  28.211  0.00  0.00    +0.005 A 
ATOM     25  C   LIG    1      -37.627  85.036  26.983  0.00  0.00    -0.050 A 
ATOM     26  C   LIG    1      -38.973  85.056  26.319  0.00  0.00    +0.044 C 
ATOM     27  C   LIG    1      -36.530  85.672  26.389  0.00  0.00    +0.005 A 
ATOM     28  C   LIG    1      -35.280  85.690  27.025  0.00  0.00    +0.023 A 
ENDBRANCH  19  22
ENDBRANCH  13  16
ENDBRANCH   5  10
BRANCH   1  32
ATOM     29  N   LIG    1      -23.844  92.558  36.598  0.00  0.00    -0.259 N 
ATOM     30  N   LIG    1      -24.561  92.491  37.734  0.00  0.00    -0.178 NA
ATOM     31  C   LIG    1      -25.796  92.210  37.313  0.00  0.00    +0.143 A 
ATOM     32  C   LIG    1      -25.890  92.104  35.908  0.00  0.00    +0.022 A 
ATOM     33  C   LIG    1      -24.613  92.393  35.477  0.00  0.00    +0.117 A 
BRANCH  29  34
ATOM     34  C   LIG    1      -22.405  92.815  36.656  0.00  0.00    +0.189 C 
ATOM     35  C   LIG    1      -22.068  94.076  35.855  0.00  0.00    +0.042 C 
BRANCH  34  39
ATOM     36  C   LIG    1      -19.844  90.641  34.684  0.00  0.00    +0.128 C 
ATOM     37  N   LIG    1      -20.710  91.691  35.168  0.00  0.00    -0.317 N 
ATOM     38  H   LIG    1      -20.682  92.536  34.621  0.00  0.00    +0.148 HD
ATOM     39  C   LIG    1      -21.525  91.598  36.278  0.00  0.00    +0.237 C 
ATOM     40  O   LIG    1      -21.558  90.568  36.957  0.00  0.00    -0.273 OA
ENDBRANCH  34  39
ENDBRANCH  29  34
ENDBRANCH   1  32
BRANCH   7  41
ATOM     41  N   LIG    1      -30.261  91.351  32.471  0.00  0.00    -0.343 N 
ATOM     42  H   LIG    1      -30.172  91.912  31.633  0.00  0.00    +0.144 HD
ATOM     43  H   LIG    1      -30.532  90.385  32.310  0.00  0.00    +0.144 HD
ENDBRANCH   7  41
TORSDOF 7
ENDMDL
MODEL 4
REMARK VINA RESULT:      -6.0     19.702     24.411
REMARK  Name = pdb/CHEMBL1970142.pdb
REMARK                            x       y       z     vdW  Elec       q    Type
REMARK                         _______ _______ _______ _____ _____    ______ ____
ROOT
ATOM      1  C   LIG    1      -34.726  78.864  29.080  0.00  0.00    +0.018 A 
ATOM      2  C   LIG    1      -35.777  78.375  28.271  0.00  0.00    +0.032 A 
ATOM      3  S   LIG    1      -37.246  79.176  27.844  0.00  0.00    -0.095 S 
ATOM      4  C   LIG    1      -37.876  77.816  27.068  0.00  0.00    +0.055 A 
ATOM      5  C   LIG    1      -37.003  76.746  27.035  0.00  0.00    +0.000 A 
ATOM      6  C   LIG    1      -35.722  77.091  27.685  0.00  0.00    +0.037 A 
ATOM      7  C   LIG    1      -34.503  76.369  27.838  0.00  0.00    +0.125 A 
ATOM      8  N   LIG    1      -33.521  76.825  28.635  0.00  0.00    -0.239 NA
ATOM      9  C   LIG    1      -33.648  78.010  29.239  0.00  0.00    +0.122 A 
ENDROOT
BRANCH   5  10
ATOM     10  C   LIG    1      -37.464  75.457  26.477  0.00  0.00    -0.017 A 
ATOM     11  C   LIG    1      -37.476  74.276  27.232  0.00  0.00    +0.010 A 
ATOM     12  C   LIG    1      -37.846  73.044  26.653  0.00  0.00    +0.024 A 
ATOM     13  C   LIG    1      -38.297  72.970  25.329  0.00  0.00    +0.035 A 
ATOM     14  C   LIG    1      -38.352  74.157  24.600  0.00  0.00    +0.024 A 
ATOM     15  C   LIG    1      -37.875  75.362  25.145  0.00  0.00    +0.010 A 
BRANCH  13  16
ATOM     16  N   LIG    1      -38.650  71.696  24.808  0.00  0.00    -0.269 N 
ATOM     17  H   LIG    1      -39.600  71.399  24.972  0.00  0.00    +0.156 HD
ATOM     18  C   LIG    1      -37.836  70.783  24.151  0.00  0.00    +0.308 C 
ATOM     19  N   LIG    1      -38.528  69.625  23.808  0.00  0.00    -0.269 N 
ATOM     20  H   LIG    1      -39.506  69.762  23.597  0.00  0.00    +0.156 HD
ATOM     21  O   LIG    1      -36.646  70.976  23.860  0.00  0.00    -0.252 OA
BRANCH  19  22
ATOM     22  C   LIG    1      -37.926  68.507  23.174  0.00  0.00    +0.035 A 
ATOM     23  C   LIG    1      -37.840  68.484  21.778  0.00  0.00    +0.023 A 
ATOM     24  C   LIG    1      -37.216  67.417  21.119  0.00  0.00    +0.005 A 
ATOM     25  C   LIG    1      -36.757  66.308  21.837  0.00  0.00    -0.050 A 
ATOM     26  C   LIG    1      -36.117  65.146  21.133  0.00  0.00    +0.044 C 
ATOM     27  C   LIG    1      -36.896  66.307  23.230  0.00  0.00    +0.005 A 
ATOM     28  C   LIG    1      -37.457  67.408  23.896  0.00  0.00    +0.023 A 
ENDBRANCH  19  22
ENDBRANCH  13  16
ENDBRANCH   5  10
BRANCH   1  32
ATOM     29  N   LIG    1      -34.525  82.318  30.076  0.00  0.00    -0.259 N 
ATOM     30  N   LIG    1      -34.979  81.858  31.255  0.00  0.00    -0.178 NA
ATOM     31  C   LIG    1      -35.116  80.546  31.053  0.00  0.00    +0.143 A 
ATOM     32  C   LIG    1      -34.763  80.149  29.744  0.00  0.00    +0.022 A 
ATOM     33  C   LIG    1      -34.439  81.337  29.124  0.00  0.00    +0.117 A 
BRANCH  29  34
ATOM     34  C   LIG    1      -34.212  83.737  29.916  0.00  0.00    +0.189 C 
ATOM     35  C   LIG    1      -33.939  84.370  31.284  0.00  0.00    +0.042 C 
BRANCH  34  39
ATOM     36  C   LIG    1      -35.791  85.564  26.859  0.00  0.00    +0.128 C 
ATOM     37  N   LIG    1      -34.939  84.828  27.763  0.00  0.00    -0.317 N 
ATOM     38  H   LIG    1      -34.065  84.532  27.359  0.00  0.00    +0.148 HD
ATOM     39  C   LIG    1      -35.245  84.527  29.074  0.00  0.00    +0.237 C 
ATOM     40  O   LIG    1      -36.317  84.881  29.573  0.00  0.00    -0.273 OA
ENDBRANCH  34  39
ENDBRANCH  29  34
ENDBRANCH   1  32
BRANCH   7  41
ATOM     41  N   LIG    1      -34.172  75.197  27.173  0.00  0.00    -0.343 N 
ATOM     42  H   LIG    1      -34.240  74.375  27.760  0.00  0.00    +0.144 HD
ATOM     43  H   LIG    1      -34.710  75.151  26.312  0.00  0.00    +0.144 HD
ENDBRANCH   7  41
TORSDOF 7
ENDMDL
MODEL 5
REMARK VINA RESULT:      -6.0     19.570     21.702
REMARK  Name = pdb/CHEMBL1970142.pdb
REMARK                            x       y       z     vdW  Elec       q    Type
REMARK                         _______ _______ _______ _____ _____    ______ ____
ROOT
ATOM      1  C   LIG    1      -32.073  88.216  30.201  0.00  0.00    +0.018 A 
ATOM      2  C   LIG    1      -32.757  87.004  29.958  0.00  0.00    +0.032 A 
ATOM      3  S   LIG    1      -32.524  85.480  30.735  0.00  0.00    -0.095 S 
ATOM      4  C   LIG    1      -33.597  84.680  29.706  0.00  0.00    +0.055 A 
ATOM      5  C   LIG    1      -34.216  85.516  28.799  0.00  0.00    +0.000 A 
ATOM      6  C   LIG    1      -33.778  86.915  28.985  0.00  0.00    +0.037 A 
ATOM      7  C   LIG    1      -34.175  88.132  28.360  0.00  0.00    +0.125 A 
ATOM      8  N   LIG    1      -33.498  89.275  28.572  0.00  0.00    -0.239 NA
ATOM      9  C   LIG    1      -32.482  89.297  29.439  0.00  0.00    +0.122 A 
ENDROOT
BRANCH   5  10
ATOM     10  C   LIG    1      -35.102  84.931  27.770  0.00  0.00    -0.017 A 
ATOM     11  C   LIG    1      -36.147  84.053  28.093  0.00  0.00    +0.010 A 
ATOM     12  C   LIG    1      -36.927  83.448  27.087  0.00  0.00    +0.024 A 
ATOM     13  C   LIG    1      -36.744  83.766  25.735  0.00  0.00    +0.035 A 
ATOM     14  C   LIG    1      -35.752  84.692  25.420  0.00  0.00    +0.024 A 
ATOM     15  C   LIG    1      -34.902  85.206  26.415  0.00  0.00    +0.010 A 
BRANCH  13  16
ATOM     16  N   LIG    1      -37.563  83.115  24.773  0.00  0.00    -0.269 N 
ATOM     17  H   LIG    1      -37.351  82.144  24.596  0.00  0.00    +0.156 HD
ATOM     18  C   LIG    1      -38.581  83.662  24.003  0.00  0.00    +0.308 C 
ATOM     19  N   LIG    1      -39.145  82.722  23.146  0.00  0.00    -0.269 N 
ATOM     20  H   LIG    1      -39.152  81.776  23.499  0.00  0.00    +0.156 HD
ATOM     21  O   LIG    1      -38.981  84.833  24.086  0.00  0.00    -0.252 OA
BRANCH  19  22
ATOM     22  C   LIG    1      -40.170  83.023  22.213  0.00  0.00    +0.035 A 
ATOM     23  C   LIG    1      -41.486  82.650  22.506  0.00  0.00    +0.023 A 
ATOM     24  C   LIG    1      -42.531  82.966  21.628  0.00  0.00    +0.005 A 
ATOM     25  C   LIG    1      -42.265  83.571  20.395  0.00  0.00    -0.050 A 
ATOM     26  C   LIG    1      -43.377  83.883  19.435  0.00  0.00    +0.044 C 
ATOM     27  C   LIG    1      -40.940  83.892  20.078  0.00  0.00    +0.005 A 
ATOM     28  C   LIG    1      -39.902  83.640  20.988  0.00  0.00    +0.023 A 
ENDBRANCH  19  22
ENDBRANCH  13  16
ENDBRANCH   5  10
BRANCH   1  32
ATOM     29  N   LIG    1      -29.804  89.067  32.864  0.00  0.00    -0.259 N 
ATOM     30  N   LIG    1      -29.001  88.161  32.280  0.00  0.00    -0.178 NA
ATOM     31  C   LIG    1      -29.715  87.728  31.238  0.00  0.00    +0.143 A 
ATOM     32  C   LIG    1      -30.984  88.340  31.147  0.00  0.00    +0.022 A 
ATOM     33  C   LIG    1      -31.026  89.162  32.253  0.00  0.00    +0.117 A 
BRANCH  29  34
ATOM     34  C   LIG    1      -29.343  89.802  34.041  0.00  0.00    +0.189 C 
ATOM     35  C   LIG    1      -28.861  91.197  33.631  0.00  0.00    +0.042 C 
BRANCH  34  39
ATOM     36  C   LIG    1      -27.706  86.865  36.009  0.00  0.00    +0.128 C 
ATOM     37  N   LIG    1      -28.560  87.707  35.204  0.00  0.00    -0.317 N 
ATOM     38  H   LIG    1      -29.383  87.246  34.852  0.00  0.00    +0.148 HD
ATOM     39  C   LIG    1      -28.317  89.034  34.911  0.00  0.00    +0.237 C 
ATOM     40  O   LIG    1      -27.307  89.603  35.334  0.00  0.00    -0.273 OA
ENDBRANCH  34  39
ENDBRANCH  29  34
ENDBRANCH   1  32
BRANCH   7  41
ATOM     41  N   LIG    1      -35.285  88.294  27.544  0.00  0.00    -0.343 N 
ATOM     42  H   LIG    1      -35.286  87.669  26.747  0.00  0.00    +0.144 HD
ATOM     43  H   LIG    1      -36.120  88.249  28.121  0.00  0.00    +0.144 HD
ENDBRANCH   7  41
TORSDOF 7
ENDMDL
MODEL 6
REMARK VINA RESULT:      -5.9     19.551     22.141
REMARK  Name = pdb/CHEMBL1970142.pdb
REMARK                            x       y       z     vdW  Elec       q    Type
REMARK                         _______ _______ _______ _____ _____    ______ ____
ROOT
ATOM      1  C   LIG    1      -43.422  82.764  21.138  0.00  0.00    +0.018 A 
ATOM      2  C   LIG    1      -42.233  83.529  21.138  0.00  0.00    +0.032 A 
ATOM      3  S   LIG    1      -41.458  84.283  19.793  0.00  0.00    -0.095 S 
ATOM      4  C   LIG    1      -40.120  84.759  20.705  0.00  0.00    +0.055 A 
ATOM      5  C   LIG    1      -40.226  84.440  22.045  0.00  0.00    +0.000 A 
ATOM      6  C   LIG    1      -41.512  83.771  22.328  0.00  0.00    +0.037 A 
ATOM      7  C   LIG    1      -42.109  83.324  23.542  0.00  0.00    +0.125 A 
ATOM      8  N   LIG    1      -43.223  82.570  23.532  0.00  0.00    -0.239 NA
ATOM      9  C   LIG    1      -43.830  82.292  22.374  0.00  0.00    +0.122 A 
ENDROOT
BRANCH   5  10
ATOM     10  C   LIG    1      -39.080  84.707  22.941  0.00  0.00    -0.017 A 
ATOM     11  C   LIG    1      -38.612  86.005  23.191  0.00  0.00    +0.010 A 
ATOM     12  C   LIG    1      -37.468  86.226  23.986  0.00  0.00    +0.024 A 
ATOM     13  C   LIG    1      -36.810  85.167  24.624  0.00  0.00    +0.035 A 
ATOM     14  C   LIG    1      -37.319  83.883  24.431  0.00  0.00    +0.024 A 
ATOM     15  C   LIG    1      -38.389  83.656  23.547  0.00  0.00    +0.010 A 
BRANCH  13  16
ATOM     16  N   LIG    1      -35.662  85.461  25.407  0.00  0.00    -0.269 N 
ATOM     17  H   LIG    1      -34.778  85.441  24.921  0.00  0.00    +0.156 HD
ATOM     18  C   LIG    1      -35.596  85.714  26.770  0.00  0.00    +0.308 C 
ATOM     19  N   LIG    1      -34.289  85.936  27.195  0.00  0.00    -0.269 N 
ATOM     20  H   LIG    1      -33.690  86.374  26.510  0.00  0.00    +0.156 HD
ATOM     21  O   LIG    1      -36.578  85.781  27.527  0.00  0.00    -0.252 OA
BRANCH  19  22
ATOM     22  C   LIG    1      -33.930  86.168  28.547  0.00  0.00    +0.035 A 
ATOM     23  C   LIG    1      -33.750  85.073  29.399  0.00  0.00    +0.023 A 
ATOM     24  C   LIG    1      -33.355  85.262  30.730  0.00  0.00    +0.005 A 
ATOM     25  C   LIG    1      -33.231  86.550  31.260  0.00  0.00    -0.050 A 
ATOM     26  C   LIG    1      -32.840  86.758  32.695  0.00  0.00    +0.044 C 
ATOM     27  C   LIG    1      -33.467  87.645  30.421  0.00  0.00    +0.005 A 
ATOM     28  C   LIG    1      -33.793  87.457  29.069  0.00  0.00    +0.023 A 
ENDBRANCH  19  22
ENDBRANCH  13  16
ENDBRANCH   5  10
BRANCH   1  32
ATOM     29  N   LIG    1      -44.862  81.320  18.170  0.00  0.00    -0.259 N 
ATOM     30  N   LIG    1      -45.523  82.488  18.094  0.00  0.00    -0.178 NA
ATOM     31  C   LIG    1      -45.094  83.168  19.159  0.00  0.00    +0.143 A 
ATOM     32  C   LIG    1      -44.163  82.444  19.936  0.00  0.00    +0.022 A 
ATOM     33  C   LIG    1      -44.082  81.228  19.293  0.00  0.00    +0.117 A 
BRANCH  29  34
ATOM     34  C   LIG    1      -45.045  80.306  17.133  0.00  0.00    +0.189 C 
ATOM     35  C   LIG    1      -44.187  79.076  17.448  0.00  0.00    +0.042 C 
BRANCH  34  39
ATOM     36  C   LIG    1      -43.941  82.646  14.221  0.00  0.00    +0.128 C 
ATOM     37  N   LIG    1      -44.188  82.025  15.501  0.00  0.00    -0.317 N 
ATOM     38  H   LIG    1      -43.828  82.541  16.287  0.00  0.00    +0.148 HD
ATOM     39  C   LIG    1      -44.852  80.830  15.688  0.00  0.00    +0.237 C 
ATOM     40  O   LIG    1      -45.290  80.190  14.728  0.00  0.00    -0.273 OA
ENDBRANCH  34  39
ENDBRANCH  29  34
ENDBRANCH   1  32
BRANCH   7  41
ATOM     41  N   LIG    1      -41.674  83.643  24.820  0.00  0.00    -0.343 N 
ATOM     42  H   LIG    1      -41.369  84.605  24.906  0.00  0.00    +0.144 HD
ATOM     43  H   LIG    1      -42.389  83.362  25.485  0.00  0.00    +0.144 HD
ENDBRANCH   7  41
TORSDOF 7
ENDMDL
MODEL 7
REMARK VINA RESULT:      -5.9     20.052     22.449
REMARK  Name = pdb/CHEMBL1970142.pdb
REMARK                            x       y       z     vdW  Elec       q    Type
REMARK                         _______ _______ _______ _____ _____    ______ ____
ROOT
ATOM      1  C   LIG    1      -29.597  87.286  34.379  0.00  0.00    +0.018 A 
ATOM      2  C   LIG    1      -29.956  87.273  33.012  0.00  0.00    +0.032 A 
ATOM      3  S   LIG    1      -29.082  87.940  31.681  0.00  0.00    -0.095 S 
ATOM      4  C   LIG    1      -30.316  87.606  30.578  0.00  0.00    +0.055 A 
ATOM      5  C   LIG    1      -31.384  86.932  31.135  0.00  0.00    +0.000 A 
ATOM      6  C   LIG    1      -31.151  86.664  32.569  0.00  0.00    +0.037 A 
ATOM      7  C   LIG    1      -31.906  85.950  33.543  0.00  0.00    +0.125 A 
ATOM      8  N   LIG    1      -31.577  85.993  34.846  0.00  0.00    -0.239 NA
ATOM      9  C   LIG    1      -30.482  86.652  35.235  0.00  0.00    +0.122 A 
ENDROOT
BRANCH   5  10
ATOM     10  C   LIG    1      -32.580  86.667  30.305  0.00  0.00    -0.017 A 
ATOM     11  C   LIG    1      -33.468  87.684  29.928  0.00  0.00    +0.010 A 
ATOM     12  C   LIG    1      -34.643  87.393  29.203  0.00  0.00    +0.024 A 
ATOM     13  C   LIG    1      -34.920  86.093  28.760  0.00  0.00    +0.035 A 
ATOM     14  C   LIG    1      -34.000  85.095  29.075  0.00  0.00    +0.024 A 
ATOM     15  C   LIG    1      -32.890  85.369  29.894  0.00  0.00    +0.010 A 
BRANCH  13  16
ATOM     16  N   LIG    1      -36.123  85.870  28.038  0.00  0.00    -0.269 N 
ATOM     17  H   LIG    1      -36.974  85.879  28.581  0.00  0.00    +0.156 HD
ATOM     18  C   LIG    1      -36.272  85.584  26.688  0.00  0.00    +0.308 C 
ATOM     19  N   LIG    1      -37.607  85.401  26.340  0.00  0.00    -0.269 N 
ATOM     20  H   LIG    1      -38.264  85.950  26.876  0.00  0.00    +0.156 HD
ATOM     21  O   LIG    1      -35.343  85.536  25.867  0.00  0.00    -0.252 OA
BRANCH  19  22
ATOM     22  C   LIG    1      -38.040  85.048  25.036  0.00  0.00    +0.035 A 
ATOM     23  C   LIG    1      -38.291  86.063  24.106  0.00  0.00    +0.023 A 
ATOM     24  C   LIG    1      -38.681  85.752  22.797  0.00  0.00    +0.005 A 
ATOM     25  C   LIG    1      -38.923  84.427  22.423  0.00  0.00    -0.050 A 
ATOM     26  C   LIG    1      -39.372  84.090  21.030  0.00  0.00    +0.044 C 
ATOM     27  C   LIG    1      -38.726  83.416  23.371  0.00  0.00    +0.005 A 
ATOM     28  C   LIG    1      -38.267  83.721  24.662  0.00  0.00    +0.023 A 
ENDBRANCH  19  22
ENDBRANCH  13  16
ENDBRANCH   5  10
BRANCH   1  32
ATOM     29  N   LIG    1      -27.075  89.556  35.584  0.00  0.00    -0.259 N 
ATOM     30  N   LIG    1      -26.302  88.457  35.618  0.00  0.00    -0.178 NA
ATOM     31  C   LIG    1      -27.111  87.486  35.189  0.00  0.00    +0.143 A 
ATOM     32  C   LIG    1      -28.412  87.945  34.886  0.00  0.00    +0.022 A 
ATOM     33  C   LIG    1      -28.365  89.284  35.208  0.00  0.00    +0.117 A 
BRANCH  29  34
ATOM     34  C   LIG    1      -26.517  90.856  35.954  0.00  0.00    +0.189 C 
ATOM     35  C   LIG    1      -26.554  91.803  34.751  0.00  0.00    +0.042 C 
BRANCH  34  39
ATOM     36  C   LIG    1      -22.647  90.571  36.308  0.00  0.00    +0.128 C 
ATOM     37  N   LIG    1      -24.006  90.663  35.828  0.00  0.00    -0.317 N 
ATOM     38  H   LIG    1      -24.094  90.634  34.825  0.00  0.00    +0.148 HD
ATOM     39  C   LIG    1      -25.124  90.782  36.629  0.00  0.00    +0.237 C 
ATOM     40  O   LIG    1      -25.023  90.825  37.858  0.00  0.00    -0.273 OA
ENDBRANCH  34  39
ENDBRANCH  29  34
ENDBRANCH   1  32
BRANCH   7  41
ATOM     41  N   LIG    1      -32.983  85.116  33.275  0.00  0.00    -0.343 N 
ATOM     42  H   LIG    1      -32.703  84.189  32.983  0.00  0.00    +0.144 HD
ATOM     43  H   LIG    1      -33.615  85.141  34.070  0.00  0.00    +0.144 HD
ENDBRANCH   7  41
TORSDOF 7
ENDMDL
MODEL 8
REMARK VINA RESULT:      -5.8     19.758     22.140
REMARK  Name = pdb/CHEMBL1970142.pdb
REMARK                            x       y       z     vdW  Elec       q    Type
REMARK                         _______ _______ _______ _____ _____    ______ ____
ROOT
ATOM      1  C   LIG    1      -32.678  86.281  31.403  0.00  0.00    +0.018 A 
ATOM      2  C   LIG    1      -33.310  86.496  30.157  0.00  0.00    +0.032 A 
ATOM      3  S   LIG    1      -33.448  87.977  29.280  0.00  0.00    -0.095 S 
ATOM      4  C   LIG    1      -34.451  87.300  28.103  0.00  0.00    +0.055 A 
ATOM      5  C   LIG    1      -34.665  85.946  28.275  0.00  0.00    +0.000 A 
ATOM      6  C   LIG    1      -33.933  85.441  29.454  0.00  0.00    +0.037 A 
ATOM      7  C   LIG    1      -33.777  84.131  29.993  0.00  0.00    +0.125 A 
ATOM      8  N   LIG    1      -33.203  83.938  31.194  0.00  0.00    -0.239 NA
ATOM      9  C   LIG    1      -32.700  84.977  31.867  0.00  0.00    +0.122 A 
ENDROOT
BRANCH   5  10
ATOM     10  C   LIG    1      -35.608  85.248  27.375  0.00  0.00    -0.017 A 
ATOM     11  C   LIG    1      -36.814  84.699  27.835  0.00  0.00    +0.010 A 
ATOM     12  C   LIG    1      -37.658  83.969  26.972  0.00  0.00    +0.024 A 
ATOM     13  C   LIG    1      -37.366  83.839  25.608  0.00  0.00    +0.035 A 
ATOM     14  C   LIG    1      -36.202  84.445  25.138  0.00  0.00    +0.024 A 
ATOM     15  C   LIG    1      -35.308  85.074  26.022  0.00  0.00    +0.010 A 
BRANCH  13  16
ATOM     16  N   LIG    1      -38.258  83.086  24.797  0.00  0.00    -0.269 N 
ATOM     17  H   LIG    1      -38.172  82.083  24.859  0.00  0.00    +0.156 HD
ATOM     18  C   LIG    1      -39.193  83.558  23.887  0.00  0.00    +0.308 C 
ATOM     19  N   LIG    1      -39.870  82.520  23.254  0.00  0.00    -0.269 N 
ATOM     20  H   LIG    1      -40.000  81.693  23.818  0.00  0.00    +0.156 HD
ATOM     21  O   LIG    1      -39.438  84.756  23.679  0.00  0.00    -0.252 OA
BRANCH  19  22
ATOM     22  C   LIG    1      -40.844  82.717  22.241  0.00  0.00    +0.035 A 
ATOM     23  C   LIG    1      -40.458  83.313  21.036  0.00  0.00    +0.023 A 
ATOM     24  C   LIG    1      -41.382  83.488  19.997  0.00  0.00    +0.005 A 
ATOM     25  C   LIG    1      -42.729  83.161  20.181  0.00  0.00    -0.050 A 
ATOM     26  C   LIG    1      -43.731  83.376  19.083  0.00  0.00    +0.044 C 
ATOM     27  C   LIG    1      -43.125  82.617  21.409  0.00  0.00    +0.005 A 
ATOM     28  C   LIG    1      -42.186  82.376  22.424  0.00  0.00    +0.023 A 
ENDBRANCH  19  22
ENDBRANCH  13  16
ENDBRANCH   5  10
BRANCH   1  32
ATOM     29  N   LIG    1      -30.535  88.688  33.008  0.00  0.00    -0.259 N 
ATOM     30  N   LIG    1      -31.658  89.045  33.656  0.00  0.00    -0.178 NA
ATOM     31  C   LIG    1      -32.586  88.224  33.160  0.00  0.00    +0.143 A 
ATOM     32  C   LIG    1      -32.076  87.340  32.184  0.00  0.00    +0.022 A 
ATOM     33  C   LIG    1      -30.753  87.711  32.073  0.00  0.00    +0.117 A 
BRANCH  29  34
ATOM     34  C   LIG    1      -29.269  89.352  33.316  0.00  0.00    +0.189 C 
ATOM     35  C   LIG    1      -28.746  88.873  34.674  0.00  0.00    +0.042 C 
BRANCH  34  39
ATOM     36  C   LIG    1      -30.455  92.886  32.184  0.00  0.00    +0.128 C 
ATOM     37  N   LIG    1      -30.294  91.468  32.408  0.00  0.00    -0.317 N 
ATOM     38  H   LIG    1      -30.976  90.895  31.939  0.00  0.00    +0.148 HD
ATOM     39  C   LIG    1      -29.311  90.896  33.189  0.00  0.00    +0.237 C 
ATOM     40  O   LIG    1      -28.476  91.593  33.772  0.00  0.00    -0.273 OA
ENDBRANCH  34  39
ENDBRANCH  29  34
ENDBRANCH   1  32
BRANCH   7  41
ATOM     41  N   LIG    1      -34.126  82.950  29.354  0.00  0.00    -0.343 N 
ATOM     42  H   LIG    1      -35.125  82.786  29.343  0.00  0.00    +0.144 HD
ATOM     43  H   LIG    1      -33.681  82.933  28.441  0.00  0.00    +0.144 HD
ENDBRANCH   7  41
TORSDOF 7
ENDMDL
MODEL 9
REMARK VINA RESULT:      -5.8     19.962     22.185
REMARK  Name = pdb/CHEMBL1970142.pdb
REMARK                            x       y       z     vdW  Elec       q    Type
REMARK                         _______ _______ _______ _____ _____    ______ ____
ROOT
ATOM      1  C   LIG    1      -28.458  86.408  35.175  0.00  0.00    +0.018 A 
ATOM      2  C   LIG    1      -29.697  86.064  34.588  0.00  0.00    +0.032 A 
ATOM      3  S   LIG    1      -30.864  84.930  35.165  0.00  0.00    -0.095 S 
ATOM      4  C   LIG    1      -31.832  85.079  33.790  0.00  0.00    +0.055 A 
ATOM      5  C   LIG    1      -31.368  86.016  32.889  0.00  0.00    +0.000 A 
ATOM      6  C   LIG    1      -30.135  86.662  33.386  0.00  0.00    +0.037 A 
ATOM      7  C   LIG    1      -29.335  87.720  32.867  0.00  0.00    +0.125 A 
ATOM      8  N   LIG    1      -28.142  88.020  33.411  0.00  0.00    -0.239 NA
ATOM      9  C   LIG    1      -27.726  87.372  34.503  0.00  0.00    +0.122 A 
ENDROOT
BRANCH   5  10
ATOM     10  C   LIG    1      -32.063  86.174  31.593  0.00  0.00    -0.017 A 
ATOM     11  C   LIG    1      -33.027  87.168  31.377  0.00  0.00    +0.010 A 
ATOM     12  C   LIG    1      -33.732  87.247  30.158  0.00  0.00    +0.024 A 
ATOM     13  C   LIG    1      -33.434  86.392  29.089  0.00  0.00    +0.035 A 
ATOM     14  C   LIG    1      -32.425  85.449  29.281  0.00  0.00    +0.024 A 
ATOM     15  C   LIG    1      -31.805  85.300  30.534  0.00  0.00    +0.010 A 
BRANCH  13  16
ATOM     16  N   LIG    1      -34.185  86.525  27.890  0.00  0.00    -0.269 N 
ATOM     17  H   LIG    1      -33.983  87.338  27.329  0.00  0.00    +0.156 HD
ATOM     18  C   LIG    1      -35.204  85.706  27.423  0.00  0.00    +0.308 C 
ATOM     19  N   LIG    1      -35.728  86.167  26.218  0.00  0.00    -0.269 N 
ATOM     20  H   LIG    1      -35.065  86.639  25.621  0.00  0.00    +0.156 HD
ATOM     21  O   LIG    1      -35.585  84.663  27.976  0.00  0.00    -0.252 OA
BRANCH  19  22
ATOM     22  C   LIG    1      -36.813  85.548  25.544  0.00  0.00    +0.035 A 
ATOM     23  C   LIG    1      -38.049  86.202  25.507  0.00  0.00    +0.023 A 
ATOM     24  C   LIG    1      -39.132  85.641  24.817  0.00  0.00    +0.005 A 
ATOM     25  C   LIG    1      -39.027  84.373  24.237  0.00  0.00    -0.050 A 
ATOM     26  C   LIG    1      -40.194  83.753  23.524  0.00  0.00    +0.044 C 
ATOM     27  C   LIG    1      -37.805  83.695  24.325  0.00  0.00    +0.005 A 
ATOM     28  C   LIG    1      -36.699  84.287  24.955  0.00  0.00    +0.023 A 
ENDBRANCH  19  22
ENDBRANCH  13  16
ENDBRANCH   5  10
BRANCH   1  32
ATOM     29  N   LIG    1      -26.955  84.303  37.679  0.00  0.00    -0.259 N 
ATOM     30  N   LIG    1      -27.408  85.237  38.534  0.00  0.00    -0.178 NA
ATOM     31  C   LIG    1      -28.010  86.127  37.743  0.00  0.00    +0.143 A 
ATOM     32  C   LIG    1      -27.944  85.783  36.375  0.00  0.00    +0.022 A 
ATOM     33  C   LIG    1      -27.202  84.621  36.370  0.00  0.00    +0.117 A 
BRANCH  29  34
ATOM     34  C   LIG    1      -26.258  83.121  38.187  0.00  0.00    +0.189 C 
ATOM     35  C   LIG    1      -25.583  83.447  39.523  0.00  0.00    +0.042 C 
BRANCH  34  39
ATOM     36  C   LIG    1      -23.003  82.417  36.166  0.00  0.00    +0.128 C 
ATOM     37  N   LIG    1      -24.006  82.924  37.074  0.00  0.00    -0.317 N 
ATOM     38  H   LIG    1      -23.687  83.674  37.665  0.00  0.00    +0.148 HD
ATOM     39  C   LIG    1      -25.301  82.457  37.166  0.00  0.00    +0.237 C 
ATOM     40  O   LIG    1      -25.696  81.534  36.449  0.00  0.00    -0.273 OA
ENDBRANCH  34  39
ENDBRANCH  29  34
ENDBRANCH   1  32
BRANCH   7  41
ATOM     41  N   LIG    1      -29.694  88.567  31.828  0.00  0.00    -0.343 N 
ATOM     42  H   LIG    1      -29.358  89.513  31.954  0.00  0.00    +0.144 HD
ATOM     43  H   LIG    1      -29.425  88.133  30.950  0.00  0.00    +0.144 HD
ENDBRANCH   7  41
TORSDOF 7
ENDMDL
