MODEL 1
REMARK VINA RESULT:      -6.5      0.000      0.000
REMARK  Name = pdb/CHEMBL3673439.pdb
REMARK                            x       y       z     vdW  Elec       q    Type
REMARK                         _______ _______ _______ _____ _____    ______ ____
ROOT
ATOM      1  N   LIG    1      -41.240  70.784  22.817  0.00  0.00    -0.308 N 
ATOM      2  C   LIG    1      -40.413  71.540  23.632  0.00  0.00    +0.070 A 
ATOM      3  C   LIG    1      -39.268  71.265  24.385  0.00  0.00    +0.028 A 
ATOM      4  C   LIG    1      -38.476  72.346  24.773  0.00  0.00    +0.011 A 
ATOM      5  C   LIG    1      -38.920  73.666  24.638  0.00  0.00    -0.013 A 
ATOM      6  C   LIG    1      -40.155  73.920  24.015  0.00  0.00    +0.038 A 
ATOM      7  C   LIG    1      -40.885  72.844  23.461  0.00  0.00    +0.091 A 
ATOM      8  N   LIG    1      -42.052  72.860  22.760  0.00  0.00    -0.215 NA
ATOM      9  C   LIG    1      -42.281  71.593  22.406  0.00  0.00    +0.194 A 
ENDROOT
BRANCH   5  10
ATOM     10  C   LIG    1      -38.117  74.746  25.179  0.00  0.00    +0.020 A 
ATOM     11  C   LIG    1      -37.465  74.689  26.394  0.00  0.00    +0.116 A 
ATOM     12  N   LIG    1      -36.827  75.882  26.546  0.00  0.00    -0.270 N 
ATOM     13  N   LIG    1      -37.045  76.737  25.529  0.00  0.00    -0.179 NA
ATOM     14  C   LIG    1      -37.830  76.042  24.698  0.00  0.00    +0.142 A 
BRANCH  12  15
ATOM     15  C   LIG    1      -35.992  76.280  27.666  0.00  0.00    +0.159 C 
BRANCH  15  16
ATOM     16  C   LIG    1      -34.499  76.332  27.297  0.00  0.00    +0.108 C 
BRANCH  16  17
ATOM     17  N   LIG    1      -33.663  77.058  28.280  0.00  0.00    -0.296 NA
ATOM     18  C   LIG    1      -34.262  78.335  28.729  0.00  0.00    +0.112 C 
ATOM     19  C   LIG    1      -34.243  79.441  27.662  0.00  0.00    +0.175 C 
ATOM     20  O   LIG    1      -32.911  79.695  27.201  0.00  0.00    -0.377 OA
ATOM     21  C   LIG    1      -32.313  78.500  26.683  0.00  0.00    +0.175 C 
ATOM     22  C   LIG    1      -32.317  77.372  27.732  0.00  0.00    +0.112 C 
ENDBRANCH  16  17
ENDBRANCH  15  16
ENDBRANCH  12  15
ENDBRANCH   5  10
BRANCH   9  23
ATOM     23  N   LIG    1      -43.362  71.182  21.760  0.00  0.00    -0.329 N 
ATOM     24  H   LIG    1      -43.633  71.765  20.969  0.00  0.00    +0.145 HD
ATOM     25  H   LIG    1      -44.175  70.827  22.264  0.00  0.00    +0.145 HD
ENDBRANCH   9  23
BRANCH   1  26
ATOM     26  C   LIG    1      -41.080  69.387  22.368  0.00  0.00    +0.160 C 
BRANCH  26  30
ATOM     27  C   LIG    1      -37.081  67.672  22.158  0.00  0.00    +0.162 A 
ATOM     28  C   LIG    1      -37.959  67.295  23.188  0.00  0.00    +0.162 A 
ATOM     29  C   LIG    1      -39.230  67.913  23.273  0.00  0.00    +0.054 A 
ATOM     30  C   LIG    1      -39.672  68.815  22.291  0.00  0.00    -0.024 A 
ATOM     31  C   LIG    1      -38.788  69.083  21.251  0.00  0.00    +0.009 A 
ATOM     32  C   LIG    1      -37.487  68.630  21.247  0.00  0.00    +0.050 A 
BRANCH  28  33
ATOM     33  O   LIG    1      -37.553  66.366  24.108  0.00  0.00    -0.491 OA
ATOM     34  C   LIG    1      -37.836  64.996  23.830  0.00  0.00    +0.277 C 
ENDBRANCH  28  33
BRANCH  27  35
ATOM     35  O   LIG    1      -35.846  67.241  21.790  0.00  0.00    -0.484 OA
BRANCH  35  36
ATOM     36  C   LIG    1      -35.644  66.142  20.932  0.00  0.00    +0.264 C 
BRANCH  36  40
ATOM     37  C   LIG    1      -32.489  67.376  18.286  0.00  0.00    +0.120 A 
ATOM     38  C   LIG    1      -32.195  66.902  19.565  0.00  0.00    +0.046 A 
ATOM     39  C   LIG    1      -33.217  66.439  20.393  0.00  0.00    +0.010 A 
ATOM     40  C   LIG    1      -34.544  66.455  19.952  0.00  0.00    -0.010 A 
ATOM     41  C   LIG    1      -34.822  66.879  18.645  0.00  0.00    +0.010 A 
ATOM     42  C   LIG    1      -33.797  67.322  17.812  0.00  0.00    +0.046 A 
BRANCH  37  44
ATOM     43  C   LIG    1      -31.249  69.267  17.662  0.00  0.00    +0.277 C 
ATOM     44  O   LIG    1      -31.565  67.898  17.423  0.00  0.00    -0.495 OA
ENDBRANCH  37  44
ENDBRANCH  36  40
ENDBRANCH  35  36
ENDBRANCH  27  35
ENDBRANCH  26  30
ENDBRANCH   1  26
TORSDOF 12
ENDMDL
MODEL 2
REMARK VINA RESULT:      -6.5      2.591      4.778
REMARK  Name = pdb/CHEMBL3673439.pdb
REMARK                            x       y       z     vdW  Elec       q    Type
REMARK                         _______ _______ _______ _____ _____    ______ ____
ROOT
ATOM      1  N   LIG    1      -40.228  70.006  22.819  0.00  0.00    -0.308 N 
ATOM      2  C   LIG    1      -39.702  71.036  23.582  0.00  0.00    +0.070 A 
ATOM      3  C   LIG    1      -38.460  71.275  24.175  0.00  0.00    +0.028 A 
ATOM      4  C   LIG    1      -38.162  72.588  24.543  0.00  0.00    +0.011 A 
ATOM      5  C   LIG    1      -39.142  73.586  24.553  0.00  0.00    -0.013 A 
ATOM      6  C   LIG    1      -40.439  73.288  24.098  0.00  0.00    +0.038 A 
ATOM      7  C   LIG    1      -40.705  72.008  23.559  0.00  0.00    +0.091 A 
ATOM      8  N   LIG    1      -41.850  71.525  23.002  0.00  0.00    -0.215 NA
ATOM      9  C   LIG    1      -41.560  70.288  22.590  0.00  0.00    +0.194 A 
ENDROOT
BRANCH   5  10
ATOM     10  C   LIG    1      -38.814  74.901  25.070  0.00  0.00    +0.020 A 
ATOM     11  C   LIG    1      -37.808  75.141  25.984  0.00  0.00    +0.116 A 
ATOM     12  N   LIG    1      -37.811  76.482  26.219  0.00  0.00    -0.270 N 
ATOM     13  N   LIG    1      -38.777  77.138  25.549  0.00  0.00    -0.179 NA
ATOM     14  C   LIG    1      -39.385  76.173  24.850  0.00  0.00    +0.142 A 
BRANCH  12  15
ATOM     15  C   LIG    1      -36.913  77.209  27.099  0.00  0.00    +0.159 C 
BRANCH  15  16
ATOM     16  C   LIG    1      -35.526  76.548  27.200  0.00  0.00    +0.108 C 
BRANCH  16  17
ATOM     17  N   LIG    1      -34.412  77.510  27.356  0.00  0.00    -0.296 NA
ATOM     18  C   LIG    1      -33.076  76.875  27.290  0.00  0.00    +0.112 C 
ATOM     19  C   LIG    1      -32.726  76.031  28.526  0.00  0.00    +0.175 C 
ATOM     20  O   LIG    1      -32.807  76.810  29.725  0.00  0.00    -0.377 OA
ATOM     21  C   LIG    1      -34.111  77.385  29.874  0.00  0.00    +0.175 C 
ATOM     22  C   LIG    1      -34.490  78.238  28.649  0.00  0.00    +0.112 C 
ENDBRANCH  16  17
ENDBRANCH  15  16
ENDBRANCH  12  15
ENDBRANCH   5  10
BRANCH   9  23
ATOM     23  N   LIG    1      -42.438  69.458  22.047  0.00  0.00    -0.329 N 
ATOM     24  H   LIG    1      -42.121  68.492  21.972  0.00  0.00    +0.145 HD
ATOM     25  H   LIG    1      -43.000  69.736  21.243  0.00  0.00    +0.145 HD
ENDBRANCH   9  23
BRANCH   1  26
ATOM     26  C   LIG    1      -39.548  68.822  22.258  0.00  0.00    +0.160 C 
BRANCH  26  30
ATOM     27  C   LIG    1      -36.238  67.126  24.526  0.00  0.00    +0.162 A 
ATOM     28  C   LIG    1      -36.003  67.737  23.283  0.00  0.00    +0.162 A 
ATOM     29  C   LIG    1      -37.103  68.224  22.535  0.00  0.00    +0.054 A 
ATOM     30  C   LIG    1      -38.408  68.205  23.054  0.00  0.00    -0.024 A 
ATOM     31  C   LIG    1      -38.561  67.664  24.326  0.00  0.00    +0.009 A 
ATOM     32  C   LIG    1      -37.537  67.027  24.991  0.00  0.00    +0.050 A 
BRANCH  28  33
ATOM     33  O   LIG    1      -34.723  67.815  22.805  0.00  0.00    -0.491 OA
ATOM     34  C   LIG    1      -34.291  66.793  21.908  0.00  0.00    +0.277 C 
ENDBRANCH  28  33
BRANCH  27  35
ATOM     35  O   LIG    1      -35.413  66.615  25.477  0.00  0.00    -0.484 OA
BRANCH  35  36
ATOM     36  C   LIG    1      -34.269  67.293  25.941  0.00  0.00    +0.264 C 
BRANCH  36  40
ATOM     37  C   LIG    1      -35.714  71.097  27.327  0.00  0.00    +0.120 A 
ATOM     38  C   LIG    1      -36.033  69.925  28.014  0.00  0.00    +0.046 A 
ATOM     39  C   LIG    1      -35.505  68.704  27.600  0.00  0.00    +0.010 A 
ATOM     40  C   LIG    1      -34.660  68.641  26.487  0.00  0.00    -0.010 A 
ATOM     41  C   LIG    1      -34.300  69.830  25.838  0.00  0.00    +0.010 A 
ATOM     42  C   LIG    1      -34.812  71.053  26.267  0.00  0.00    +0.046 A 
BRANCH  37  44
ATOM     43  C   LIG    1      -35.441  73.078  28.553  0.00  0.00    +0.277 C 
ATOM     44  O   LIG    1      -36.222  72.331  27.624  0.00  0.00    -0.495 OA
ENDBRANCH  37  44
ENDBRANCH  36  40
ENDBRANCH  35  36
ENDBRANCH  27  35
ENDBRANCH  26  30
ENDBRANCH   1  26
TORSDOF 12
ENDMDL
MODEL 3
REMARK VINA RESULT:      -6.5     15.725     18.991
REMARK  Name = pdb/CHEMBL3673439.pdb
REMARK                            x       y       z     vdW  Elec       q    Type
REMARK                         _______ _______ _______ _____ _____    ______ ____
ROOT
ATOM      1  N   LIG    1      -27.904  77.621  12.037  0.00  0.00    -0.308 N 
ATOM      2  C   LIG    1      -26.847  78.424  12.435  0.00  0.00    +0.070 A 
ATOM      3  C   LIG    1      -26.159  79.491  11.853  0.00  0.00    +0.028 A 
ATOM      4  C   LIG    1      -25.404  80.309  12.695  0.00  0.00    +0.011 A 
ATOM      5  C   LIG    1      -25.137  79.948  14.020  0.00  0.00    -0.013 A 
ATOM      6  C   LIG    1      -25.713  78.780  14.548  0.00  0.00    +0.038 A 
ATOM      7  C   LIG    1      -26.620  78.037  13.758  0.00  0.00    +0.091 A 
ATOM      8  N   LIG    1      -27.342  76.928  14.081  0.00  0.00    -0.215 NA
ATOM      9  C   LIG    1      -28.093  76.659  13.010  0.00  0.00    +0.194 A 
ENDROOT
BRANCH   5  10
ATOM     10  C   LIG    1      -24.237  80.765  14.812  0.00  0.00    +0.020 A 
ATOM     11  C   LIG    1      -23.950  82.086  14.536  0.00  0.00    +0.116 A 
ATOM     12  N   LIG    1      -23.076  82.500  15.495  0.00  0.00    -0.270 N 
ATOM     13  N   LIG    1      -22.739  81.528  16.364  0.00  0.00    -0.179 NA
ATOM     14  C   LIG    1      -23.448  80.474  15.946  0.00  0.00    +0.142 A 
BRANCH  12  15
ATOM     15  C   LIG    1      -22.504  83.828  15.630  0.00  0.00    +0.159 C 
BRANCH  15  16
ATOM     16  C   LIG    1      -22.366  84.549  14.277  0.00  0.00    +0.108 C 
BRANCH  16  17
ATOM     17  N   LIG    1      -22.841  85.950  14.292  0.00  0.00    -0.296 NA
ATOM     18  C   LIG    1      -22.824  86.589  12.955  0.00  0.00    +0.112 C 
ATOM     19  C   LIG    1      -21.414  86.908  12.435  0.00  0.00    +0.175 C 
ATOM     20  O   LIG    1      -20.700  87.745  13.354  0.00  0.00    -0.377 OA
ATOM     21  C   LIG    1      -20.621  87.132  14.647  0.00  0.00    +0.175 C 
ATOM     22  C   LIG    1      -22.022  86.800  15.195  0.00  0.00    +0.112 C 
ENDBRANCH  16  17
ENDBRANCH  15  16
ENDBRANCH  12  15
ENDBRANCH   5  10
BRANCH   9  23
ATOM     23  N   LIG    1      -28.894  75.610  12.905  0.00  0.00    -0.329 N 
ATOM     24  H   LIG    1      -29.366  75.346  13.769  0.00  0.00    +0.145 HD
ATOM     25  H   LIG    1      -28.625  74.794  12.356  0.00  0.00    +0.145 HD
ENDBRANCH   9  23
BRANCH   1  26
ATOM     26  C   LIG    1      -28.764  77.739  10.844  0.00  0.00    +0.160 C 
BRANCH  26  30
ATOM     27  C   LIG    1      -31.912  80.750  10.782  0.00  0.00    +0.162 A 
ATOM     28  C   LIG    1      -30.813  80.859   9.914  0.00  0.00    +0.162 A 
ATOM     29  C   LIG    1      -29.771  79.903   9.996  0.00  0.00    +0.054 A 
ATOM     30  C   LIG    1      -29.862  78.792  10.852  0.00  0.00    -0.024 A 
ATOM     31  C   LIG    1      -31.014  78.698  11.625  0.00  0.00    +0.009 A 
ATOM     32  C   LIG    1      -31.951  79.706  11.688  0.00  0.00    +0.050 A 
BRANCH  28  33
ATOM     33  O   LIG    1      -30.755  81.905   9.034  0.00  0.00    -0.491 OA
ATOM     34  C   LIG    1      -30.360  83.177   9.546  0.00  0.00    +0.277 C 
ENDBRANCH  28  33
BRANCH  27  35
ATOM     35  O   LIG    1      -33.062  81.462  10.914  0.00  0.00    -0.484 OA
BRANCH  35  36
ATOM     36  C   LIG    1      -34.081  81.455   9.943  0.00  0.00    +0.264 C 
BRANCH  36  40
ATOM     37  C   LIG    1      -37.169  84.165  11.208  0.00  0.00    +0.120 A 
ATOM     38  C   LIG    1      -35.924  84.168  11.837  0.00  0.00    +0.046 A 
ATOM     39  C   LIG    1      -34.904  83.336  11.377  0.00  0.00    +0.010 A 
ATOM     40  C   LIG    1      -35.124  82.484  10.290  0.00  0.00    -0.010 A 
ATOM     41  C   LIG    1      -36.361  82.530   9.629  0.00  0.00    +0.010 A 
ATOM     42  C   LIG    1      -37.372  83.378  10.077  0.00  0.00    +0.046 A 
BRANCH  37  44
ATOM     43  C   LIG    1      -39.227  84.161  12.335  0.00  0.00    +0.277 C 
ATOM     44  O   LIG    1      -38.245  84.904  11.617  0.00  0.00    -0.495 OA
ENDBRANCH  37  44
ENDBRANCH  36  40
ENDBRANCH  35  36
ENDBRANCH  27  35
ENDBRANCH  26  30
ENDBRANCH   1  26
TORSDOF 12
ENDMDL
MODEL 4
REMARK VINA RESULT:      -6.4      1.818      2.602
REMARK  Name = pdb/CHEMBL3673439.pdb
REMARK                            x       y       z     vdW  Elec       q    Type
REMARK                         _______ _______ _______ _____ _____    ______ ____
ROOT
ATOM      1  N   LIG    1      -41.499  70.683  22.813  0.00  0.00    -0.308 N 
ATOM      2  C   LIG    1      -40.888  71.677  23.561  0.00  0.00    +0.070 A 
ATOM      3  C   LIG    1      -39.831  71.701  24.474  0.00  0.00    +0.028 A 
ATOM      4  C   LIG    1      -39.236  72.934  24.741  0.00  0.00    +0.011 A 
ATOM      5  C   LIG    1      -39.815  74.134  24.315  0.00  0.00    -0.013 A 
ATOM      6  C   LIG    1      -40.976  74.099  23.523  0.00  0.00    +0.038 A 
ATOM      7  C   LIG    1      -41.488  72.851  23.100  0.00  0.00    +0.091 A 
ATOM      8  N   LIG    1      -42.543  72.581  22.283  0.00  0.00    -0.215 NA
ATOM      9  C   LIG    1      -42.566  71.252  22.147  0.00  0.00    +0.194 A 
ENDROOT
BRANCH   5  10
ATOM     10  C   LIG    1      -39.230  75.395  24.733  0.00  0.00    +0.020 A 
ATOM     11  C   LIG    1      -38.423  75.540  25.842  0.00  0.00    +0.116 A 
ATOM     12  N   LIG    1      -38.077  76.856  25.898  0.00  0.00    -0.270 N 
ATOM     13  N   LIG    1      -38.633  77.595  24.920  0.00  0.00    -0.179 NA
ATOM     14  C   LIG    1      -39.333  76.703  24.212  0.00  0.00    +0.142 A 
BRANCH  12  15
ATOM     15  C   LIG    1      -37.217  77.483  26.886  0.00  0.00    +0.159 C 
BRANCH  15  16
ATOM     16  C   LIG    1      -35.976  76.633  27.212  0.00  0.00    +0.108 C 
BRANCH  16  17
ATOM     17  N   LIG    1      -34.702  77.382  27.154  0.00  0.00    -0.296 NA
ATOM     18  C   LIG    1      -33.506  76.516  27.268  0.00  0.00    +0.112 C 
ATOM     19  C   LIG    1      -33.285  75.942  28.676  0.00  0.00    +0.175 C 
ATOM     20  O   LIG    1      -33.191  76.987  29.653  0.00  0.00    -0.377 OA
ATOM     21  C   LIG    1      -34.365  77.810  29.634  0.00  0.00    +0.175 C 
ATOM     22  C   LIG    1      -34.612  78.400  28.233  0.00  0.00    +0.112 C 
ENDBRANCH  16  17
ENDBRANCH  15  16
ENDBRANCH  12  15
ENDBRANCH   5  10
BRANCH   9  23
ATOM     23  N   LIG    1      -43.491  70.587  21.472  0.00  0.00    -0.329 N 
ATOM     24  H   LIG    1      -43.919  71.109  20.708  0.00  0.00    +0.145 HD
ATOM     25  H   LIG    1      -44.169  69.993  21.950  0.00  0.00    +0.145 HD
ENDBRANCH   9  23
BRANCH   1  26
ATOM     26  C   LIG    1      -41.110  69.268  22.651  0.00  0.00    +0.160 C 
BRANCH  26  30
ATOM     27  C   LIG    1      -36.871  68.410  22.139  0.00  0.00    +0.162 A 
ATOM     28  C   LIG    1      -37.661  68.752  21.029  0.00  0.00    +0.162 A 
ATOM     29  C   LIG    1      -39.050  68.965  21.211  0.00  0.00    +0.054 A 
ATOM     30  C   LIG    1      -39.633  68.944  22.489  0.00  0.00    -0.024 A 
ATOM     31  C   LIG    1      -38.780  68.682  23.556  0.00  0.00    +0.009 A 
ATOM     32  C   LIG    1      -37.468  68.299  23.381  0.00  0.00    +0.050 A 
BRANCH  28  33
ATOM     33  O   LIG    1      -37.081  68.837  19.793  0.00  0.00    -0.491 OA
ATOM     34  C   LIG    1      -37.061  67.657  18.992  0.00  0.00    +0.277 C 
ENDBRANCH  28  33
BRANCH  27  35
ATOM     35  O   LIG    1      -35.538  68.194  22.295  0.00  0.00    -0.484 OA
BRANCH  35  36
ATOM     36  C   LIG    1      -35.019  67.054  22.938  0.00  0.00    +0.264 C 
BRANCH  36  40
ATOM     37  C   LIG    1      -33.809  64.409  19.773  0.00  0.00    +0.120 A 
ATOM     38  C   LIG    1      -33.287  65.700  19.855  0.00  0.00    +0.046 A 
ATOM     39  C   LIG    1      -33.630  66.529  20.922  0.00  0.00    +0.010 A 
ATOM     40  C   LIG    1      -34.507  66.077  21.913  0.00  0.00    -0.010 A 
ATOM     41  C   LIG    1      -34.981  64.759  21.852  0.00  0.00    +0.010 A 
ATOM     42  C   LIG    1      -34.620  63.925  20.795  0.00  0.00    +0.046 A 
BRANCH  37  44
ATOM     43  C   LIG    1      -34.185  63.921  17.509  0.00  0.00    +0.277 C 
ATOM     44  O   LIG    1      -33.573  63.543  18.740  0.00  0.00    -0.495 OA
ENDBRANCH  37  44
ENDBRANCH  36  40
ENDBRANCH  35  36
ENDBRANCH  27  35
ENDBRANCH  26  30
ENDBRANCH   1  26
TORSDOF 12
ENDMDL
MODEL 5
REMARK VINA RESULT:      -6.3      5.021     10.486
REMARK  Name = pdb/CHEMBL3673439.pdb
REMARK                            x       y       z     vdW  Elec       q    Type
REMARK                         _______ _______ _______ _____ _____    ______ ____
ROOT
ATOM      1  N   LIG    1      -35.803  66.089  21.145  0.00  0.00    -0.308 N 
ATOM      2  C   LIG    1      -35.203  66.426  19.941  0.00  0.00    +0.070 A 
ATOM      3  C   LIG    1      -35.681  66.754  18.671  0.00  0.00    +0.028 A 
ATOM      4  C   LIG    1      -34.809  67.412  17.802  0.00  0.00    +0.011 A 
ATOM      5  C   LIG    1      -33.443  67.524  18.082  0.00  0.00    -0.013 A 
ATOM      6  C   LIG    1      -32.946  67.045  19.307  0.00  0.00    +0.038 A 
ATOM      7  C   LIG    1      -33.849  66.535  20.268  0.00  0.00    +0.091 A 
ATOM      8  N   LIG    1      -33.606  66.087  21.531  0.00  0.00    -0.215 NA
ATOM      9  C   LIG    1      -34.801  65.780  22.043  0.00  0.00    +0.194 A 
ENDROOT
BRANCH   5  10
ATOM     10  C   LIG    1      -32.557  68.098  17.087  0.00  0.00    +0.020 A 
ATOM     11  C   LIG    1      -31.842  69.263  17.271  0.00  0.00    +0.116 A 
ATOM     12  N   LIG    1      -31.136  69.469  16.125  0.00  0.00    -0.270 N 
ATOM     13  N   LIG    1      -31.367  68.536  15.183  0.00  0.00    -0.179 NA
ATOM     14  C   LIG    1      -32.232  67.702  15.772  0.00  0.00    +0.142 A 
BRANCH  12  15
ATOM     15  C   LIG    1      -30.221  70.564  15.857  0.00  0.00    +0.159 C 
BRANCH  15  16
ATOM     16  C   LIG    1      -28.761  70.206  16.191  0.00  0.00    +0.108 C 
BRANCH  16  17
ATOM     17  N   LIG    1      -28.074  71.211  17.032  0.00  0.00    -0.296 NA
ATOM     18  C   LIG    1      -26.710  70.801  17.438  0.00  0.00    +0.112 C 
ATOM     19  C   LIG    1      -26.684  69.677  18.487  0.00  0.00    +0.175 C 
ATOM     20  O   LIG    1      -27.422  70.044  19.658  0.00  0.00    -0.377 OA
ATOM     21  C   LIG    1      -28.776  70.377  19.325  0.00  0.00    +0.175 C 
ATOM     22  C   LIG    1      -28.834  71.502  18.275  0.00  0.00    +0.112 C 
ENDBRANCH  16  17
ENDBRANCH  15  16
ENDBRANCH  12  15
ENDBRANCH   5  10
BRANCH   9  23
ATOM     23  N   LIG    1      -34.984  65.246  23.241  0.00  0.00    -0.329 N 
ATOM     24  H   LIG    1      -35.944  64.972  23.444  0.00  0.00    +0.145 HD
ATOM     25  H   LIG    1      -34.517  65.626  24.065  0.00  0.00    +0.145 HD
ENDBRANCH   9  23
BRANCH   1  26
ATOM     26  C   LIG    1      -37.234  66.094  21.504  0.00  0.00    +0.160 C 
BRANCH  26  30
ATOM     27  C   LIG    1      -38.963  69.668  23.298  0.00  0.00    +0.162 A 
ATOM     28  C   LIG    1      -39.756  68.819  22.508  0.00  0.00    +0.162 A 
ATOM     29  C   LIG    1      -39.157  67.698  21.884  0.00  0.00    +0.054 A 
ATOM     30  C   LIG    1      -37.814  67.358  22.121  0.00  0.00    -0.024 A 
ATOM     31  C   LIG    1      -37.106  68.192  22.980  0.00  0.00    +0.009 A 
ATOM     32  C   LIG    1      -37.619  69.379  23.453  0.00  0.00    +0.050 A 
BRANCH  28  33
ATOM     33  O   LIG    1      -41.080  69.113  22.330  0.00  0.00    -0.491 OA
ATOM     34  C   LIG    1      -41.432  69.912  21.202  0.00  0.00    +0.277 C 
ENDBRANCH  28  33
BRANCH  27  35
ATOM     35  O   LIG    1      -39.244  70.766  24.047  0.00  0.00    -0.484 OA
BRANCH  35  36
ATOM     36  C   LIG    1      -38.255  71.677  24.469  0.00  0.00    +0.264 C 
BRANCH  36  40
ATOM     37  C   LIG    1      -39.811  75.680  24.282  0.00  0.00    +0.120 A 
ATOM     38  C   LIG    1      -40.588  74.598  23.866  0.00  0.00    +0.046 A 
ATOM     39  C   LIG    1      -40.104  73.297  23.994  0.00  0.00    +0.010 A 
ATOM     40  C   LIG    1      -38.833  73.066  24.529  0.00  0.00    -0.010 A 
ATOM     41  C   LIG    1      -38.084  74.155  24.998  0.00  0.00    +0.010 A 
ATOM     42  C   LIG    1      -38.578  75.453  24.888  0.00  0.00    +0.046 A 
BRANCH  37  44
ATOM     43  C   LIG    1      -39.081  77.890  23.993  0.00  0.00    +0.277 C 
ATOM     44  O   LIG    1      -40.176  76.991  24.150  0.00  0.00    -0.495 OA
ENDBRANCH  37  44
ENDBRANCH  36  40
ENDBRANCH  35  36
ENDBRANCH  27  35
ENDBRANCH  26  30
ENDBRANCH   1  26
TORSDOF 12
ENDMDL
MODEL 6
REMARK VINA RESULT:      -6.3      1.189      1.587
REMARK  Name = pdb/CHEMBL3673439.pdb
REMARK                            x       y       z     vdW  Elec       q    Type
REMARK                         _______ _______ _______ _____ _____    ______ ____
ROOT
ATOM      1  N   LIG    1      -41.212  70.626  22.798  0.00  0.00    -0.308 N 
ATOM      2  C   LIG    1      -40.522  71.557  23.559  0.00  0.00    +0.070 A 
ATOM      3  C   LIG    1      -39.359  71.516  24.333  0.00  0.00    +0.028 A 
ATOM      4  C   LIG    1      -38.749  72.731  24.645  0.00  0.00    +0.011 A 
ATOM      5  C   LIG    1      -39.390  73.953  24.415  0.00  0.00    -0.013 A 
ATOM      6  C   LIG    1      -40.640  73.969  23.772  0.00  0.00    +0.038 A 
ATOM      7  C   LIG    1      -41.187  72.756  23.295  0.00  0.00    +0.091 A 
ATOM      8  N   LIG    1      -42.334  72.542  22.591  0.00  0.00    -0.215 NA
ATOM      9  C   LIG    1      -42.359  71.233  22.328  0.00  0.00    +0.194 A 
ENDROOT
BRANCH   5  10
ATOM     10  C   LIG    1      -38.770  75.180  24.879  0.00  0.00    +0.020 A 
ATOM     11  C   LIG    1      -37.987  75.268  26.013  0.00  0.00    +0.116 A 
ATOM     12  N   LIG    1      -37.596  76.568  26.111  0.00  0.00    -0.270 N 
ATOM     13  N   LIG    1      -38.098  77.351  25.139  0.00  0.00    -0.179 NA
ATOM     14  C   LIG    1      -38.812  76.504  24.390  0.00  0.00    +0.142 A 
BRANCH  12  15
ATOM     15  C   LIG    1      -36.740  77.138  27.137  0.00  0.00    +0.159 C 
BRANCH  15  16
ATOM     16  C   LIG    1      -35.306  76.581  27.083  0.00  0.00    +0.108 C 
BRANCH  16  17
ATOM     17  N   LIG    1      -34.263  77.571  27.432  0.00  0.00    -0.296 NA
ATOM     18  C   LIG    1      -32.895  77.003  27.442  0.00  0.00    +0.112 C 
ATOM     19  C   LIG    1      -32.619  76.064  28.626  0.00  0.00    +0.175 C 
ATOM     20  O   LIG    1      -32.853  76.723  29.877  0.00  0.00    -0.377 OA
ATOM     21  C   LIG    1      -34.194  77.225  29.947  0.00  0.00    +0.175 C 
ATOM     22  C   LIG    1      -34.500  78.171  28.771  0.00  0.00    +0.112 C 
ENDBRANCH  16  17
ENDBRANCH  15  16
ENDBRANCH  12  15
ENDBRANCH   5  10
BRANCH   9  23
ATOM     23  N   LIG    1      -43.355  70.615  21.710  0.00  0.00    -0.329 N 
ATOM     24  H   LIG    1      -43.426  70.814  20.713  0.00  0.00    +0.145 HD
ATOM     25  H   LIG    1      -44.273  70.529  22.145  0.00  0.00    +0.145 HD
ENDBRANCH   9  23
BRANCH   1  26
ATOM     26  C   LIG    1      -40.831  69.243  22.451  0.00  0.00    +0.160 C 
BRANCH  26  30
ATOM     27  C   LIG    1      -36.634  68.090  22.622  0.00  0.00    +0.162 A 
ATOM     28  C   LIG    1      -37.522  67.677  23.630  0.00  0.00    +0.162 A 
ATOM     29  C   LIG    1      -38.867  68.117  23.586  0.00  0.00    +0.054 A 
ATOM     30  C   LIG    1      -39.358  68.868  22.505  0.00  0.00    -0.024 A 
ATOM     31  C   LIG    1      -38.448  69.173  21.498  0.00  0.00    +0.009 A 
ATOM     32  C   LIG    1      -37.101  68.907  21.609  0.00  0.00    +0.050 A 
BRANCH  28  33
ATOM     33  O   LIG    1      -37.060  66.890  24.649  0.00  0.00    -0.491 OA
ATOM     34  C   LIG    1      -37.653  67.062  25.935  0.00  0.00    +0.277 C 
ENDBRANCH  28  33
BRANCH  27  35
ATOM     35  O   LIG    1      -35.330  67.808  22.365  0.00  0.00    -0.484 OA
BRANCH  35  36
ATOM     36  C   LIG    1      -34.887  66.529  21.976  0.00  0.00    +0.264 C 
BRANCH  36  40
ATOM     37  C   LIG    1      -33.319  67.038  18.006  0.00  0.00    +0.120 A 
ATOM     38  C   LIG    1      -32.458  66.875  19.092  0.00  0.00    +0.046 A 
ATOM     39  C   LIG    1      -32.973  66.642  20.366  0.00  0.00    +0.010 A 
ATOM     40  C   LIG    1      -34.355  66.579  20.568  0.00  0.00    -0.010 A 
ATOM     41  C   LIG    1      -35.210  66.686  19.462  0.00  0.00    +0.010 A 
ATOM     42  C   LIG    1      -34.693  66.899  18.186  0.00  0.00    +0.046 A 
BRANCH  37  44
ATOM     43  C   LIG    1      -33.921  67.138  15.741  0.00  0.00    +0.277 C 
ATOM     44  O   LIG    1      -32.912  67.322  16.731  0.00  0.00    -0.495 OA
ENDBRANCH  37  44
ENDBRANCH  36  40
ENDBRANCH  35  36
ENDBRANCH  27  35
ENDBRANCH  26  30
ENDBRANCH   1  26
TORSDOF 12
ENDMDL
MODEL 7
REMARK VINA RESULT:      -6.3      9.162     13.877
REMARK  Name = pdb/CHEMBL3673439.pdb
REMARK                            x       y       z     vdW  Elec       q    Type
REMARK                         _______ _______ _______ _____ _____    ______ ____
ROOT
ATOM      1  N   LIG    1      -35.706  83.853  28.728  0.00  0.00    -0.308 N 
ATOM      2  C   LIG    1      -34.776  84.470  29.550  0.00  0.00    +0.070 A 
ATOM      3  C   LIG    1      -34.200  84.151  30.782  0.00  0.00    +0.028 A 
ATOM      4  C   LIG    1      -33.018  84.807  31.131  0.00  0.00    +0.011 A 
ATOM      5  C   LIG    1      -32.553  85.911  30.410  0.00  0.00    -0.013 A 
ATOM      6  C   LIG    1      -33.238  86.321  29.252  0.00  0.00    +0.038 A 
ATOM      7  C   LIG    1      -34.335  85.557  28.792  0.00  0.00    +0.091 A 
ATOM      8  N   LIG    1      -35.094  85.720  27.672  0.00  0.00    -0.215 NA
ATOM      9  C   LIG    1      -35.953  84.698  27.664  0.00  0.00    +0.194 A 
ENDROOT
BRANCH   5  10
ATOM     10  C   LIG    1      -31.394  86.640  30.891  0.00  0.00    +0.020 A 
ATOM     11  C   LIG    1      -31.215  87.020  32.206  0.00  0.00    +0.116 A 
ATOM     12  N   LIG    1      -30.022  87.674  32.259  0.00  0.00    -0.270 N 
ATOM     13  N   LIG    1      -29.420  87.783  31.059  0.00  0.00    -0.179 NA
ATOM     14  C   LIG    1      -30.258  87.152  30.229  0.00  0.00    +0.142 A 
BRANCH  12  15
ATOM     15  C   LIG    1      -29.398  88.242  33.440  0.00  0.00    +0.159 C 
BRANCH  15  16
ATOM     16  C   LIG    1      -28.435  87.258  34.128  0.00  0.00    +0.108 C 
BRANCH  16  17
ATOM     17  N   LIG    1      -28.859  86.852  35.486  0.00  0.00    -0.296 NA
ATOM     18  C   LIG    1      -27.756  86.296  36.303  0.00  0.00    +0.112 C 
ATOM     19  C   LIG    1      -27.297  84.898  35.860  0.00  0.00    +0.175 C 
ATOM     20  O   LIG    1      -28.387  83.968  35.864  0.00  0.00    -0.377 OA
ATOM     21  C   LIG    1      -29.452  84.427  35.022  0.00  0.00    +0.175 C 
ATOM     22  C   LIG    1      -29.935  85.828  35.444  0.00  0.00    +0.112 C 
ENDBRANCH  16  17
ENDBRANCH  15  16
ENDBRANCH  12  15
ENDBRANCH   5  10
BRANCH   9  23
ATOM     23  N   LIG    1      -36.909  84.535  26.762  0.00  0.00    -0.329 N 
ATOM     24  H   LIG    1      -36.683  84.887  25.833  0.00  0.00    +0.145 HD
ATOM     25  H   LIG    1      -37.890  84.691  26.998  0.00  0.00    +0.145 HD
ENDBRANCH   9  23
BRANCH   1  26
ATOM     26  C   LIG    1      -36.321  82.518  28.857  0.00  0.00    +0.160 C 
BRANCH  26  30
ATOM     27  C   LIG    1      -33.799  78.978  28.571  0.00  0.00    +0.162 A 
ATOM     28  C   LIG    1      -34.530  79.232  29.744  0.00  0.00    +0.162 A 
ATOM     29  C   LIG    1      -35.293  80.422  29.837  0.00  0.00    +0.054 A 
ATOM     30  C   LIG    1      -35.418  81.299  28.746  0.00  0.00    -0.024 A 
ATOM     31  C   LIG    1      -34.736  80.947  27.586  0.00  0.00    +0.009 A 
ATOM     32  C   LIG    1      -33.852  79.893  27.535  0.00  0.00    +0.050 A 
BRANCH  28  33
ATOM     33  O   LIG    1      -34.461  78.344  30.782  0.00  0.00    -0.491 OA
ATOM     34  C   LIG    1      -35.389  77.260  30.786  0.00  0.00    +0.277 C 
ENDBRANCH  28  33
BRANCH  27  35
ATOM     35  O   LIG    1      -33.029  77.933  28.168  0.00  0.00    -0.484 OA
BRANCH  35  36
ATOM     36  C   LIG    1      -33.555  76.811  27.497  0.00  0.00    +0.264 C 
BRANCH  36  40
ATOM     37  C   LIG    1      -32.301  73.170  29.407  0.00  0.00    +0.120 A 
ATOM     38  C   LIG    1      -31.651  74.374  29.682  0.00  0.00    +0.046 A 
ATOM     39  C   LIG    1      -32.107  75.562  29.114  0.00  0.00    +0.010 A 
ATOM     40  C   LIG    1      -33.210  75.556  28.255  0.00  0.00    -0.010 A 
ATOM     41  C   LIG    1      -33.890  74.351  28.030  0.00  0.00    +0.010 A 
ATOM     42  C   LIG    1      -33.446  73.167  28.616  0.00  0.00    +0.046 A 
BRANCH  37  44
ATOM     43  C   LIG    1      -30.484  71.772  29.908  0.00  0.00    +0.277 C 
ATOM     44  O   LIG    1      -31.898  71.949  29.874  0.00  0.00    -0.495 OA
ENDBRANCH  37  44
ENDBRANCH  36  40
ENDBRANCH  35  36
ENDBRANCH  27  35
ENDBRANCH  26  30
ENDBRANCH   1  26
TORSDOF 12
ENDMDL
MODEL 8
REMARK VINA RESULT:      -6.3      3.861      5.348
REMARK  Name = pdb/CHEMBL3673439.pdb
REMARK                            x       y       z     vdW  Elec       q    Type
REMARK                         _______ _______ _______ _____ _____    ______ ____
ROOT
ATOM      1  N   LIG    1      -39.164  72.367  24.491  0.00  0.00    -0.308 N 
ATOM      2  C   LIG    1      -40.042  73.296  23.955  0.00  0.00    +0.070 A 
ATOM      3  C   LIG    1      -41.249  73.208  23.258  0.00  0.00    +0.028 A 
ATOM      4  C   LIG    1      -42.052  74.349  23.210  0.00  0.00    +0.011 A 
ATOM      5  C   LIG    1      -41.575  75.598  23.622  0.00  0.00    -0.013 A 
ATOM      6  C   LIG    1      -40.288  75.697  24.181  0.00  0.00    +0.038 A 
ATOM      7  C   LIG    1      -39.535  74.521  24.395  0.00  0.00    +0.091 A 
ATOM      8  N   LIG    1      -38.313  74.370  24.978  0.00  0.00    -0.215 NA
ATOM      9  C   LIG    1      -38.078  73.055  24.996  0.00  0.00    +0.194 A 
ENDROOT
BRANCH   5  10
ATOM     10  C   LIG    1      -42.400  76.775  23.427  0.00  0.00    +0.020 A 
ATOM     11  C   LIG    1      -42.051  78.040  23.854  0.00  0.00    +0.116 A 
ATOM     12  N   LIG    1      -43.072  78.865  23.490  0.00  0.00    -0.270 N 
ATOM     13  N   LIG    1      -44.088  78.221  22.885  0.00  0.00    -0.179 NA
ATOM     14  C   LIG    1      -43.675  76.949  22.848  0.00  0.00    +0.142 A 
BRANCH  12  15
ATOM     15  C   LIG    1      -43.146  80.299  23.709  0.00  0.00    +0.159 C 
BRANCH  15  16
ATOM     16  C   LIG    1      -41.800  80.896  24.156  0.00  0.00    +0.108 C 
BRANCH  16  17
ATOM     17  N   LIG    1      -40.937  81.339  23.038  0.00  0.00    -0.296 NA
ATOM     18  C   LIG    1      -39.491  81.193  23.320  0.00  0.00    +0.112 C 
ATOM     19  C   LIG    1      -38.950  82.205  24.343  0.00  0.00    +0.175 C 
ATOM     20  O   LIG    1      -39.204  83.551  23.925  0.00  0.00    -0.377 OA
ATOM     21  C   LIG    1      -40.606  83.765  23.713  0.00  0.00    +0.175 C 
ATOM     22  C   LIG    1      -41.176  82.764  22.691  0.00  0.00    +0.112 C 
ENDBRANCH  16  17
ENDBRANCH  15  16
ENDBRANCH  12  15
ENDBRANCH   5  10
BRANCH   9  23
ATOM     23  N   LIG    1      -36.955  72.504  25.430  0.00  0.00    -0.329 N 
ATOM     24  H   LIG    1      -36.680  71.654  24.939  0.00  0.00    +0.145 HD
ATOM     25  H   LIG    1      -36.745  72.450  26.426  0.00  0.00    +0.145 HD
ENDBRANCH   9  23
BRANCH   1  26
ATOM     26  C   LIG    1      -39.311  70.903  24.601  0.00  0.00    +0.160 C 
BRANCH  26  30
ATOM     27  C   LIG    1      -37.995  68.394  21.293  0.00  0.00    +0.162 A 
ATOM     28  C   LIG    1      -37.103  68.725  22.327  0.00  0.00    +0.162 A 
ATOM     29  C   LIG    1      -37.535  69.594  23.358  0.00  0.00    +0.054 A 
ATOM     30  C   LIG    1      -38.864  70.046  23.427  0.00  0.00    -0.024 A 
ATOM     31  C   LIG    1      -39.719  69.614  22.418  0.00  0.00    +0.009 A 
ATOM     32  C   LIG    1      -39.275  68.918  21.316  0.00  0.00    +0.050 A 
BRANCH  28  33
ATOM     33  O   LIG    1      -35.828  68.231  22.295  0.00  0.00    -0.491 OA
ATOM     34  C   LIG    1      -35.328  67.620  23.484  0.00  0.00    +0.277 C 
ENDBRANCH  28  33
BRANCH  27  35
ATOM     35  O   LIG    1      -37.899  67.571  20.215  0.00  0.00    -0.484 OA
BRANCH  35  36
ATOM     36  C   LIG    1      -37.190  67.919  19.049  0.00  0.00    +0.264 C 
BRANCH  36  40
ATOM     37  C   LIG    1      -33.813  65.330  18.438  0.00  0.00    +0.120 A 
ATOM     38  C   LIG    1      -33.960  66.492  17.680  0.00  0.00    +0.046 A 
ATOM     39  C   LIG    1      -35.020  67.362  17.931  0.00  0.00    +0.010 A 
ATOM     40  C   LIG    1      -35.949  67.073  18.935  0.00  0.00    -0.010 A 
ATOM     41  C   LIG    1      -35.760  65.933  19.729  0.00  0.00    +0.010 A 
ATOM     42  C   LIG    1      -34.688  65.075  19.491  0.00  0.00    +0.046 A 
BRANCH  37  44
ATOM     43  C   LIG    1      -31.745  64.845  17.443  0.00  0.00    +0.277 C 
ATOM     44  O   LIG    1      -32.840  64.391  18.234  0.00  0.00    -0.495 OA
ENDBRANCH  37  44
ENDBRANCH  36  40
ENDBRANCH  35  36
ENDBRANCH  27  35
ENDBRANCH  26  30
ENDBRANCH   1  26
TORSDOF 12
ENDMDL
MODEL 9
REMARK VINA RESULT:      -6.2     18.640     24.940
REMARK  Name = pdb/CHEMBL3673439.pdb
REMARK                            x       y       z     vdW  Elec       q    Type
REMARK                         _______ _______ _______ _____ _____    ______ ____
ROOT
ATOM      1  N   LIG    1      -22.192  87.129  13.491  0.00  0.00    -0.308 N 
ATOM      2  C   LIG    1      -22.584  85.820  13.722  0.00  0.00    +0.070 A 
ATOM      3  C   LIG    1      -22.906  84.738  12.899  0.00  0.00    +0.028 A 
ATOM      4  C   LIG    1      -22.883  83.464  13.468  0.00  0.00    +0.011 A 
ATOM      5  C   LIG    1      -22.786  83.282  14.852  0.00  0.00    -0.013 A 
ATOM      6  C   LIG    1      -22.619  84.400  15.687  0.00  0.00    +0.038 A 
ATOM      7  C   LIG    1      -22.466  85.680  15.107  0.00  0.00    +0.091 A 
ATOM      8  N   LIG    1      -22.225  86.879  15.707  0.00  0.00    -0.215 NA
ATOM      9  C   LIG    1      -22.100  87.763  14.714  0.00  0.00    +0.194 A 
ENDROOT
BRANCH   5  10
ATOM     10  C   LIG    1      -22.900  81.945  15.403  0.00  0.00    +0.020 A 
ATOM     11  C   LIG    1      -23.942  81.083  15.126  0.00  0.00    +0.116 A 
ATOM     12  N   LIG    1      -23.694  79.940  15.823  0.00  0.00    -0.270 N 
ATOM     13  N   LIG    1      -22.576  80.005  16.572  0.00  0.00    -0.179 NA
ATOM     14  C   LIG    1      -22.096  81.226  16.313  0.00  0.00    +0.142 A 
BRANCH  12  15
ATOM     15  C   LIG    1      -24.506  78.737  15.830  0.00  0.00    +0.159 C 
BRANCH  15  16
ATOM     16  C   LIG    1      -24.262  77.855  14.592  0.00  0.00    +0.108 C 
BRANCH  16  17
ATOM     17  N   LIG    1      -25.438  77.055  14.183  0.00  0.00    -0.296 NA
ATOM     18  C   LIG    1      -25.209  76.263  12.953  0.00  0.00    +0.112 C 
ATOM     19  C   LIG    1      -25.144  77.109  11.671  0.00  0.00    +0.175 C 
ATOM     20  O   LIG    1      -26.334  77.887  11.503  0.00  0.00    -0.377 OA
ATOM     21  C   LIG    1      -26.558  78.731  12.639  0.00  0.00    +0.175 C 
ATOM     22  C   LIG    1      -26.629  77.910  13.941  0.00  0.00    +0.112 C 
ENDBRANCH  16  17
ENDBRANCH  15  16
ENDBRANCH  12  15
ENDBRANCH   5  10
BRANCH   9  23
ATOM     23  N   LIG    1      -21.921  89.064  14.892  0.00  0.00    -0.329 N 
ATOM     24  H   LIG    1      -22.225  89.416  15.798  0.00  0.00    +0.145 HD
ATOM     25  H   LIG    1      -22.113  89.730  14.144  0.00  0.00    +0.145 HD
ENDBRANCH   9  23
BRANCH   1  26
ATOM     26  C   LIG    1      -21.853  87.787  12.215  0.00  0.00    +0.160 C 
BRANCH  26  30
ATOM     27  C   LIG    1      -24.585  90.746  10.554  0.00  0.00    +0.162 A 
ATOM     28  C   LIG    1      -23.234  91.070  10.761  0.00  0.00    +0.162 A 
ATOM     29  C   LIG    1      -22.380  90.113  11.361  0.00  0.00    +0.054 A 
ATOM     30  C   LIG    1      -22.827  88.814  11.656  0.00  0.00    -0.024 A 
ATOM     31  C   LIG    1      -24.153  88.530  11.349  0.00  0.00    +0.009 A 
ATOM     32  C   LIG    1      -25.042  89.497  10.933  0.00  0.00    +0.050 A 
BRANCH  28  33
ATOM     33  O   LIG    1      -22.782  92.313  10.413  0.00  0.00    -0.491 OA
ATOM     34  C   LIG    1      -21.635  92.385   9.567  0.00  0.00    +0.277 C 
ENDBRANCH  28  33
BRANCH  27  35
ATOM     35  O   LIG    1      -25.619  91.412   9.975  0.00  0.00    -0.484 OA
BRANCH  35  36
ATOM     36  C   LIG    1      -26.790  91.761  10.674  0.00  0.00    +0.264 C 
BRANCH  36  40
ATOM     37  C   LIG    1      -26.221  94.777  13.684  0.00  0.00    +0.120 A 
ATOM     38  C   LIG    1      -26.748  93.530  14.022  0.00  0.00    +0.046 A 
ATOM     39  C   LIG    1      -26.865  92.533  13.055  0.00  0.00    +0.010 A 
ATOM     40  C   LIG    1      -26.466  92.778  11.737  0.00  0.00    -0.010 A 
ATOM     41  C   LIG    1      -25.885  94.014  11.421  0.00  0.00    +0.010 A 
ATOM     42  C   LIG    1      -25.749  95.002  12.394  0.00  0.00    +0.046 A 
BRANCH  37  44
ATOM     43  C   LIG    1      -27.070  95.821  15.605  0.00  0.00    +0.277 C 
ATOM     44  O   LIG    1      -26.115  95.832  14.548  0.00  0.00    -0.495 OA
ENDBRANCH  37  44
ENDBRANCH  36  40
ENDBRANCH  35  36
ENDBRANCH  27  35
ENDBRANCH  26  30
ENDBRANCH   1  26
TORSDOF 12
ENDMDL
