MODEL 1
REMARK VINA RESULT:      -6.3      0.000      0.000
REMARK  Name = pdb/CHEMBL3892605.pdb
REMARK                            x       y       z     vdW  Elec       q    Type
REMARK                         _______ _______ _______ _____ _____    ______ ____
ROOT
ATOM      1  C   LIG    1      -39.372  78.686  25.530  0.00  0.00    +0.131 A 
ATOM      2  C   LIG    1      -38.642  79.334  26.498  0.00  0.00    +0.183 A 
ATOM      3  N   LIG    1      -37.923  78.866  27.566  0.00  0.00    -0.211 NA
ATOM      4  C   LIG    1      -37.237  79.724  28.286  0.00  0.00    +0.126 A 
ATOM      5  C   LIG    1      -37.245  81.200  27.972  0.00  0.00    +0.063 A 
ATOM      6  C   LIG    1      -37.983  81.607  26.930  0.00  0.00    +0.118 A 
ATOM      7  N   LIG    1      -38.695  80.687  26.174  0.00  0.00    -0.220 N 
ATOM      8  N   LIG    1      -39.479  80.924  25.090  0.00  0.00    -0.171 NA
ATOM      9  C   LIG    1      -39.893  79.708  24.719  0.00  0.00    +0.165 A 
ENDROOT
BRANCH   4  10
ATOM     10  N   LIG    1      -36.506  79.248  29.361  0.00  0.00    -0.308 N 
ATOM     11  C   LIG    1      -35.117  79.671  29.640  0.00  0.00    +0.108 C 
ATOM     12  C   LIG    1      -34.875  79.261  31.106  0.00  0.00    +0.029 C 
ATOM     13  C   LIG    1      -36.270  79.109  31.687  0.00  0.00    +0.021 C 
ATOM     14  C   LIG    1      -37.076  78.572  30.515  0.00  0.00    +0.107 C 
BRANCH  11  15
ATOM     15  C   LIG    1      -34.125  78.984  28.722  0.00  0.00    +0.011 A 
ATOM     16  C   LIG    1      -33.642  79.659  27.595  0.00  0.00    +0.129 A 
ATOM     17  F   LIG    1      -34.054  80.908  27.337  0.00  0.00    -0.205 F 
ATOM     18  C   LIG    1      -32.718  79.070  26.730  0.00  0.00    +0.041 A 
ATOM     19  C   LIG    1      -32.250  77.783  26.989  0.00  0.00    +0.041 A 
ATOM     20  C   LIG    1      -32.706  77.109  28.114  0.00  0.00    +0.124 A 
ATOM     21  F   LIG    1      -32.252  75.877  28.377  0.00  0.00    -0.205 F 
ATOM     22  C   LIG    1      -33.626  77.696  28.980  0.00  0.00    +0.046 A 
ENDBRANCH  11  15
ENDBRANCH   4  10
BRANCH   1  24
ATOM     23  C   LIG    1      -38.769  76.518  24.888  0.00  0.00    +0.239 C 
ATOM     24  N   LIG    1      -39.666  77.325  25.360  0.00  0.00    -0.206 NA
BRANCH  23  25
ATOM     25  C   LIG    1      -39.021  75.066  24.635  0.00  0.00    +0.125 A 
ATOM     26  N   LIG    1      -38.040  74.192  24.993  0.00  0.00    -0.250 NA
ATOM     27  C   LIG    1      -38.270  72.883  24.779  0.00  0.00    +0.111 A 
ATOM     28  C   LIG    1      -39.437  72.393  24.220  0.00  0.00    +0.020 A 
ATOM     29  C   LIG    1      -40.431  73.300  23.861  0.00  0.00    +0.004 A 
ATOM     30  C   LIG    1      -40.225  74.662  24.071  0.00  0.00    +0.033 A 
ENDBRANCH  23  25
BRANCH  23  31
ATOM     31  O   LIG    1      -37.495  76.816  24.546  0.00  0.00    -0.491 OA
ATOM     32  H   LIG    1      -37.286  76.508  23.648  0.00  0.00    +0.294 HD
ENDBRANCH  23  31
ENDBRANCH   1  24
TORSDOF 5
ENDMDL
MODEL 2
REMARK VINA RESULT:      -6.0     14.081     16.955
REMARK  Name = pdb/CHEMBL3892605.pdb
REMARK                            x       y       z     vdW  Elec       q    Type
REMARK                         _______ _______ _______ _____ _____    ______ ____
ROOT
ATOM      1  C   LIG    1      -31.924  93.910  22.861  0.00  0.00    +0.131 A 
ATOM      2  C   LIG    1      -32.419  93.437  21.668  0.00  0.00    +0.183 A 
ATOM      3  N   LIG    1      -33.590  92.801  21.354  0.00  0.00    -0.211 NA
ATOM      4  C   LIG    1      -33.844  92.538  20.092  0.00  0.00    +0.126 A 
ATOM      5  C   LIG    1      -32.869  92.905  19.000  0.00  0.00    +0.063 A 
ATOM      6  C   LIG    1      -31.728  93.506  19.365  0.00  0.00    +0.118 A 
ATOM      7  N   LIG    1      -31.479  93.784  20.701  0.00  0.00    -0.220 N 
ATOM      8  N   LIG    1      -30.389  94.389  21.239  0.00  0.00    -0.171 NA
ATOM      9  C   LIG    1      -30.665  94.447  22.547  0.00  0.00    +0.165 A 
ENDROOT
BRANCH   4  10
ATOM     10  N   LIG    1      -35.032  91.901  19.776  0.00  0.00    -0.308 N 
ATOM     11  C   LIG    1      -35.140  90.436  19.606  0.00  0.00    +0.108 C 
ATOM     12  C   LIG    1      -36.649  90.145  19.707  0.00  0.00    +0.029 C 
ATOM     13  C   LIG    1      -37.218  91.361  20.418  0.00  0.00    +0.021 C 
ATOM     14  C   LIG    1      -36.351  92.499  19.906  0.00  0.00    +0.107 C 
BRANCH  11  15
ATOM     15  C   LIG    1      -34.596  89.985  18.265  0.00  0.00    +0.011 A 
ATOM     16  C   LIG    1      -34.946  90.684  17.104  0.00  0.00    +0.129 A 
ATOM     17  F   LIG    1      -35.754  91.751  17.185  0.00  0.00    -0.205 F 
ATOM     18  C   LIG    1      -34.458  90.312  15.850  0.00  0.00    +0.041 A 
ATOM     19  C   LIG    1      -33.592  89.225  15.740  0.00  0.00    +0.041 A 
ATOM     20  C   LIG    1      -33.221  88.534  16.886  0.00  0.00    +0.124 A 
ATOM     21  F   LIG    1      -32.380  87.496  16.789  0.00  0.00    -0.205 F 
ATOM     22  C   LIG    1      -33.705  88.905  18.138  0.00  0.00    +0.046 A 
ENDBRANCH  11  15
ENDBRANCH   4  10
BRANCH   1  24
ATOM     23  C   LIG    1      -32.232  92.786  24.890  0.00  0.00    +0.239 C 
ATOM     24  N   LIG    1      -32.442  93.837  24.162  0.00  0.00    -0.206 NA
BRANCH  23  25
ATOM     25  C   LIG    1      -32.788  92.616  26.268  0.00  0.00    +0.125 A 
ATOM     26  N   LIG    1      -32.758  91.364  26.801  0.00  0.00    -0.250 NA
ATOM     27  C   LIG    1      -33.245  91.211  28.047  0.00  0.00    +0.111 A 
ATOM     28  C   LIG    1      -33.769  92.249  28.796  0.00  0.00    +0.020 A 
ATOM     29  C   LIG    1      -33.791  93.524  28.237  0.00  0.00    +0.004 A 
ATOM     30  C   LIG    1      -33.292  93.717  26.950  0.00  0.00    +0.033 A 
ENDBRANCH  23  25
BRANCH  23  31
ATOM     31  O   LIG    1      -31.507  91.692  24.563  0.00  0.00    -0.491 OA
ATOM     32  H   LIG    1      -31.294  91.159  25.347  0.00  0.00    +0.294 HD
ENDBRANCH  23  31
ENDBRANCH   1  24
TORSDOF 5
ENDMDL
MODEL 3
REMARK VINA RESULT:      -5.9      6.671     12.555
REMARK  Name = pdb/CHEMBL3892605.pdb
REMARK                            x       y       z     vdW  Elec       q    Type
REMARK                         _______ _______ _______ _____ _____    ______ ____
ROOT
ATOM      1  C   LIG    1      -37.077  69.284  25.085  0.00  0.00    +0.131 A 
ATOM      2  C   LIG    1      -36.657  68.375  24.144  0.00  0.00    +0.183 A 
ATOM      3  N   LIG    1      -36.948  68.238  22.813  0.00  0.00    -0.211 NA
ATOM      4  C   LIG    1      -36.319  67.314  22.123  0.00  0.00    +0.126 A 
ATOM      5  C   LIG    1      -35.309  66.398  22.771  0.00  0.00    +0.063 A 
ATOM      6  C   LIG    1      -35.079  66.560  24.082  0.00  0.00    +0.118 A 
ATOM      7  N   LIG    1      -35.745  67.547  24.794  0.00  0.00    -0.220 N 
ATOM      8  N   LIG    1      -35.626  67.851  26.112  0.00  0.00    -0.171 NA
ATOM      9  C   LIG    1      -36.446  68.894  26.278  0.00  0.00    +0.165 A 
ENDROOT
BRANCH   4  10
ATOM     10  N   LIG    1      -36.610  67.182  20.776  0.00  0.00    -0.308 N 
ATOM     11  C   LIG    1      -37.656  67.976  20.096  0.00  0.00    +0.108 C 
ATOM     12  C   LIG    1      -37.335  67.835  18.596  0.00  0.00    +0.029 C 
ATOM     13  C   LIG    1      -35.877  67.410  18.563  0.00  0.00    +0.021 C 
ATOM     14  C   LIG    1      -35.742  66.539  19.802  0.00  0.00    +0.107 C 
BRANCH  11  15
ATOM     15  C   LIG    1      -39.045  67.450  20.398  0.00  0.00    +0.011 A 
ATOM     16  C   LIG    1      -39.994  68.297  20.982  0.00  0.00    +0.129 A 
ATOM     17  F   LIG    1      -39.673  69.566  21.265  0.00  0.00    -0.205 F 
ATOM     18  C   LIG    1      -41.290  67.858  21.265  0.00  0.00    +0.041 A 
ATOM     19  C   LIG    1      -41.661  66.551  20.954  0.00  0.00    +0.041 A 
ATOM     20  C   LIG    1      -40.735  65.706  20.357  0.00  0.00    +0.124 A 
ATOM     21  F   LIG    1      -41.088  64.452  20.045  0.00  0.00    -0.205 F 
ATOM     22  C   LIG    1      -39.443  66.142  20.073  0.00  0.00    +0.046 A 
ENDBRANCH  11  15
ENDBRANCH   4  10
BRANCH   1  24
ATOM     23  C   LIG    1      -37.607  71.512  24.603  0.00  0.00    +0.239 C 
ATOM     24  N   LIG    1      -37.996  70.340  24.995  0.00  0.00    -0.206 NA
BRANCH  23  25
ATOM     25  C   LIG    1      -38.515  72.697  24.524  0.00  0.00    +0.125 A 
ATOM     26  N   LIG    1      -38.024  73.889  24.961  0.00  0.00    -0.250 NA
ATOM     27  C   LIG    1      -38.835  74.960  24.878  0.00  0.00    +0.111 A 
ATOM     28  C   LIG    1      -40.125  74.905  24.380  0.00  0.00    +0.020 A 
ATOM     29  C   LIG    1      -40.612  73.679  23.936  0.00  0.00    +0.004 A 
ATOM     30  C   LIG    1      -39.797  72.551  24.006  0.00  0.00    +0.033 A 
ENDBRANCH  23  25
BRANCH  23  31
ATOM     31  O   LIG    1      -36.365  71.876  24.210  0.00  0.00    -0.491 OA
ATOM     32  H   LIG    1      -36.370  72.743  23.773  0.00  0.00    +0.294 HD
ENDBRANCH  23  31
ENDBRANCH   1  24
TORSDOF 5
ENDMDL
MODEL 4
REMARK VINA RESULT:      -5.9      2.680      5.208
REMARK  Name = pdb/CHEMBL3892605.pdb
REMARK                            x       y       z     vdW  Elec       q    Type
REMARK                         _______ _______ _______ _____ _____    ______ ____
ROOT
ATOM      1  C   LIG    1      -36.065  76.519  27.195  0.00  0.00    +0.131 A 
ATOM      2  C   LIG    1      -36.194  77.850  27.517  0.00  0.00    +0.183 A 
ATOM      3  N   LIG    1      -37.278  78.687  27.522  0.00  0.00    -0.211 NA
ATOM      4  C   LIG    1      -37.124  79.911  27.970  0.00  0.00    +0.126 A 
ATOM      5  C   LIG    1      -35.785  80.411  28.455  0.00  0.00    +0.063 A 
ATOM      6  C   LIG    1      -34.752  79.558  28.407  0.00  0.00    +0.118 A 
ATOM      7  N   LIG    1      -34.933  78.264  27.939  0.00  0.00    -0.220 N 
ATOM      8  N   LIG    1      -34.006  77.277  27.832  0.00  0.00    -0.171 NA
ATOM      9  C   LIG    1      -34.700  76.232  27.369  0.00  0.00    +0.165 A 
ENDROOT
BRANCH   4  10
ATOM     10  N   LIG    1      -38.223  80.754  27.981  0.00  0.00    -0.308 N 
ATOM     11  C   LIG    1      -39.516  80.399  27.358  0.00  0.00    +0.108 C 
ATOM     12  C   LIG    1      -40.526  81.384  27.976  0.00  0.00    +0.029 C 
ATOM     13  C   LIG    1      -39.848  81.868  29.246  0.00  0.00    +0.021 C 
ATOM     14  C   LIG    1      -38.378  81.900  28.862  0.00  0.00    +0.107 C 
BRANCH  11  15
ATOM     15  C   LIG    1      -39.474  80.551  25.851  0.00  0.00    +0.011 A 
ATOM     16  C   LIG    1      -39.741  79.445  25.035  0.00  0.00    +0.129 A 
ATOM     17  F   LIG    1      -40.037  78.262  25.590  0.00  0.00    -0.205 F 
ATOM     18  C   LIG    1      -39.726  79.543  23.642  0.00  0.00    +0.041 A 
ATOM     19  C   LIG    1      -39.450  80.768  23.037  0.00  0.00    +0.041 A 
ATOM     20  C   LIG    1      -39.203  81.878  23.834  0.00  0.00    +0.124 A 
ATOM     21  F   LIG    1      -38.950  83.061  23.261  0.00  0.00    -0.205 F 
ATOM     22  C   LIG    1      -39.219  81.783  25.224  0.00  0.00    +0.046 A 
ENDBRANCH  11  15
ENDBRANCH   4  10
BRANCH   1  24
ATOM     23  C   LIG    1      -37.455  75.707  25.497  0.00  0.00    +0.239 C 
ATOM     24  N   LIG    1      -37.003  75.598  26.707  0.00  0.00    -0.206 NA
BRANCH  23  25
ATOM     25  C   LIG    1      -38.488  74.792  24.920  0.00  0.00    +0.125 A 
ATOM     26  N   LIG    1      -38.219  73.458  24.937  0.00  0.00    -0.250 NA
ATOM     27  C   LIG    1      -39.153  72.632  24.431  0.00  0.00    +0.111 A 
ATOM     28  C   LIG    1      -40.354  73.070  23.900  0.00  0.00    +0.020 A 
ATOM     29  C   LIG    1      -40.615  74.438  23.892  0.00  0.00    +0.004 A 
ATOM     30  C   LIG    1      -39.669  75.319  24.410  0.00  0.00    +0.033 A 
ENDBRANCH  23  25
BRANCH  23  31
ATOM     31  O   LIG    1      -37.101  76.623  24.567  0.00  0.00    -0.491 OA
ATOM     32  H   LIG    1      -36.637  77.376  24.968  0.00  0.00    +0.294 HD
ENDBRANCH  23  31
ENDBRANCH   1  24
TORSDOF 5
ENDMDL
MODEL 5
REMARK VINA RESULT:      -5.9     10.692     13.877
REMARK  Name = pdb/CHEMBL3892605.pdb
REMARK                            x       y       z     vdW  Elec       q    Type
REMARK                         _______ _______ _______ _____ _____    ______ ____
ROOT
ATOM      1  C   LIG    1      -27.339  77.058  33.850  0.00  0.00    +0.131 A 
ATOM      2  C   LIG    1      -26.040  77.462  33.656  0.00  0.00    +0.183 A 
ATOM      3  N   LIG    1      -25.148  77.215  32.646  0.00  0.00    -0.211 NA
ATOM      4  C   LIG    1      -23.981  77.816  32.677  0.00  0.00    +0.126 A 
ATOM      5  C   LIG    1      -23.604  78.747  33.804  0.00  0.00    +0.063 A 
ATOM      6  C   LIG    1      -24.505  78.936  34.778  0.00  0.00    +0.118 A 
ATOM      7  N   LIG    1      -25.737  78.300  34.726  0.00  0.00    -0.220 N 
ATOM      8  N   LIG    1      -26.760  78.386  35.615  0.00  0.00    -0.171 NA
ATOM      9  C   LIG    1      -27.717  77.620  35.081  0.00  0.00    +0.165 A 
ENDROOT
BRANCH   4  10
ATOM     10  N   LIG    1      -23.084  77.570  31.652  0.00  0.00    -0.308 N 
ATOM     11  C   LIG    1      -21.992  76.579  31.757  0.00  0.00    +0.108 C 
ATOM     12  C   LIG    1      -21.555  76.328  30.301  0.00  0.00    +0.029 C 
ATOM     13  C   LIG    1      -22.738  76.792  29.470  0.00  0.00    +0.021 C 
ATOM     14  C   LIG    1      -23.282  77.967  30.267  0.00  0.00    +0.107 C 
BRANCH  11  15
ATOM     15  C   LIG    1      -20.833  77.105  32.581  0.00  0.00    +0.011 A 
ATOM     16  C   LIG    1      -20.602  76.589  33.861  0.00  0.00    +0.129 A 
ATOM     17  F   LIG    1      -21.402  75.630  34.349  0.00  0.00    -0.205 F 
ATOM     18  C   LIG    1      -19.539  77.035  34.649  0.00  0.00    +0.041 A 
ATOM     19  C   LIG    1      -18.674  78.010  34.156  0.00  0.00    +0.041 A 
ATOM     20  C   LIG    1      -18.879  78.517  32.880  0.00  0.00    +0.124 A 
ATOM     21  F   LIG    1      -18.045  79.445  32.394  0.00  0.00    -0.205 F 
ATOM     22  C   LIG    1      -19.938  78.072  32.091  0.00  0.00    +0.046 A 
ENDBRANCH  11  15
ENDBRANCH   4  10
BRANCH   1  24
ATOM     23  C   LIG    1      -28.852  76.673  32.107  0.00  0.00    +0.239 C 
ATOM     24  N   LIG    1      -28.158  76.205  33.095  0.00  0.00    -0.206 NA
BRANCH  23  25
ATOM     25  C   LIG    1      -29.781  75.837  31.285  0.00  0.00    +0.125 A 
ATOM     26  N   LIG    1      -30.380  76.435  30.219  0.00  0.00    -0.250 NA
ATOM     27  C   LIG    1      -31.205  75.681  29.470  0.00  0.00    +0.111 A 
ATOM     28  C   LIG    1      -31.470  74.348  29.731  0.00  0.00    +0.020 A 
ATOM     29  C   LIG    1      -30.848  73.750  30.823  0.00  0.00    +0.004 A 
ATOM     30  C   LIG    1      -29.986  74.503  31.618  0.00  0.00    +0.033 A 
ENDBRANCH  23  25
BRANCH  23  31
ATOM     31  O   LIG    1      -28.874  77.945  31.648  0.00  0.00    -0.491 OA
ATOM     32  H   LIG    1      -29.783  78.278  31.567  0.00  0.00    +0.294 HD
ENDBRANCH  23  31
ENDBRANCH   1  24
TORSDOF 5
ENDMDL
MODEL 6
REMARK VINA RESULT:      -5.9     11.162     14.837
REMARK  Name = pdb/CHEMBL3892605.pdb
REMARK                            x       y       z     vdW  Elec       q    Type
REMARK                         _______ _______ _______ _____ _____    ______ ____
ROOT
ATOM      1  C   LIG    1      -33.000  65.933  19.271  0.00  0.00    +0.131 A 
ATOM      2  C   LIG    1      -31.717  66.250  18.893  0.00  0.00    +0.183 A 
ATOM      3  N   LIG    1      -30.996  67.410  18.991  0.00  0.00    -0.211 NA
ATOM      4  C   LIG    1      -29.735  67.400  18.623  0.00  0.00    +0.126 A 
ATOM      5  C   LIG    1      -29.082  66.151  18.083  0.00  0.00    +0.063 A 
ATOM      6  C   LIG    1      -29.840  65.048  17.987  0.00  0.00    +0.118 A 
ATOM      7  N   LIG    1      -31.167  65.074  18.388  0.00  0.00    -0.220 N 
ATOM      8  N   LIG    1      -32.066  64.055  18.368  0.00  0.00    -0.171 NA
ATOM      9  C   LIG    1      -33.173  64.592  18.892  0.00  0.00    +0.165 A 
ENDROOT
BRANCH   4  10
ATOM     10  N   LIG    1      -29.007  68.572  18.729  0.00  0.00    -0.308 N 
ATOM     11  C   LIG    1      -29.615  69.913  18.599  0.00  0.00    +0.108 C 
ATOM     12  C   LIG    1      -28.574  70.871  19.208  0.00  0.00    +0.029 C 
ATOM     13  C   LIG    1      -27.706  69.977  20.077  0.00  0.00    +0.021 C 
ATOM     14  C   LIG    1      -27.675  68.669  19.304  0.00  0.00    +0.107 C 
BRANCH  11  15
ATOM     15  C   LIG    1      -29.887  70.269  17.151  0.00  0.00    +0.011 A 
ATOM     16  C   LIG    1      -31.205  70.306  16.682  0.00  0.00    +0.129 A 
ATOM     17  F   LIG    1      -32.218  70.033  17.516  0.00  0.00    -0.205 F 
ATOM     18  C   LIG    1      -31.502  70.641  15.359  0.00  0.00    +0.041 A 
ATOM     19  C   LIG    1      -30.471  70.959  14.478  0.00  0.00    +0.041 A 
ATOM     20  C   LIG    1      -29.160  70.946  14.935  0.00  0.00    +0.124 A 
ATOM     21  F   LIG    1      -28.164  71.262  14.096  0.00  0.00    -0.205 F 
ATOM     22  C   LIG    1      -28.861  70.613  16.254  0.00  0.00    +0.046 A 
ENDBRANCH  11  15
ENDBRANCH   4  10
BRANCH   1  24
ATOM     23  C   LIG    1      -34.293  66.633  21.092  0.00  0.00    +0.239 C 
ATOM     24  N   LIG    1      -34.014  66.726  19.830  0.00  0.00    -0.206 NA
BRANCH  23  25
ATOM     25  C   LIG    1      -35.388  67.410  21.751  0.00  0.00    +0.125 A 
ATOM     26  N   LIG    1      -35.148  67.884  23.004  0.00  0.00    -0.250 NA
ATOM     27  C   LIG    1      -36.127  68.595  23.594  0.00  0.00    +0.111 A 
ATOM     28  C   LIG    1      -37.346  68.860  22.996  0.00  0.00    +0.020 A 
ATOM     29  C   LIG    1      -37.576  68.368  21.714  0.00  0.00    +0.004 A 
ATOM     30  C   LIG    1      -36.582  67.630  21.074  0.00  0.00    +0.033 A 
ENDBRANCH  23  25
BRANCH  23  31
ATOM     31  O   LIG    1      -33.682  65.854  22.013  0.00  0.00    -0.491 OA
ATOM     32  H   LIG    1      -32.747  65.710  21.794  0.00  0.00    +0.294 HD
ENDBRANCH  23  31
ENDBRANCH   1  24
TORSDOF 5
ENDMDL
MODEL 7
REMARK VINA RESULT:      -5.8     12.037     15.703
REMARK  Name = pdb/CHEMBL3892605.pdb
REMARK                            x       y       z     vdW  Elec       q    Type
REMARK                         _______ _______ _______ _____ _____    ______ ____
ROOT
ATOM      1  C   LIG    1      -24.061  79.318  34.457  0.00  0.00    +0.131 A 
ATOM      2  C   LIG    1      -22.719  79.137  34.222  0.00  0.00    +0.183 A 
ATOM      3  N   LIG    1      -22.047  78.327  33.345  0.00  0.00    -0.211 NA
ATOM      4  C   LIG    1      -20.740  78.428  33.272  0.00  0.00    +0.126 A 
ATOM      5  C   LIG    1      -19.974  79.395  34.142  0.00  0.00    +0.063 A 
ATOM      6  C   LIG    1      -20.679  80.148  34.998  0.00  0.00    +0.118 A 
ATOM      7  N   LIG    1      -22.060  80.036  35.057  0.00  0.00    -0.220 N 
ATOM      8  N   LIG    1      -22.922  80.722  35.853  0.00  0.00    -0.171 NA
ATOM      9  C   LIG    1      -24.127  80.269  35.490  0.00  0.00    +0.165 A 
ENDROOT
BRANCH   4  10
ATOM     10  N   LIG    1      -20.063  77.613  32.380  0.00  0.00    -0.308 N 
ATOM     11  C   LIG    1      -20.605  77.246  31.054  0.00  0.00    +0.108 C 
ATOM     12  C   LIG    1      -19.384  76.733  30.267  0.00  0.00    +0.029 C 
ATOM     13  C   LIG    1      -18.190  77.311  31.007  0.00  0.00    +0.021 C 
ATOM     14  C   LIG    1      -18.645  77.302  32.457  0.00  0.00    +0.107 C 
BRANCH  11  15
ATOM     15  C   LIG    1      -21.665  76.169  31.160  0.00  0.00    +0.011 A 
ATOM     16  C   LIG    1      -22.938  76.395  30.622  0.00  0.00    +0.129 A 
ATOM     17  F   LIG    1      -23.209  77.557  30.012  0.00  0.00    -0.205 F 
ATOM     18  C   LIG    1      -23.941  75.425  30.684  0.00  0.00    +0.041 A 
ATOM     19  C   LIG    1      -23.678  74.195  31.285  0.00  0.00    +0.041 A 
ATOM     20  C   LIG    1      -22.415  73.951  31.806  0.00  0.00    +0.124 A 
ATOM     21  F   LIG    1      -22.151  72.767  32.375  0.00  0.00    -0.205 F 
ATOM     22  C   LIG    1      -21.412  74.916  31.743  0.00  0.00    +0.046 A 
ENDBRANCH  11  15
ENDBRANCH   4  10
BRANCH   1  24
ATOM     23  C   LIG    1      -25.245  77.386  33.874  0.00  0.00    +0.239 C 
ATOM     24  N   LIG    1      -25.184  78.679  33.909  0.00  0.00    -0.206 NA
BRANCH  23  25
ATOM     25  C   LIG    1      -26.386  76.633  33.265  0.00  0.00    +0.125 A 
ATOM     26  N   LIG    1      -27.289  77.349  32.541  0.00  0.00    -0.250 NA
ATOM     27  C   LIG    1      -28.309  76.672  31.981  0.00  0.00    +0.111 A 
ATOM     28  C   LIG    1      -28.479  75.304  32.108  0.00  0.00    +0.020 A 
ATOM     29  C   LIG    1      -27.546  74.586  32.851  0.00  0.00    +0.004 A 
ATOM     30  C   LIG    1      -26.477  75.258  33.442  0.00  0.00    +0.033 A 
ENDBRANCH  23  25
BRANCH  23  31
ATOM     31  O   LIG    1      -24.336  76.507  34.352  0.00  0.00    -0.491 OA
ATOM     32  H   LIG    1      -24.121  76.687  35.282  0.00  0.00    +0.294 HD
ENDBRANCH  23  31
ENDBRANCH   1  24
TORSDOF 5
ENDMDL
MODEL 8
REMARK VINA RESULT:      -5.8     17.688     19.875
REMARK  Name = pdb/CHEMBL3892605.pdb
REMARK                            x       y       z     vdW  Elec       q    Type
REMARK                         _______ _______ _______ _____ _____    ______ ____
ROOT
ATOM      1  C   LIG    1      -25.519  83.416  11.499  0.00  0.00    +0.131 A 
ATOM      2  C   LIG    1      -24.484  84.215  11.923  0.00  0.00    +0.183 A 
ATOM      3  N   LIG    1      -23.300  83.922  12.545  0.00  0.00    -0.211 NA
ATOM      4  C   LIG    1      -22.443  84.894  12.756  0.00  0.00    +0.126 A 
ATOM      5  C   LIG    1      -22.746  86.315  12.346  0.00  0.00    +0.063 A 
ATOM      6  C   LIG    1      -23.929  86.551  11.761  0.00  0.00    +0.118 A 
ATOM      7  N   LIG    1      -24.819  85.511  11.538  0.00  0.00    -0.220 N 
ATOM      8  N   LIG    1      -26.045  85.571  10.955  0.00  0.00    -0.171 NA
ATOM      9  C   LIG    1      -26.463  84.301  10.950  0.00  0.00    +0.165 A 
ENDROOT
BRANCH   4  10
ATOM     10  N   LIG    1      -21.243  84.594  13.379  0.00  0.00    -0.308 N 
ATOM     11  C   LIG    1      -20.675  83.229  13.418  0.00  0.00    +0.108 C 
ATOM     12  C   LIG    1      -19.196  83.437  13.795  0.00  0.00    +0.029 C 
ATOM     13  C   LIG    1      -18.921  84.889  13.447  0.00  0.00    +0.021 C 
ATOM     14  C   LIG    1      -20.241  85.576  13.760  0.00  0.00    +0.107 C 
BRANCH  11  15
ATOM     15  C   LIG    1      -21.372  82.360  14.446  0.00  0.00    +0.011 A 
ATOM     16  C   LIG    1      -21.644  81.019  14.150  0.00  0.00    +0.129 A 
ATOM     17  F   LIG    1      -21.282  80.511  12.964  0.00  0.00    -0.205 F 
ATOM     18  C   LIG    1      -22.272  80.179  15.071  0.00  0.00    +0.041 A 
ATOM     19  C   LIG    1      -22.633  80.673  16.324  0.00  0.00    +0.041 A 
ATOM     20  C   LIG    1      -22.352  81.996  16.638  0.00  0.00    +0.124 A 
ATOM     21  F   LIG    1      -22.684  82.474  17.845  0.00  0.00    -0.205 F 
ATOM     22  C   LIG    1      -21.724  82.835  15.721  0.00  0.00    +0.046 A 
ENDBRANCH  11  15
ENDBRANCH   4  10
BRANCH   1  24
ATOM     23  C   LIG    1      -25.509  81.443  12.757  0.00  0.00    +0.239 C 
ATOM     24  N   LIG    1      -25.722  82.034  11.623  0.00  0.00    -0.206 NA
BRANCH  23  25
ATOM     25  C   LIG    1      -25.659  79.968  12.956  0.00  0.00    +0.125 A 
ATOM     26  N   LIG    1      -25.626  79.183  11.845  0.00  0.00    -0.250 NA
ATOM     27  C   LIG    1      -25.747  77.854  12.024  0.00  0.00    +0.111 A 
ATOM     28  C   LIG    1      -25.903  77.261  13.264  0.00  0.00    +0.020 A 
ATOM     29  C   LIG    1      -25.933  78.078  14.391  0.00  0.00    +0.004 A 
ATOM     30  C   LIG    1      -25.808  79.458  14.240  0.00  0.00    +0.033 A 
ENDBRANCH  23  25
BRANCH  23  31
ATOM     31  O   LIG    1      -25.127  82.014  13.921  0.00  0.00    -0.491 OA
ATOM     32  H   LIG    1      -25.892  82.246  14.472  0.00  0.00    +0.294 HD
ENDBRANCH  23  31
ENDBRANCH   1  24
TORSDOF 5
ENDMDL
MODEL 9
REMARK VINA RESULT:      -5.7     14.086     18.110
REMARK  Name = pdb/CHEMBL3892605.pdb
REMARK                            x       y       z     vdW  Elec       q    Type
REMARK                         _______ _______ _______ _____ _____    ______ ____
ROOT
ATOM      1  C   LIG    1      -19.092  78.422  32.840  0.00  0.00    +0.131 A 
ATOM      2  C   LIG    1      -19.422  77.136  32.482  0.00  0.00    +0.183 A 
ATOM      3  N   LIG    1      -20.602  76.444  32.550  0.00  0.00    -0.211 NA
ATOM      4  C   LIG    1      -20.651  75.233  32.043  0.00  0.00    +0.126 A 
ATOM      5  C   LIG    1      -19.438  74.594  31.412  0.00  0.00    +0.063 A 
ATOM      6  C   LIG    1      -18.303  75.307  31.392  0.00  0.00    +0.118 A 
ATOM      7  N   LIG    1      -18.270  76.588  31.924  0.00  0.00    -0.220 N 
ATOM      8  N   LIG    1      -17.217  77.444  31.978  0.00  0.00    -0.171 NA
ATOM      9  C   LIG    1      -17.724  78.543  32.546  0.00  0.00    +0.165 A 
ENDROOT
BRANCH   4  10
ATOM     10  N   LIG    1      -21.846  74.538  32.106  0.00  0.00    -0.308 N 
ATOM     11  C   LIG    1      -22.796  74.464  30.975  0.00  0.00    +0.108 C 
ATOM     12  C   LIG    1      -23.715  73.276  31.320  0.00  0.00    +0.029 C 
ATOM     13  C   LIG    1      -22.922  72.470  32.333  0.00  0.00    +0.021 C 
ATOM     14  C   LIG    1      -22.168  73.537  33.111  0.00  0.00    +0.107 C 
BRANCH  11  15
ATOM     15  C   LIG    1      -23.601  75.740  30.833  0.00  0.00    +0.011 A 
ATOM     16  C   LIG    1      -23.149  76.753  29.980  0.00  0.00    +0.129 A 
ATOM     17  F   LIG    1      -22.012  76.587  29.290  0.00  0.00    -0.205 F 
ATOM     18  C   LIG    1      -23.865  77.940  29.809  0.00  0.00    +0.041 A 
ATOM     19  C   LIG    1      -25.066  78.127  30.491  0.00  0.00    +0.041 A 
ATOM     20  C   LIG    1      -25.536  77.122  31.325  0.00  0.00    +0.124 A 
ATOM     21  F   LIG    1      -26.696  77.290  31.975  0.00  0.00    -0.205 F 
ATOM     22  C   LIG    1      -24.824  75.938  31.497  0.00  0.00    +0.046 A 
ENDBRANCH  11  15
ENDBRANCH   4  10
BRANCH   1  24
ATOM     23  C   LIG    1      -20.012  79.435  34.738  0.00  0.00    +0.239 C 
ATOM     24  N   LIG    1      -19.854  79.428  33.452  0.00  0.00    -0.206 NA
BRANCH  23  25
ATOM     25  C   LIG    1      -20.845  80.447  35.459  0.00  0.00    +0.125 A 
ATOM     26  N   LIG    1      -20.240  81.164  36.444  0.00  0.00    -0.250 NA
ATOM     27  C   LIG    1      -20.984  82.085  37.085  0.00  0.00    +0.111 A 
ATOM     28  C   LIG    1      -22.315  82.329  36.794  0.00  0.00    +0.020 A 
ATOM     29  C   LIG    1      -22.919  81.587  35.783  0.00  0.00    +0.004 A 
ATOM     30  C   LIG    1      -22.175  80.628  35.099  0.00  0.00    +0.033 A 
ENDBRANCH  23  25
BRANCH  23  31
ATOM     31  O   LIG    1      -19.483  78.572  35.635  0.00  0.00    -0.491 OA
ATOM     32  H   LIG    1      -19.051  77.821  35.196  0.00  0.00    +0.294 HD
ENDBRANCH  23  31
ENDBRANCH   1  24
TORSDOF 5
ENDMDL
