MODEL 1
REMARK VINA RESULT:      -6.4      0.000      0.000
REMARK  Name = pdb/CHEMBL3930393.pdb
REMARK                            x       y       z     vdW  Elec       q    Type
REMARK                         _______ _______ _______ _____ _____    ______ ____
ROOT
ATOM      1  C   LIG    1      -37.204  80.023  27.629  0.00  0.00    +0.149 A 
ATOM      2  N   LIG    1      -36.291  79.304  28.299  0.00  0.00    -0.160 NA
ATOM      3  N   LIG    1      -36.428  78.037  27.848  0.00  0.00    -0.218 N 
ATOM      4  C   LIG    1      -37.555  77.898  27.030  0.00  0.00    +0.129 A 
ATOM      5  C   LIG    1      -38.028  79.178  26.844  0.00  0.00    +0.078 A 
ENDROOT
BRANCH   3   6
ATOM      6  C   LIG    1      -35.465  77.055  28.210  0.00  0.00    +0.067 A 
ATOM      7  C   LIG    1      -34.670  76.445  27.235  0.00  0.00    +0.028 A 
ATOM      8  C   LIG    1      -33.718  75.489  27.595  0.00  0.00    +0.002 A 
ATOM      9  C   LIG    1      -33.529  75.162  28.935  0.00  0.00    +0.000 A 
ATOM     10  C   LIG    1      -34.296  75.788  29.917  0.00  0.00    +0.002 A 
ATOM     11  C   LIG    1      -35.259  76.738  29.559  0.00  0.00    +0.028 A 
ENDBRANCH   3   6
BRANCH   4  12
ATOM     12  N   LIG    1      -38.134  76.704  26.569  0.00  0.00    -0.266 N 
ATOM     13  H   LIG    1      -38.764  76.226  27.205  0.00  0.00    +0.157 HD
ATOM     14  C   LIG    1      -37.893  76.136  25.269  0.00  0.00    +0.251 C 
ATOM     15  O   LIG    1      -37.125  76.683  24.481  0.00  0.00    -0.270 OA
BRANCH  14  16
ATOM     16  C   LIG    1      -38.609  74.892  24.880  0.00  0.00    +0.056 A 
ATOM     17  C   LIG    1      -39.843  74.871  24.237  0.00  0.00    +0.054 A 
ATOM     18 CL   LIG    1      -40.779  76.269  23.901  0.00  0.00    -0.083 Cl
ATOM     19  C   LIG    1      -40.403  73.657  23.845  0.00  0.00    +0.041 A 
ATOM     20  C   LIG    1      -39.762  72.438  24.112  0.00  0.00    +0.052 A 
ATOM     21 CL   LIG    1      -40.479  71.064  23.345  0.00  0.00    -0.083 Cl
ATOM     22  C   LIG    1      -38.574  72.395  24.865  0.00  0.00    +0.022 A 
ATOM     23  C   LIG    1      -38.011  73.656  25.214  0.00  0.00    +0.026 A 
BRANCH  22  24
ATOM     24  C   LIG    1      -37.860  71.155  25.284  0.00  0.00    +0.107 A 
ATOM     25  C   LIG    1      -37.216  70.256  24.427  0.00  0.00    +0.149 A 
ATOM     26  F   LIG    1      -37.248  70.394  23.095  0.00  0.00    -0.203 F 
ATOM     27  C   LIG    1      -36.571  69.134  24.944  0.00  0.00    +0.042 A 
ATOM     28  C   LIG    1      -36.633  68.880  26.306  0.00  0.00    +0.023 A 
ATOM     29  C   LIG    1      -37.339  69.770  27.094  0.00  0.00    +0.111 A 
ATOM     30  N   LIG    1      -37.931  70.897  26.622  0.00  0.00    -0.252 NA
ENDBRANCH  22  24
ENDBRANCH  14  16
ENDBRANCH   4  12
BRANCH   1  31
ATOM     31  C   LIG    1      -37.319  81.475  27.779  0.00  0.00    +0.236 C 
ATOM     32  N   LIG    1      -36.471  82.253  27.211  0.00  0.00    -0.243 NA
BRANCH  32  33
ATOM     33  C   LIG    1      -36.553  83.706  27.313  0.00  0.00    +0.137 C 
ATOM     34  C   LIG    1      -36.001  84.376  26.052  0.00  0.00    +0.186 C 
ATOM     35  O   LIG    1      -35.509  85.670  26.443  0.00  0.00    -0.378 OA
ATOM     36  C   LIG    1      -35.451  85.712  27.871  0.00  0.00    +0.162 C 
ATOM     37  C   LIG    1      -35.627  84.294  28.357  0.00  0.00    +0.057 C 
ENDBRANCH  32  33
BRANCH  31  38
ATOM     38  O   LIG    1      -38.362  81.883  28.530  0.00  0.00    -0.491 OA
ATOM     39  H   LIG    1      -38.148  82.645  29.076  0.00  0.00    +0.294 HD
ENDBRANCH  31  38
ENDBRANCH   1  31
TORSDOF 7
ENDMDL
MODEL 2
REMARK VINA RESULT:      -6.3     13.177     17.250
REMARK  Name = pdb/CHEMBL3930393.pdb
REMARK                            x       y       z     vdW  Elec       q    Type
REMARK                         _______ _______ _______ _____ _____    ______ ____
ROOT
ATOM      1  C   LIG    1      -26.851  76.217  31.927  0.00  0.00    +0.149 A 
ATOM      2  N   LIG    1      -25.808  75.981  31.116  0.00  0.00    -0.160 NA
ATOM      3  N   LIG    1      -24.772  76.659  31.657  0.00  0.00    -0.218 N 
ATOM      4  C   LIG    1      -25.185  77.488  32.705  0.00  0.00    +0.129 A 
ATOM      5  C   LIG    1      -26.508  77.171  32.917  0.00  0.00    +0.078 A 
ENDROOT
BRANCH   3   6
ATOM      6  C   LIG    1      -23.458  76.452  31.151  0.00  0.00    +0.067 A 
ATOM      7  C   LIG    1      -23.059  77.033  29.944  0.00  0.00    +0.028 A 
ATOM      8  C   LIG    1      -21.765  76.837  29.457  0.00  0.00    +0.002 A 
ATOM      9  C   LIG    1      -20.851  76.087  30.190  0.00  0.00    +0.000 A 
ATOM     10  C   LIG    1      -21.230  75.529  31.411  0.00  0.00    +0.002 A 
ATOM     11  C   LIG    1      -22.528  75.714  31.896  0.00  0.00    +0.028 A 
ENDBRANCH   3   6
BRANCH   4  12
ATOM     12  N   LIG    1      -24.439  78.491  33.347  0.00  0.00    -0.266 N 
ATOM     13  H   LIG    1      -24.517  79.430  32.970  0.00  0.00    +0.157 HD
ATOM     14  C   LIG    1      -23.593  78.266  34.489  0.00  0.00    +0.251 C 
ATOM     15  O   LIG    1      -23.466  77.138  34.960  0.00  0.00    -0.270 OA
BRANCH  14  16
ATOM     16  C   LIG    1      -22.895  79.424  35.109  0.00  0.00    +0.056 A 
ATOM     17  C   LIG    1      -21.523  79.641  35.031  0.00  0.00    +0.054 A 
ATOM     18 CL   LIG    1      -20.414  78.550  34.308  0.00  0.00    -0.083 Cl
ATOM     19  C   LIG    1      -20.968  80.795  35.582  0.00  0.00    +0.041 A 
ATOM     20  C   LIG    1      -21.763  81.739  36.248  0.00  0.00    +0.052 A 
ATOM     21 CL   LIG    1      -20.948  83.211  36.651  0.00  0.00    -0.083 Cl
ATOM     22  C   LIG    1      -23.135  81.509  36.461  0.00  0.00    +0.022 A 
ATOM     23  C   LIG    1      -23.674  80.341  35.851  0.00  0.00    +0.026 A 
BRANCH  22  24
ATOM     24  C   LIG    1      -24.051  82.398  37.232  0.00  0.00    +0.107 A 
ATOM     25  C   LIG    1      -23.867  82.810  38.556  0.00  0.00    +0.149 A 
ATOM     26  F   LIG    1      -22.848  82.366  39.304  0.00  0.00    -0.203 F 
ATOM     27  C   LIG    1      -24.793  83.655  39.164  0.00  0.00    +0.042 A 
ATOM     28  C   LIG    1      -25.934  84.026  38.468  0.00  0.00    +0.023 A 
ATOM     29  C   LIG    1      -26.094  83.535  37.186  0.00  0.00    +0.111 A 
ATOM     30  N   LIG    1      -25.182  82.753  36.554  0.00  0.00    -0.252 NA
ENDBRANCH  22  24
ENDBRANCH  14  16
ENDBRANCH   4  12
BRANCH   1  31
ATOM     31  C   LIG    1      -28.158  75.587  31.725  0.00  0.00    +0.236 C 
ATOM     32  N   LIG    1      -29.117  76.247  31.185  0.00  0.00    -0.243 NA
BRANCH  32  33
ATOM     33  C   LIG    1      -30.430  75.660  30.944  0.00  0.00    +0.137 C 
ATOM     34  C   LIG    1      -31.062  76.234  29.673  0.00  0.00    +0.186 C 
ATOM     35  O   LIG    1      -32.489  76.156  29.840  0.00  0.00    -0.378 OA
ATOM     36  C   LIG    1      -32.763  75.860  31.212  0.00  0.00    +0.162 C 
ATOM     37  C   LIG    1      -31.471  76.062  31.967  0.00  0.00    +0.057 C 
ENDBRANCH  32  33
BRANCH  31  38
ATOM     38  O   LIG    1      -28.234  74.306  32.137  0.00  0.00    -0.491 OA
ATOM     39  H   LIG    1      -29.068  74.108  32.574  0.00  0.00    +0.294 HD
ENDBRANCH  31  38
ENDBRANCH   1  31
TORSDOF 7
ENDMDL
MODEL 3
REMARK VINA RESULT:      -6.3      7.305     12.207
REMARK  Name = pdb/CHEMBL3930393.pdb
REMARK                            x       y       z     vdW  Elec       q    Type
REMARK                         _______ _______ _______ _____ _____    ______ ____
ROOT
ATOM      1  C   LIG    1      -33.519  73.463  28.369  0.00  0.00    +0.149 A 
ATOM      2  N   LIG    1      -33.988  74.688  28.087  0.00  0.00    -0.160 NA
ATOM      3  N   LIG    1      -33.051  75.547  28.546  0.00  0.00    -0.218 N 
ATOM      4  C   LIG    1      -32.069  74.890  29.295  0.00  0.00    +0.129 A 
ATOM      5  C   LIG    1      -32.335  73.548  29.143  0.00  0.00    +0.078 A 
ENDROOT
BRANCH   3   6
ATOM      6  C   LIG    1      -33.145  76.928  28.220  0.00  0.00    +0.067 A 
ATOM      7  C   LIG    1      -32.321  77.486  27.239  0.00  0.00    +0.028 A 
ATOM      8  C   LIG    1      -32.423  78.841  26.914  0.00  0.00    +0.002 A 
ATOM      9  C   LIG    1      -33.375  79.638  27.542  0.00  0.00    +0.000 A 
ATOM     10  C   LIG    1      -34.224  79.083  28.500  0.00  0.00    +0.002 A 
ATOM     11  C   LIG    1      -34.115  77.730  28.836  0.00  0.00    +0.028 A 
ENDBRANCH   3   6
BRANCH   4  12
ATOM     12  N   LIG    1      -31.077  75.473  30.102  0.00  0.00    -0.266 N 
ATOM     13  H   LIG    1      -30.407  76.077  29.637  0.00  0.00    +0.157 HD
ATOM     14  C   LIG    1      -30.965  75.270  31.522  0.00  0.00    +0.251 C 
ATOM     15  O   LIG    1      -31.752  74.534  32.112  0.00  0.00    -0.270 OA
BRANCH  14  16
ATOM     16  C   LIG    1      -29.900  75.988  32.272  0.00  0.00    +0.056 A 
ATOM     17  C   LIG    1      -30.108  76.656  33.474  0.00  0.00    +0.054 A 
ATOM     18 CL   LIG    1      -31.643  76.855  34.214  0.00  0.00    -0.083 Cl
ATOM     19  C   LIG    1      -29.032  77.238  34.143  0.00  0.00    +0.041 A 
ATOM     20  C   LIG    1      -27.734  77.192  33.613  0.00  0.00    +0.052 A 
ATOM     21 CL   LIG    1      -26.498  77.749  34.687  0.00  0.00    -0.083 Cl
ATOM     22  C   LIG    1      -27.489  76.635  32.344  0.00  0.00    +0.022 A 
ATOM     23  C   LIG    1      -28.604  76.016  31.709  0.00  0.00    +0.026 A 
BRANCH  22  24
ATOM     24  C   LIG    1      -26.170  76.614  31.648  0.00  0.00    +0.107 A 
ATOM     25  C   LIG    1      -25.242  75.569  31.691  0.00  0.00    +0.149 A 
ATOM     26  F   LIG    1      -25.429  74.481  32.448  0.00  0.00    -0.203 F 
ATOM     27  C   LIG    1      -24.044  75.666  30.985  0.00  0.00    +0.042 A 
ATOM     28  C   LIG    1      -23.751  76.835  30.299  0.00  0.00    +0.023 A 
ATOM     29  C   LIG    1      -24.679  77.859  30.347  0.00  0.00    +0.111 A 
ATOM     30  N   LIG    1      -25.874  77.769  30.984  0.00  0.00    -0.252 NA
ENDBRANCH  22  24
ENDBRANCH  14  16
ENDBRANCH   4  12
BRANCH   1  31
ATOM     31  C   LIG    1      -34.217  72.244  27.955  0.00  0.00    +0.236 C 
ATOM     32  N   LIG    1      -33.909  71.114  28.479  0.00  0.00    -0.243 NA
BRANCH  32  33
ATOM     33  C   LIG    1      -34.586  69.874  28.116  0.00  0.00    +0.137 C 
ATOM     34  C   LIG    1      -34.512  68.854  29.256  0.00  0.00    +0.186 C 
ATOM     35  O   LIG    1      -34.573  67.548  28.657  0.00  0.00    -0.378 OA
ATOM     36  C   LIG    1      -34.382  67.693  27.248  0.00  0.00    +0.162 C 
ATOM     37  C   LIG    1      -33.887  69.100  27.017  0.00  0.00    +0.057 C 
ENDBRANCH  32  33
BRANCH  31  38
ATOM     38  O   LIG    1      -35.170  72.430  27.021  0.00  0.00    -0.491 OA
ATOM     39  H   LIG    1      -35.192  73.334  26.690  0.00  0.00    +0.294 HD
ENDBRANCH  31  38
ENDBRANCH   1  31
TORSDOF 7
ENDMDL
MODEL 4
REMARK VINA RESULT:      -6.3      6.469     10.651
REMARK  Name = pdb/CHEMBL3930393.pdb
REMARK                            x       y       z     vdW  Elec       q    Type
REMARK                         _______ _______ _______ _____ _____    ______ ____
ROOT
ATOM      1  C   LIG    1      -31.058  86.990  30.888  0.00  0.00    +0.149 A 
ATOM      2  N   LIG    1      -31.935  87.846  30.342  0.00  0.00    -0.160 NA
ATOM      3  N   LIG    1      -32.991  87.090  29.967  0.00  0.00    -0.218 N 
ATOM      4  C   LIG    1      -32.720  85.723  30.094  0.00  0.00    +0.129 A 
ATOM      5  C   LIG    1      -31.502  85.653  30.732  0.00  0.00    +0.078 A 
ENDROOT
BRANCH   3   6
ATOM      6  C   LIG    1      -34.190  87.723  29.537  0.00  0.00    +0.067 A 
ATOM      7  C   LIG    1      -34.206  88.507  28.380  0.00  0.00    +0.028 A 
ATOM      8  C   LIG    1      -35.388  89.118  27.956  0.00  0.00    +0.002 A 
ATOM      9  C   LIG    1      -36.569  88.921  28.665  0.00  0.00    +0.000 A 
ATOM     10  C   LIG    1      -36.569  88.115  29.804  0.00  0.00    +0.002 A 
ATOM     11  C   LIG    1      -35.385  87.511  30.238  0.00  0.00    +0.028 A 
ENDBRANCH   3   6
BRANCH   4  12
ATOM     12  N   LIG    1      -33.482  84.651  29.599  0.00  0.00    -0.266 N 
ATOM     13  H   LIG    1      -33.364  84.422  28.618  0.00  0.00    +0.157 HD
ATOM     14  C   LIG    1      -34.396  83.873  30.392  0.00  0.00    +0.251 C 
ATOM     15  O   LIG    1      -34.571  84.135  31.581  0.00  0.00    -0.270 OA
BRANCH  14  16
ATOM     16  C   LIG    1      -35.106  82.729  29.762  0.00  0.00    +0.056 A 
ATOM     17  C   LIG    1      -36.490  82.618  29.682  0.00  0.00    +0.054 A 
ATOM     18 CL   LIG    1      -37.589  83.722  30.401  0.00  0.00    -0.083 Cl
ATOM     19  C   LIG    1      -37.065  81.543  29.006  0.00  0.00    +0.041 A 
ATOM     20  C   LIG    1      -36.274  80.543  28.421  0.00  0.00    +0.052 A 
ATOM     21 CL   LIG    1      -37.144  79.428  27.425  0.00  0.00    -0.083 Cl
ATOM     22  C   LIG    1      -34.876  80.543  28.576  0.00  0.00    +0.022 A 
ATOM     23  C   LIG    1      -34.322  81.676  29.239  0.00  0.00    +0.026 A 
BRANCH  22  24
ATOM     24  C   LIG    1      -33.950  79.486  28.077  0.00  0.00    +0.107 A 
ATOM     25  C   LIG    1      -33.621  78.305  28.751  0.00  0.00    +0.149 A 
ATOM     26  F   LIG    1      -34.069  78.040  29.985  0.00  0.00    -0.203 F 
ATOM     27  C   LIG    1      -32.748  77.386  28.171  0.00  0.00    +0.042 A 
ATOM     28  C   LIG    1      -32.155  77.686  26.954  0.00  0.00    +0.023 A 
ATOM     29  C   LIG    1      -32.468  78.898  26.368  0.00  0.00    +0.111 A 
ATOM     30  N   LIG    1      -33.354  79.786  26.887  0.00  0.00    -0.252 NA
ENDBRANCH  22  24
ENDBRANCH  14  16
ENDBRANCH   4  12
BRANCH   1  31
ATOM     31  C   LIG    1      -29.803  87.437  31.495  0.00  0.00    +0.236 C 
ATOM     32  N   LIG    1      -29.640  87.371  32.766  0.00  0.00    -0.243 NA
BRANCH  32  33
ATOM     33  C   LIG    1      -28.402  87.786  33.418  0.00  0.00    +0.137 C 
ATOM     34  C   LIG    1      -27.877  86.688  34.347  0.00  0.00    +0.186 C 
ATOM     35  O   LIG    1      -27.123  87.339  35.384  0.00  0.00    -0.378 OA
ATOM     36  C   LIG    1      -27.396  88.742  35.322  0.00  0.00    +0.162 C 
ATOM     37  C   LIG    1      -28.587  88.914  34.411  0.00  0.00    +0.057 C 
ENDBRANCH  32  33
BRANCH  31  38
ATOM     38  O   LIG    1      -28.885  87.892  30.619  0.00  0.00    -0.491 OA
ATOM     39  H   LIG    1      -28.017  88.005  31.018  0.00  0.00    +0.294 HD
ENDBRANCH  31  38
ENDBRANCH   1  31
TORSDOF 7
ENDMDL
MODEL 5
REMARK VINA RESULT:      -6.3      4.316     10.601
REMARK  Name = pdb/CHEMBL3930393.pdb
REMARK                            x       y       z     vdW  Elec       q    Type
REMARK                         _______ _______ _______ _____ _____    ______ ____
ROOT
ATOM      1  C   LIG    1      -37.781  70.409  24.123  0.00  0.00    +0.149 A 
ATOM      2  N   LIG    1      -38.999  70.899  23.843  0.00  0.00    -0.160 NA
ATOM      3  N   LIG    1      -38.969  72.188  24.249  0.00  0.00    -0.218 N 
ATOM      4  C   LIG    1      -37.803  72.480  24.965  0.00  0.00    +0.129 A 
ATOM      5  C   LIG    1      -37.014  71.358  24.844  0.00  0.00    +0.078 A 
ENDROOT
BRANCH   3   6
ATOM      6  C   LIG    1      -40.043  73.056  23.906  0.00  0.00    +0.067 A 
ATOM      7  C   LIG    1      -41.235  72.544  23.386  0.00  0.00    +0.028 A 
ATOM      8  C   LIG    1      -42.291  73.399  23.060  0.00  0.00    +0.002 A 
ATOM      9  C   LIG    1      -42.174  74.767  23.285  0.00  0.00    +0.000 A 
ATOM     10  C   LIG    1      -41.001  75.284  23.832  0.00  0.00    +0.002 A 
ATOM     11  C   LIG    1      -39.937  74.432  24.149  0.00  0.00    +0.028 A 
ENDBRANCH   3   6
BRANCH   4  12
ATOM     12  N   LIG    1      -37.529  73.633  25.719  0.00  0.00    -0.266 N 
ATOM     13  H   LIG    1      -37.202  74.446  25.207  0.00  0.00    +0.157 HD
ATOM     14  C   LIG    1      -37.690  73.725  27.146  0.00  0.00    +0.251 C 
ATOM     15  O   LIG    1      -38.072  72.755  27.796  0.00  0.00    -0.270 OA
BRANCH  14  16
ATOM     16  C   LIG    1      -37.416  75.022  27.821  0.00  0.00    +0.056 A 
ATOM     17  C   LIG    1      -38.272  75.617  28.743  0.00  0.00    +0.054 A 
ATOM     18 CL   LIG    1      -39.822  75.008  29.153  0.00  0.00    -0.083 Cl
ATOM     19  C   LIG    1      -37.895  76.798  29.380  0.00  0.00    +0.041 A 
ATOM     20  C   LIG    1      -36.675  77.425  29.091  0.00  0.00    +0.052 A 
ATOM     21 CL   LIG    1      -36.272  78.737  30.144  0.00  0.00    -0.083 Cl
ATOM     22  C   LIG    1      -35.829  76.932  28.080  0.00  0.00    +0.022 A 
ATOM     23  C   LIG    1      -36.227  75.704  27.479  0.00  0.00    +0.026 A 
BRANCH  22  24
ATOM     24  C   LIG    1      -34.558  77.568  27.629  0.00  0.00    +0.107 A 
ATOM     25  C   LIG    1      -33.378  76.892  27.303  0.00  0.00    +0.149 A 
ATOM     26  F   LIG    1      -33.256  75.565  27.442  0.00  0.00    -0.203 F 
ATOM     27  C   LIG    1      -32.255  77.602  26.882  0.00  0.00    +0.042 A 
ATOM     28  C   LIG    1      -32.297  78.988  26.856  0.00  0.00    +0.023 A 
ATOM     29  C   LIG    1      -33.471  79.603  27.251  0.00  0.00    +0.111 A 
ATOM     30  N   LIG    1      -34.593  78.933  27.616  0.00  0.00    -0.252 NA
ENDBRANCH  22  24
ENDBRANCH  14  16
ENDBRANCH   4  12
BRANCH   1  31
ATOM     31  C   LIG    1      -37.384  69.047  23.758  0.00  0.00    +0.236 C 
ATOM     32  N   LIG    1      -36.726  68.834  22.677  0.00  0.00    -0.243 NA
BRANCH  32  33
ATOM     33  C   LIG    1      -36.290  67.501  22.278  0.00  0.00    +0.137 C 
ATOM     34  C   LIG    1      -34.840  67.249  22.701  0.00  0.00    +0.186 C 
ATOM     35  O   LIG    1      -34.290  66.297  21.774  0.00  0.00    -0.378 OA
ATOM     36  C   LIG    1      -35.187  66.183  20.666  0.00  0.00    +0.162 C 
ATOM     37  C   LIG    1      -36.167  67.326  20.779  0.00  0.00    +0.057 C 
ENDBRANCH  32  33
BRANCH  31  38
ATOM     38  O   LIG    1      -37.757  68.097  24.638  0.00  0.00    -0.491 OA
ATOM     39  H   LIG    1      -37.050  67.858  25.245  0.00  0.00    +0.294 HD
ENDBRANCH  31  38
ENDBRANCH   1  31
TORSDOF 7
ENDMDL
MODEL 6
REMARK VINA RESULT:      -6.3      4.419     10.079
REMARK  Name = pdb/CHEMBL3930393.pdb
REMARK                            x       y       z     vdW  Elec       q    Type
REMARK                         _______ _______ _______ _____ _____    ______ ____
ROOT
ATOM      1  C   LIG    1      -40.314  73.065  24.009  0.00  0.00    +0.149 A 
ATOM      2  N   LIG    1      -40.752  74.327  24.143  0.00  0.00    -0.160 NA
ATOM      3  N   LIG    1      -39.681  75.037  24.563  0.00  0.00    -0.218 N 
ATOM      4  C   LIG    1      -38.603  74.206  24.886  0.00  0.00    +0.129 A 
ATOM      5  C   LIG    1      -38.985  72.945  24.485  0.00  0.00    +0.078 A 
ENDROOT
BRANCH   3   6
ATOM      6  C   LIG    1      -39.754  76.457  24.605  0.00  0.00    +0.067 A 
ATOM      7  C   LIG    1      -39.868  77.199  23.427  0.00  0.00    +0.028 A 
ATOM      8  C   LIG    1      -39.949  78.593  23.473  0.00  0.00    +0.002 A 
ATOM      9  C   LIG    1      -39.953  79.251  24.699  0.00  0.00    +0.000 A 
ATOM     10  C   LIG    1      -39.870  78.516  25.882  0.00  0.00    +0.002 A 
ATOM     11  C   LIG    1      -39.777  77.122  25.838  0.00  0.00    +0.028 A 
ENDBRANCH   3   6
BRANCH   4  12
ATOM     12  N   LIG    1      -37.421  74.562  25.556  0.00  0.00    -0.266 N 
ATOM     13  H   LIG    1      -36.637  74.850  24.978  0.00  0.00    +0.157 HD
ATOM     14  C   LIG    1      -37.263  74.548  26.986  0.00  0.00    +0.251 C 
ATOM     15  O   LIG    1      -38.189  74.193  27.713  0.00  0.00    -0.270 OA
BRANCH  14  16
ATOM     16  C   LIG    1      -35.975  74.999  27.575  0.00  0.00    +0.056 A 
ATOM     17  C   LIG    1      -34.928  74.145  27.907  0.00  0.00    +0.054 A 
ATOM     18 CL   LIG    1      -35.007  72.435  27.798  0.00  0.00    -0.083 Cl
ATOM     19  C   LIG    1      -33.728  74.668  28.386  0.00  0.00    +0.041 A 
ATOM     20  C   LIG    1      -33.557  76.048  28.573  0.00  0.00    +0.052 A 
ATOM     21 CL   LIG    1      -31.937  76.530  28.940  0.00  0.00    -0.083 Cl
ATOM     22  C   LIG    1      -34.623  76.943  28.368  0.00  0.00    +0.022 A 
ATOM     23  C   LIG    1      -35.820  76.378  27.842  0.00  0.00    +0.026 A 
BRANCH  22  24
ATOM     24  C   LIG    1      -34.579  78.412  28.622  0.00  0.00    +0.107 A 
ATOM     25  C   LIG    1      -34.766  79.032  29.862  0.00  0.00    +0.149 A 
ATOM     26  F   LIG    1      -35.086  78.339  30.963  0.00  0.00    -0.203 F 
ATOM     27  C   LIG    1      -34.690  80.419  29.972  0.00  0.00    +0.042 A 
ATOM     28  C   LIG    1      -34.498  81.182  28.830  0.00  0.00    +0.023 A 
ATOM     29  C   LIG    1      -34.385  80.517  27.624  0.00  0.00    +0.111 A 
ATOM     30  N   LIG    1      -34.404  79.166  27.498  0.00  0.00    -0.252 NA
ENDBRANCH  22  24
ENDBRANCH  14  16
ENDBRANCH   4  12
BRANCH   1  31
ATOM     31  C   LIG    1      -41.166  71.993  23.490  0.00  0.00    +0.236 C 
ATOM     32  N   LIG    1      -41.920  72.201  22.473  0.00  0.00    -0.243 NA
BRANCH  32  33
ATOM     33  C   LIG    1      -42.772  71.162  21.906  0.00  0.00    +0.137 C 
ATOM     34  C   LIG    1      -42.131  70.547  20.659  0.00  0.00    +0.186 C 
ATOM     35  O   LIG    1      -43.202  70.072  19.825  0.00  0.00    -0.378 OA
ATOM     36  C   LIG    1      -44.429  70.610  20.325  0.00  0.00    +0.162 C 
ATOM     37  C   LIG    1      -44.061  71.690  21.313  0.00  0.00    +0.057 C 
ENDBRANCH  32  33
BRANCH  31  38
ATOM     38  O   LIG    1      -41.068  70.825  24.156  0.00  0.00    -0.491 OA
ATOM     39  H   LIG    1      -41.716  70.177  23.862  0.00  0.00    +0.294 HD
ENDBRANCH  31  38
ENDBRANCH   1  31
TORSDOF 7
ENDMDL
MODEL 7
REMARK VINA RESULT:      -6.3     17.904     19.141
REMARK  Name = pdb/CHEMBL3930393.pdb
REMARK                            x       y       z     vdW  Elec       q    Type
REMARK                         _______ _______ _______ _____ _____    ______ ____
ROOT
ATOM      1  C   LIG    1      -22.130  82.537  15.646  0.00  0.00    +0.149 A 
ATOM      2  N   LIG    1      -20.878  82.099  15.854  0.00  0.00    -0.160 NA
ATOM      3  N   LIG    1      -20.928  80.762  15.664  0.00  0.00    -0.218 N 
ATOM      4  C   LIG    1      -22.244  80.308  15.522  0.00  0.00    +0.129 A 
ATOM      5  C   LIG    1      -23.015  81.447  15.458  0.00  0.00    +0.078 A 
ENDROOT
BRANCH   3   6
ATOM      6  C   LIG    1      -19.719  80.016  15.607  0.00  0.00    +0.067 A 
ATOM      7  C   LIG    1      -19.478  78.980  16.514  0.00  0.00    +0.028 A 
ATOM      8  C   LIG    1      -18.294  78.242  16.449  0.00  0.00    +0.002 A 
ATOM      9  C   LIG    1      -17.358  78.513  15.455  0.00  0.00    +0.000 A 
ATOM     10  C   LIG    1      -17.603  79.524  14.526  0.00  0.00    +0.002 A 
ATOM     11  C   LIG    1      -18.783  80.271  14.596  0.00  0.00    +0.028 A 
ENDBRANCH   3   6
BRANCH   4  12
ATOM     12  N   LIG    1      -22.694  78.977  15.531  0.00  0.00    -0.266 N 
ATOM     13  H   LIG    1      -23.184  78.666  16.363  0.00  0.00    +0.157 HD
ATOM     14  C   LIG    1      -22.509  78.052  14.445  0.00  0.00    +0.251 C 
ATOM     15  O   LIG    1      -21.908  78.393  13.428  0.00  0.00    -0.270 OA
BRANCH  14  16
ATOM     16  C   LIG    1      -23.080  76.683  14.556  0.00  0.00    +0.056 A 
ATOM     17  C   LIG    1      -24.222  76.258  13.885  0.00  0.00    +0.054 A 
ATOM     18 CL   LIG    1      -25.210  77.277  12.922  0.00  0.00    -0.083 Cl
ATOM     19  C   LIG    1      -24.641  74.933  13.994  0.00  0.00    +0.041 A 
ATOM     20  C   LIG    1      -23.949  74.013  14.796  0.00  0.00    +0.052 A 
ATOM     21 CL   LIG    1      -24.466  72.372  14.620  0.00  0.00    -0.083 Cl
ATOM     22  C   LIG    1      -22.861  74.421  15.590  0.00  0.00    +0.022 A 
ATOM     23  C   LIG    1      -22.438  75.770  15.422  0.00  0.00    +0.026 A 
BRANCH  22  24
ATOM     24  C   LIG    1      -22.113  73.552  16.543  0.00  0.00    +0.107 A 
ATOM     25  C   LIG    1      -22.386  73.414  17.908  0.00  0.00    +0.149 A 
ATOM     26  F   LIG    1      -23.335  74.135  18.521  0.00  0.00    -0.203 F 
ATOM     27  C   LIG    1      -21.618  72.558  18.695  0.00  0.00    +0.042 A 
ATOM     28  C   LIG    1      -20.539  71.898  18.128  0.00  0.00    +0.023 A 
ATOM     29  C   LIG    1      -20.278  72.124  16.789  0.00  0.00    +0.111 A 
ATOM     30  N   LIG    1      -21.041  72.913  15.990  0.00  0.00    -0.252 NA
ENDBRANCH  22  24
ENDBRANCH  14  16
ENDBRANCH   4  12
BRANCH   1  31
ATOM     31  C   LIG    1      -22.477  83.959  15.680  0.00  0.00    +0.236 C 
ATOM     32  N   LIG    1      -22.296  84.694  14.643  0.00  0.00    -0.243 NA
BRANCH  32  33
ATOM     33  C   LIG    1      -22.642  86.110  14.620  0.00  0.00    +0.137 C 
ATOM     34  C   LIG    1      -23.107  86.538  13.225  0.00  0.00    +0.186 C 
ATOM     35  O   LIG    1      -22.801  87.937  13.089  0.00  0.00    -0.378 OA
ATOM     36  C   LIG    1      -21.933  88.311  14.163  0.00  0.00    +0.162 C 
ATOM     37  C   LIG    1      -21.452  87.030  14.801  0.00  0.00    +0.057 C 
ENDBRANCH  32  33
BRANCH  31  38
ATOM     38  O   LIG    1      -22.987  84.386  16.853  0.00  0.00    -0.491 OA
ATOM     39  H   LIG    1      -22.554  85.181  17.176  0.00  0.00    +0.294 HD
ENDBRANCH  31  38
ENDBRANCH   1  31
TORSDOF 7
ENDMDL
MODEL 8
REMARK VINA RESULT:      -6.3     13.146     14.808
REMARK  Name = pdb/CHEMBL3930393.pdb
REMARK                            x       y       z     vdW  Elec       q    Type
REMARK                         _______ _______ _______ _____ _____    ______ ____
ROOT
ATOM      1  C   LIG    1      -24.203  78.329  34.270  0.00  0.00    +0.149 A 
ATOM      2  N   LIG    1      -23.093  78.283  33.516  0.00  0.00    -0.160 NA
ATOM      3  N   LIG    1      -23.214  77.164  32.767  0.00  0.00    -0.218 N 
ATOM      4  C   LIG    1      -24.305  76.386  33.170  0.00  0.00    +0.129 A 
ATOM      5  C   LIG    1      -24.972  77.152  34.099  0.00  0.00    +0.078 A 
ENDROOT
BRANCH   3   6
ATOM      6  C   LIG    1      -22.297  76.929  31.705  0.00  0.00    +0.067 A 
ATOM      7  C   LIG    1      -22.750  76.782  30.392  0.00  0.00    +0.028 A 
ATOM      8  C   LIG    1      -21.846  76.561  29.351  0.00  0.00    +0.002 A 
ATOM      9  C   LIG    1      -20.479  76.520  29.612  0.00  0.00    +0.000 A 
ATOM     10  C   LIG    1      -20.015  76.697  30.915  0.00  0.00    +0.002 A 
ATOM     11  C   LIG    1      -20.920  76.907  31.961  0.00  0.00    +0.028 A 
ENDBRANCH   3   6
BRANCH   4  12
ATOM     12  N   LIG    1      -24.607  75.071  32.779  0.00  0.00    -0.266 N 
ATOM     13  H   LIG    1      -24.189  74.324  33.325  0.00  0.00    +0.157 HD
ATOM     14  C   LIG    1      -25.463  74.730  31.674  0.00  0.00    +0.251 C 
ATOM     15  O   LIG    1      -25.973  75.611  30.984  0.00  0.00    -0.270 OA
BRANCH  14  16
ATOM     16  C   LIG    1      -25.746  73.298  31.394  0.00  0.00    +0.056 A 
ATOM     17  C   LIG    1      -26.945  72.664  31.707  0.00  0.00    +0.054 A 
ATOM     18 CL   LIG    1      -28.231  73.405  32.568  0.00  0.00    -0.083 Cl
ATOM     19  C   LIG    1      -27.147  71.335  31.339  0.00  0.00    +0.041 A 
ATOM     20  C   LIG    1      -26.150  70.602  30.679  0.00  0.00    +0.052 A 
ATOM     21 CL   LIG    1      -26.662  69.058  30.090  0.00  0.00    -0.083 Cl
ATOM     22  C   LIG    1      -24.878  71.157  30.447  0.00  0.00    +0.022 A 
ATOM     23  C   LIG    1      -24.721  72.527  30.800  0.00  0.00    +0.026 A 
BRANCH  22  24
ATOM     24  C   LIG    1      -23.720  70.441  29.838  0.00  0.00    +0.107 A 
ATOM     25  C   LIG    1      -23.603  70.074  28.493  0.00  0.00    +0.149 A 
ATOM     26  F   LIG    1      -24.591  70.276  27.611  0.00  0.00    -0.203 F 
ATOM     27  C   LIG    1      -22.461  69.415  28.042  0.00  0.00    +0.042 A 
ATOM     28  C   LIG    1      -21.474  69.064  28.951  0.00  0.00    +0.023 A 
ATOM     29  C   LIG    1      -21.676  69.396  30.279  0.00  0.00    +0.111 A 
ATOM     30  N   LIG    1      -22.754  70.082  30.734  0.00  0.00    -0.252 NA
ENDBRANCH  22  24
ENDBRANCH  14  16
ENDBRANCH   4  12
BRANCH   1  31
ATOM     31  C   LIG    1      -24.490  79.447  35.171  0.00  0.00    +0.236 C 
ATOM     32  N   LIG    1      -23.559  80.267  35.500  0.00  0.00    -0.243 NA
BRANCH  32  33
ATOM     33  C   LIG    1      -23.797  81.407  36.379  0.00  0.00    +0.137 C 
ATOM     34  C   LIG    1      -22.673  82.440  36.253  0.00  0.00    +0.186 C 
ATOM     35  O   LIG    1      -22.598  83.135  37.510  0.00  0.00    -0.378 OA
ATOM     36  C   LIG    1      -23.376  82.413  38.468  0.00  0.00    +0.162 C 
ATOM     37  C   LIG    1      -23.690  81.071  37.852  0.00  0.00    +0.057 C 
ENDBRANCH  32  33
BRANCH  31  38
ATOM     38  O   LIG    1      -25.770  79.521  35.587  0.00  0.00    -0.491 OA
ATOM     39  H   LIG    1      -25.882  80.117  36.333  0.00  0.00    +0.294 HD
ENDBRANCH  31  38
ENDBRANCH   1  31
TORSDOF 7
ENDMDL
MODEL 9
REMARK VINA RESULT:      -6.3      4.351      6.438
REMARK  Name = pdb/CHEMBL3930393.pdb
REMARK                            x       y       z     vdW  Elec       q    Type
REMARK                         _______ _______ _______ _____ _____    ______ ____
ROOT
ATOM      1  C   LIG    1      -38.896  76.390  24.889  0.00  0.00    +0.149 A 
ATOM      2  N   LIG    1      -39.779  75.681  24.168  0.00  0.00    -0.160 NA
ATOM      3  N   LIG    1      -39.404  74.390  24.307  0.00  0.00    -0.218 N 
ATOM      4  C   LIG    1      -38.170  74.276  24.958  0.00  0.00    +0.129 A 
ATOM      5  C   LIG    1      -37.864  75.551  25.378  0.00  0.00    +0.078 A 
ENDROOT
BRANCH   3   6
ATOM      6  C   LIG    1      -40.258  73.356  23.832  0.00  0.00    +0.067 A 
ATOM      7  C   LIG    1      -39.868  72.017  23.914  0.00  0.00    +0.028 A 
ATOM      8  C   LIG    1      -40.714  71.004  23.456  0.00  0.00    +0.002 A 
ATOM      9  C   LIG    1      -41.969  71.321  22.946  0.00  0.00    +0.000 A 
ATOM     10  C   LIG    1      -42.380  72.653  22.890  0.00  0.00    +0.002 A 
ATOM     11  C   LIG    1      -41.530  73.670  23.336  0.00  0.00    +0.028 A 
ENDBRANCH   3   6
BRANCH   4  12
ATOM     12  N   LIG    1      -37.372  73.127  25.080  0.00  0.00    -0.266 N 
ATOM     13  H   LIG    1      -36.780  72.895  24.289  0.00  0.00    +0.157 HD
ATOM     14  C   LIG    1      -37.342  72.281  26.244  0.00  0.00    +0.251 C 
ATOM     15  O   LIG    1      -38.056  72.527  27.213  0.00  0.00    -0.270 OA
BRANCH  14  16
ATOM     16  C   LIG    1      -36.412  71.121  26.269  0.00  0.00    +0.056 A 
ATOM     17  C   LIG    1      -35.430  70.929  27.236  0.00  0.00    +0.054 A 
ATOM     18 CL   LIG    1      -35.064  72.058  28.475  0.00  0.00    -0.083 Cl
ATOM     19  C   LIG    1      -34.654  69.772  27.221  0.00  0.00    +0.041 A 
ATOM     20  C   LIG    1      -34.819  68.797  26.226  0.00  0.00    +0.052 A 
ATOM     21 CL   LIG    1      -33.945  67.331  26.502  0.00  0.00    -0.083 Cl
ATOM     22  C   LIG    1      -35.712  68.998  25.157  0.00  0.00    +0.022 A 
ATOM     23  C   LIG    1      -36.515  70.172  25.228  0.00  0.00    +0.026 A 
BRANCH  22  24
ATOM     24  C   LIG    1      -35.900  68.073  24.002  0.00  0.00    +0.107 A 
ATOM     25  C   LIG    1      -37.013  67.255  23.785  0.00  0.00    +0.149 A 
ATOM     26  F   LIG    1      -38.017  67.169  24.667  0.00  0.00    -0.203 F 
ATOM     27  C   LIG    1      -37.075  66.440  22.656  0.00  0.00    +0.042 A 
ATOM     28  C   LIG    1      -35.995  66.396  21.788  0.00  0.00    +0.023 A 
ATOM     29  C   LIG    1      -34.895  67.178  22.090  0.00  0.00    +0.111 A 
ATOM     30  N   LIG    1      -34.831  68.018  23.154  0.00  0.00    -0.252 NA
ENDBRANCH  22  24
ENDBRANCH  14  16
ENDBRANCH   4  12
BRANCH   1  31
ATOM     31  C   LIG    1      -39.009  77.840  25.058  0.00  0.00    +0.236 C 
ATOM     32  N   LIG    1      -39.642  78.544  24.191  0.00  0.00    -0.243 NA
BRANCH  32  33
ATOM     33  C   LIG    1      -39.799  79.988  24.323  0.00  0.00    +0.137 C 
ATOM     34  C   LIG    1      -41.270  80.364  24.517  0.00  0.00    +0.186 C 
ATOM     35  O   LIG    1      -41.437  81.695  23.997  0.00  0.00    -0.378 OA
ATOM     36  C   LIG    1      -40.267  82.031  23.246  0.00  0.00    +0.162 C 
ATOM     37  C   LIG    1      -39.492  80.751  23.051  0.00  0.00    +0.057 C 
ENDBRANCH  32  33
BRANCH  31  38
ATOM     38  O   LIG    1      -38.415  78.325  26.166  0.00  0.00    -0.491 OA
ATOM     39  H   LIG    1      -37.862  77.672  26.605  0.00  0.00    +0.294 HD
ENDBRANCH  31  38
ENDBRANCH   1  31
TORSDOF 7
ENDMDL
