MODEL 1
REMARK VINA RESULT:      -6.9      0.000      0.000
REMARK  Name = pdb/CHEMBL3949290.pdb
REMARK                            x       y       z     vdW  Elec       q    Type
REMARK                         _______ _______ _______ _____ _____    ______ ____
ROOT
ATOM      1  C   LIG    1      -22.199  85.361  14.502  0.00  0.00    +0.149 A 
ATOM      2  N   LIG    1      -21.259  85.364  13.546  0.00  0.00    -0.160 NA
ATOM      3  N   LIG    1      -21.223  86.638  13.085  0.00  0.00    -0.218 N 
ATOM      4  C   LIG    1      -22.296  87.392  13.577  0.00  0.00    +0.129 A 
ATOM      5  C   LIG    1      -22.859  86.611  14.554  0.00  0.00    +0.078 A 
ENDROOT
BRANCH   3   6
ATOM      6  C   LIG    1      -20.182  87.029  12.204  0.00  0.00    +0.067 A 
ATOM      7  C   LIG    1      -20.329  86.912  10.818  0.00  0.00    +0.028 A 
ATOM      8  C   LIG    1      -19.301  87.335   9.971  0.00  0.00    +0.002 A 
ATOM      9  C   LIG    1      -18.130  87.877  10.501  0.00  0.00    +0.000 A 
ATOM     10  C   LIG    1      -17.990  88.019  11.879  0.00  0.00    +0.002 A 
ATOM     11  C   LIG    1      -19.018  87.610  12.731  0.00  0.00    +0.028 A 
ENDBRANCH   3   6
BRANCH   4  12
ATOM     12  N   LIG    1      -22.754  88.639  13.117  0.00  0.00    -0.266 N 
ATOM     13  H   LIG    1      -22.448  89.463  13.605  0.00  0.00    +0.157 HD
ATOM     14  C   LIG    1      -23.567  88.780  11.928  0.00  0.00    +0.251 C 
ATOM     15  O   LIG    1      -23.895  87.815  11.261  0.00  0.00    -0.270 OA
BRANCH  14  16
ATOM     16  C   LIG    1      -23.930  90.142  11.469  0.00  0.00    +0.056 A 
ATOM     17  C   LIG    1      -23.118  90.954  10.696  0.00  0.00    +0.056 A 
ATOM     18 CL   LIG    1      -21.515  90.519  10.235  0.00  0.00    -0.083 Cl
ATOM     19  C   LIG    1      -23.569  92.215  10.310  0.00  0.00    +0.059 A 
ATOM     20  C   LIG    1      -24.817  92.677  10.734  0.00  0.00    +0.134 A 
ATOM     21  F   LIG    1      -25.191  93.889  10.297  0.00  0.00    -0.205 F 
ATOM     22  C   LIG    1      -25.649  91.923  11.573  0.00  0.00    +0.039 A 
ATOM     23  C   LIG    1      -25.184  90.636  11.915  0.00  0.00    +0.027 A 
BRANCH  22  24
ATOM     24  C   LIG    1      -26.913  92.469  12.121  0.00  0.00    +0.109 A 
ATOM     25  C   LIG    1      -27.111  92.790  13.466  0.00  0.00    +0.149 A 
ATOM     26  F   LIG    1      -26.163  92.569  14.389  0.00  0.00    -0.203 F 
ATOM     27  C   LIG    1      -28.312  93.358  13.877  0.00  0.00    +0.042 A 
ATOM     28  C   LIG    1      -29.310  93.586  12.939  0.00  0.00    +0.023 A 
ATOM     29  C   LIG    1      -29.054  93.241  11.624  0.00  0.00    +0.111 A 
ATOM     30  N   LIG    1      -27.886  92.705  11.201  0.00  0.00    -0.252 NA
ENDBRANCH  22  24
ENDBRANCH  14  16
ENDBRANCH   4  12
BRANCH   1  31
ATOM     31  C   LIG    1      -22.509  84.191  15.318  0.00  0.00    +0.236 C 
ATOM     32  N   LIG    1      -22.627  83.048  14.751  0.00  0.00    -0.248 NA
BRANCH  31  33
ATOM     33  O   LIG    1      -22.642  84.427  16.638  0.00  0.00    -0.491 OA
ATOM     34  H   LIG    1      -22.780  85.360  16.831  0.00  0.00    +0.294 HD
ENDBRANCH  31  33
BRANCH  32  35
ATOM     35  C   LIG    1      -22.907  81.838  15.510  0.00  0.00    +0.162 C 
BRANCH  35  36
ATOM     36  C   LIG    1      -24.028  81.062  14.872  0.00  0.00    +0.052 C 
ATOM     37  C   LIG    1      -24.466  81.490  13.539  0.00  0.00    +0.028 C 
ATOM     38  C   LIG    1      -25.456  80.829  12.918  0.00  0.00    +0.184 C 
ATOM     39  N   LIG    1      -26.066  79.755  13.508  0.00  0.00    -0.210 N 
ATOM     40  H   LIG    1      -26.809  79.266  13.027  0.00  0.00    +0.298 HD
ATOM     41  C   LIG    1      -25.711  79.302  14.750  0.00  0.00    +0.295 C 
ATOM     42  C   LIG    1      -24.609  80.005  15.480  0.00  0.00    +0.083 C 
BRANCH  41  43
ATOM     43  N   LIG    1      -26.327  78.288  15.268  0.00  0.00    -0.071 NA
ATOM     44  H   LIG    1      -27.328  78.477  15.363  0.00  0.00    +0.348 HD
ENDBRANCH  41  43
ENDBRANCH  35  36
ENDBRANCH  32  35
ENDBRANCH   1  31
TORSDOF 9
ENDMDL
MODEL 2
REMARK VINA RESULT:      -6.9     20.380     24.290
REMARK  Name = pdb/CHEMBL3949290.pdb
REMARK                            x       y       z     vdW  Elec       q    Type
REMARK                         _______ _______ _______ _____ _____    ______ ____
ROOT
ATOM      1  C   LIG    1      -36.590  69.786  25.037  0.00  0.00    +0.149 A 
ATOM      2  N   LIG    1      -36.120  68.806  25.822  0.00  0.00    -0.160 NA
ATOM      3  N   LIG    1      -35.363  69.431  26.757  0.00  0.00    -0.218 N 
ATOM      4  C   LIG    1      -35.158  70.778  26.435  0.00  0.00    +0.129 A 
ATOM      5  C   LIG    1      -36.018  71.028  25.396  0.00  0.00    +0.078 A 
ENDROOT
BRANCH   3   6
ATOM      6  C   LIG    1      -34.885  68.693  27.871  0.00  0.00    +0.067 A 
ATOM      7  C   LIG    1      -35.289  69.012  29.171  0.00  0.00    +0.028 A 
ATOM      8  C   LIG    1      -34.829  68.249  30.250  0.00  0.00    +0.002 A 
ATOM      9  C   LIG    1      -33.973  67.169  30.033  0.00  0.00    +0.000 A 
ATOM     10  C   LIG    1      -33.589  66.833  28.738  0.00  0.00    +0.002 A 
ATOM     11  C   LIG    1      -34.054  67.582  27.655  0.00  0.00    +0.028 A 
ENDBRANCH   3   6
BRANCH   4  12
ATOM     12  N   LIG    1      -34.217  71.663  26.991  0.00  0.00    -0.266 N 
ATOM     13  H   LIG    1      -33.290  71.672  26.601  0.00  0.00    +0.157 HD
ATOM     14  C   LIG    1      -34.558  72.609  28.031  0.00  0.00    +0.251 C 
ATOM     15  O   LIG    1      -35.689  72.687  28.478  0.00  0.00    -0.270 OA
BRANCH  14  16
ATOM     16  C   LIG    1      -33.524  73.564  28.496  0.00  0.00    +0.056 A 
ATOM     17  C   LIG    1      -32.451  73.229  29.303  0.00  0.00    +0.056 A 
ATOM     18 CL   LIG    1      -32.221  71.651  29.961  0.00  0.00    -0.083 Cl
ATOM     19  C   LIG    1      -31.530  74.209  29.670  0.00  0.00    +0.059 A 
ATOM     20  C   LIG    1      -31.708  75.532  29.259  0.00  0.00    +0.134 A 
ATOM     21  F   LIG    1      -30.763  76.410  29.629  0.00  0.00    -0.205 F 
ATOM     22  C   LIG    1      -32.814  75.937  28.499  0.00  0.00    +0.039 A 
ATOM     23  C   LIG    1      -33.708  74.917  28.110  0.00  0.00    +0.027 A 
BRANCH  22  24
ATOM     24  C   LIG    1      -33.063  77.361  28.175  0.00  0.00    +0.109 A 
ATOM     25  C   LIG    1      -32.528  78.018  27.064  0.00  0.00    +0.149 A 
ATOM     26  F   LIG    1      -31.684  77.403  26.221  0.00  0.00    -0.203 F 
ATOM     27  C   LIG    1      -32.870  79.341  26.805  0.00  0.00    +0.042 A 
ATOM     28  C   LIG    1      -33.735  79.999  27.670  0.00  0.00    +0.023 A 
ATOM     29  C   LIG    1      -34.226  79.295  28.754  0.00  0.00    +0.111 A 
ATOM     30  N   LIG    1      -33.920  78.002  29.013  0.00  0.00    -0.252 NA
ENDBRANCH  22  24
ENDBRANCH  14  16
ENDBRANCH   4  12
BRANCH   1  31
ATOM     31  C   LIG    1      -37.521  69.554  23.937  0.00  0.00    +0.236 C 
ATOM     32  N   LIG    1      -37.060  69.392  22.753  0.00  0.00    -0.248 NA
BRANCH  31  33
ATOM     33  O   LIG    1      -38.824  69.527  24.279  0.00  0.00    -0.491 OA
ATOM     34  H   LIG    1      -38.986  69.929  25.138  0.00  0.00    +0.294 HD
ENDBRANCH  31  33
BRANCH  32  35
ATOM     35  C   LIG    1      -37.930  69.130  21.616  0.00  0.00    +0.162 C 
BRANCH  35  36
ATOM     36  C   LIG    1      -37.254  68.214  20.632  0.00  0.00    +0.052 C 
ATOM     37  C   LIG    1      -36.236  67.298  21.159  0.00  0.00    +0.028 C 
ATOM     38  C   LIG    1      -35.607  66.452  20.327  0.00  0.00    +0.184 C 
ATOM     39  N   LIG    1      -35.900  66.426  18.991  0.00  0.00    -0.210 N 
ATOM     40  H   LIG    1      -35.419  65.781  18.378  0.00  0.00    +0.298 HD
ATOM     41  C   LIG    1      -36.836  67.253  18.430  0.00  0.00    +0.295 C 
ATOM     42  C   LIG    1      -37.567  68.211  19.318  0.00  0.00    +0.083 C 
BRANCH  41  43
ATOM     43  N   LIG    1      -37.068  67.195  17.158  0.00  0.00    -0.071 NA
ATOM     44  H   LIG    1      -36.233  67.440  16.621  0.00  0.00    +0.348 HD
ENDBRANCH  41  43
ENDBRANCH  35  36
ENDBRANCH  32  35
ENDBRANCH   1  31
TORSDOF 9
ENDMDL
MODEL 3
REMARK VINA RESULT:      -6.8     20.428     24.566
REMARK  Name = pdb/CHEMBL3949290.pdb
REMARK                            x       y       z     vdW  Elec       q    Type
REMARK                         _______ _______ _______ _____ _____    ______ ____
ROOT
ATOM      1  C   LIG    1      -37.495  70.426  24.783  0.00  0.00    +0.149 A 
ATOM      2  N   LIG    1      -36.877  69.320  25.223  0.00  0.00    -0.160 NA
ATOM      3  N   LIG    1      -35.950  69.758  26.108  0.00  0.00    -0.218 N 
ATOM      4  C   LIG    1      -35.813  71.151  26.062  0.00  0.00    +0.129 A 
ATOM      5  C   LIG    1      -36.864  71.584  25.293  0.00  0.00    +0.078 A 
ENDROOT
BRANCH   3   6
ATOM      6  C   LIG    1      -35.259  68.816  26.914  0.00  0.00    +0.067 A 
ATOM      7  C   LIG    1      -35.434  68.792  28.302  0.00  0.00    +0.028 A 
ATOM      8  C   LIG    1      -34.767  67.833  29.071  0.00  0.00    +0.002 A 
ATOM      9  C   LIG    1      -33.931  66.899  28.459  0.00  0.00    +0.000 A 
ATOM     10  C   LIG    1      -33.774  66.904  27.076  0.00  0.00    +0.002 A 
ATOM     11  C   LIG    1      -34.446  67.851  26.300  0.00  0.00    +0.028 A 
ENDBRANCH   3   6
BRANCH   4  12
ATOM     12  N   LIG    1      -34.781  71.934  26.609  0.00  0.00    -0.266 N 
ATOM     13  H   LIG    1      -33.992  72.148  26.024  0.00  0.00    +0.157 HD
ATOM     14  C   LIG    1      -34.858  72.508  27.935  0.00  0.00    +0.251 C 
ATOM     15  O   LIG    1      -35.832  72.341  28.648  0.00  0.00    -0.270 OA
BRANCH  14  16
ATOM     16  C   LIG    1      -33.762  73.393  28.395  0.00  0.00    +0.056 A 
ATOM     17  C   LIG    1      -32.698  72.984  29.182  0.00  0.00    +0.056 A 
ATOM     18 CL   LIG    1      -32.554  71.387  29.815  0.00  0.00    -0.083 Cl
ATOM     19  C   LIG    1      -31.715  73.902  29.546  0.00  0.00    +0.059 A 
ATOM     20  C   LIG    1      -31.820  75.239  29.155  0.00  0.00    +0.134 A 
ATOM     21  F   LIG    1      -30.819  76.054  29.520  0.00  0.00    -0.205 F 
ATOM     22  C   LIG    1      -32.911  75.719  28.417  0.00  0.00    +0.039 A 
ATOM     23  C   LIG    1      -33.870  74.760  28.030  0.00  0.00    +0.027 A 
BRANCH  22  24
ATOM     24  C   LIG    1      -33.080  77.159  28.115  0.00  0.00    +0.109 A 
ATOM     25  C   LIG    1      -32.439  77.821  27.064  0.00  0.00    +0.149 A 
ATOM     26  F   LIG    1      -31.561  77.193  26.268  0.00  0.00    -0.203 F 
ATOM     27  C   LIG    1      -32.709  79.163  26.818  0.00  0.00    +0.042 A 
ATOM     28  C   LIG    1      -33.608  79.834  27.636  0.00  0.00    +0.023 A 
ATOM     29  C   LIG    1      -34.205  79.125  28.662  0.00  0.00    +0.111 A 
ATOM     30  N   LIG    1      -33.969  77.815  28.907  0.00  0.00    -0.252 NA
ENDBRANCH  22  24
ENDBRANCH  14  16
ENDBRANCH   4  12
BRANCH   1  31
ATOM     31  C   LIG    1      -38.627  70.400  23.861  0.00  0.00    +0.236 C 
ATOM     32  N   LIG    1      -39.682  71.068  24.149  0.00  0.00    -0.248 NA
BRANCH  31  33
ATOM     33  O   LIG    1      -38.451  69.653  22.753  0.00  0.00    -0.491 OA
ATOM     34  H   LIG    1      -37.542  69.677  22.436  0.00  0.00    +0.294 HD
ENDBRANCH  31  33
BRANCH  32  35
ATOM     35  C   LIG    1      -40.834  71.106  23.261  0.00  0.00    +0.162 C 
BRANCH  35  36
ATOM     36  C   LIG    1      -41.398  72.499  23.186  0.00  0.00    +0.052 C 
ATOM     37  C   LIG    1      -40.609  73.576  23.795  0.00  0.00    +0.028 C 
ATOM     38  C   LIG    1      -41.059  74.840  23.751  0.00  0.00    +0.184 C 
ATOM     39  N   LIG    1      -42.246  75.146  23.143  0.00  0.00    -0.210 N 
ATOM     40  H   LIG    1      -42.570  76.103  23.115  0.00  0.00    +0.298 HD
ATOM     41  C   LIG    1      -43.036  74.193  22.557  0.00  0.00    +0.295 C 
ATOM     42  C   LIG    1      -42.573  72.769  22.577  0.00  0.00    +0.083 C 
BRANCH  41  43
ATOM     43  N   LIG    1      -44.155  74.534  22.004  0.00  0.00    -0.071 NA
ATOM     44  H   LIG    1      -44.787  73.732  21.932  0.00  0.00    +0.348 HD
ENDBRANCH  41  43
ENDBRANCH  35  36
ENDBRANCH  32  35
ENDBRANCH   1  31
TORSDOF 9
ENDMDL
MODEL 4
REMARK VINA RESULT:      -6.8     19.457     23.956
REMARK  Name = pdb/CHEMBL3949290.pdb
REMARK                            x       y       z     vdW  Elec       q    Type
REMARK                         _______ _______ _______ _____ _____    ______ ____
ROOT
ATOM      1  C   LIG    1      -37.555  79.980  27.702  0.00  0.00    +0.149 A 
ATOM      2  N   LIG    1      -36.477  79.337  28.173  0.00  0.00    -0.160 NA
ATOM      3  N   LIG    1      -36.522  78.105  27.610  0.00  0.00    -0.218 N 
ATOM      4  C   LIG    1      -37.746  77.879  26.967  0.00  0.00    +0.129 A 
ATOM      5  C   LIG    1      -38.363  79.105  26.940  0.00  0.00    +0.078 A 
ENDROOT
BRANCH   3   6
ATOM      6  C   LIG    1      -35.405  77.240  27.740  0.00  0.00    +0.067 A 
ATOM      7  C   LIG    1      -34.101  77.718  27.577  0.00  0.00    +0.028 A 
ATOM      8  C   LIG    1      -33.016  76.852  27.742  0.00  0.00    +0.002 A 
ATOM      9  C   LIG    1      -33.229  75.513  28.073  0.00  0.00    +0.000 A 
ATOM     10  C   LIG    1      -34.525  75.039  28.260  0.00  0.00    +0.002 A 
ATOM     11  C   LIG    1      -35.612  75.901  28.109  0.00  0.00    +0.028 A 
ENDBRANCH   3   6
BRANCH   4  12
ATOM     12  N   LIG    1      -38.271  76.653  26.522  0.00  0.00    -0.266 N 
ATOM     13  H   LIG    1      -38.935  76.182  27.113  0.00  0.00    +0.157 HD
ATOM     14  C   LIG    1      -37.962  76.099  25.221  0.00  0.00    +0.251 C 
ATOM     15  O   LIG    1      -37.226  76.676  24.440  0.00  0.00    -0.270 OA
BRANCH  14  16
ATOM     16  C   LIG    1      -38.631  74.846  24.801  0.00  0.00    +0.056 A 
ATOM     17  C   LIG    1      -39.865  74.783  24.178  0.00  0.00    +0.056 A 
ATOM     18 CL   LIG    1      -40.844  76.172  23.883  0.00  0.00    -0.083 Cl
ATOM     19  C   LIG    1      -40.395  73.546  23.815  0.00  0.00    +0.059 A 
ATOM     20  C   LIG    1      -39.705  72.369  24.115  0.00  0.00    +0.134 A 
ATOM     21  F   LIG    1      -40.266  71.221  23.707  0.00  0.00    -0.205 F 
ATOM     22  C   LIG    1      -38.485  72.372  24.806  0.00  0.00    +0.039 A 
ATOM     23  C   LIG    1      -37.955  73.640  25.125  0.00  0.00    +0.027 A 
BRANCH  22  24
ATOM     24  C   LIG    1      -37.822  71.118  25.232  0.00  0.00    +0.109 A 
ATOM     25  C   LIG    1      -37.300  70.168  24.350  0.00  0.00    +0.149 A 
ATOM     26  F   LIG    1      -37.415  70.304  23.020  0.00  0.00    -0.203 F 
ATOM     27  C   LIG    1      -36.637  69.050  24.844  0.00  0.00    +0.042 A 
ATOM     28  C   LIG    1      -36.515  68.886  26.218  0.00  0.00    +0.023 A 
ATOM     29  C   LIG    1      -37.058  69.859  27.037  0.00  0.00    +0.111 A 
ATOM     30  N   LIG    1      -37.690  70.962  26.576  0.00  0.00    -0.252 NA
ENDBRANCH  22  24
ENDBRANCH  14  16
ENDBRANCH   4  12
BRANCH   1  31
ATOM     31  C   LIG    1      -37.850  81.378  28.003  0.00  0.00    +0.236 C 
ATOM     32  N   LIG    1      -37.029  82.047  28.725  0.00  0.00    -0.248 NA
BRANCH  31  33
ATOM     33  O   LIG    1      -38.993  81.854  27.472  0.00  0.00    -0.491 OA
ATOM     34  H   LIG    1      -39.775  81.470  27.881  0.00  0.00    +0.294 HD
ENDBRANCH  31  33
BRANCH  32  35
ATOM     35  C   LIG    1      -37.249  83.451  29.039  0.00  0.00    +0.162 C 
BRANCH  35  36
ATOM     36  C   LIG    1      -36.263  84.318  28.304  0.00  0.00    +0.052 C 
ATOM     37  C   LIG    1      -35.151  84.878  29.081  0.00  0.00    +0.028 C 
ATOM     38  C   LIG    1      -34.236  85.651  28.474  0.00  0.00    +0.184 C 
ATOM     39  N   LIG    1      -34.320  85.926  27.137  0.00  0.00    -0.210 N 
ATOM     40  H   LIG    1      -33.622  86.509  26.694  0.00  0.00    +0.298 HD
ATOM     41  C   LIG    1      -35.330  85.441  26.350  0.00  0.00    +0.295 C 
ATOM     42  C   LIG    1      -36.372  84.570  26.981  0.00  0.00    +0.083 C 
BRANCH  41  43
ATOM     43  N   LIG    1      -35.369  85.740  25.091  0.00  0.00    -0.071 NA
ATOM     44  H   LIG    1      -34.619  85.267  24.580  0.00  0.00    +0.348 HD
ENDBRANCH  41  43
ENDBRANCH  35  36
ENDBRANCH  32  35
ENDBRANCH   1  31
TORSDOF 9
ENDMDL
MODEL 5
REMARK VINA RESULT:      -6.7     20.526     23.045
REMARK  Name = pdb/CHEMBL3949290.pdb
REMARK                            x       y       z     vdW  Elec       q    Type
REMARK                         _______ _______ _______ _____ _____    ______ ____
ROOT
ATOM      1  C   LIG    1      -32.020  74.456  29.505  0.00  0.00    +0.149 A 
ATOM      2  N   LIG    1      -31.986  75.765  29.215  0.00  0.00    -0.160 NA
ATOM      3  N   LIG    1      -33.140  76.012  28.549  0.00  0.00    -0.218 N 
ATOM      4  C   LIG    1      -33.802  74.826  28.209  0.00  0.00    +0.129 A 
ATOM      5  C   LIG    1      -33.142  73.842  28.902  0.00  0.00    +0.078 A 
ENDROOT
BRANCH   3   6
ATOM      6  C   LIG    1      -33.513  77.355  28.279  0.00  0.00    +0.067 A 
ATOM      7  C   LIG    1      -34.686  77.898  28.813  0.00  0.00    +0.028 A 
ATOM      8  C   LIG    1      -35.014  79.233  28.559  0.00  0.00    +0.002 A 
ATOM      9  C   LIG    1      -34.174  80.027  27.778  0.00  0.00    +0.000 A 
ATOM     10  C   LIG    1      -32.993  79.498  27.265  0.00  0.00    +0.002 A 
ATOM     11  C   LIG    1      -32.652  78.169  27.525  0.00  0.00    +0.028 A 
ENDBRANCH   3   6
BRANCH   4  12
ATOM     12  N   LIG    1      -34.855  74.660  27.293  0.00  0.00    -0.266 N 
ATOM     13  H   LIG    1      -34.641  74.718  26.312  0.00  0.00    +0.157 HD
ATOM     14  C   LIG    1      -36.201  74.324  27.706  0.00  0.00    +0.251 C 
ATOM     15  O   LIG    1      -36.488  74.165  28.880  0.00  0.00    -0.270 OA
BRANCH  14  16
ATOM     16  C   LIG    1      -37.228  74.081  26.666  0.00  0.00    +0.056 A 
ATOM     17  C   LIG    1      -37.443  72.864  26.041  0.00  0.00    +0.056 A 
ATOM     18 CL   LIG    1      -36.468  71.471  26.330  0.00  0.00    -0.083 Cl
ATOM     19  C   LIG    1      -38.448  72.747  25.083  0.00  0.00    +0.059 A 
ATOM     20  C   LIG    1      -39.210  73.860  24.722  0.00  0.00    +0.134 A 
ATOM     21  F   LIG    1      -40.177  73.660  23.814  0.00  0.00    -0.205 F 
ATOM     22  C   LIG    1      -38.988  75.130  25.273  0.00  0.00    +0.039 A 
ATOM     23  C   LIG    1      -37.991  75.210  26.268  0.00  0.00    +0.027 A 
BRANCH  22  24
ATOM     24  C   LIG    1      -39.712  76.330  24.795  0.00  0.00    +0.109 A 
ATOM     25  C   LIG    1      -39.155  77.303  23.960  0.00  0.00    +0.149 A 
ATOM     26  F   LIG    1      -37.873  77.243  23.568  0.00  0.00    -0.203 F 
ATOM     27  C   LIG    1      -39.934  78.364  23.511  0.00  0.00    +0.042 A 
ATOM     28  C   LIG    1      -41.261  78.449  23.912  0.00  0.00    +0.023 A 
ATOM     29  C   LIG    1      -41.751  77.458  24.743  0.00  0.00    +0.111 A 
ATOM     30  N   LIG    1      -41.015  76.408  25.177  0.00  0.00    -0.252 NA
ENDBRANCH  22  24
ENDBRANCH  14  16
ENDBRANCH   4  12
BRANCH   1  31
ATOM     31  C   LIG    1      -30.992  73.783  30.293  0.00  0.00    +0.236 C 
ATOM     32  N   LIG    1      -30.624  74.296  31.408  0.00  0.00    -0.248 NA
BRANCH  31  33
ATOM     33  O   LIG    1      -30.511  72.643  29.759  0.00  0.00    -0.491 OA
ATOM     34  H   LIG    1      -29.783  72.277  30.272  0.00  0.00    +0.294 HD
ENDBRANCH  31  33
BRANCH  32  35
ATOM     35  C   LIG    1      -29.624  73.662  32.254  0.00  0.00    +0.162 C 
BRANCH  35  36
ATOM     36  C   LIG    1      -28.286  74.328  32.081  0.00  0.00    +0.052 C 
ATOM     37  C   LIG    1      -27.102  73.461  32.075  0.00  0.00    +0.028 C 
ATOM     38  C   LIG    1      -25.882  74.000  31.915  0.00  0.00    +0.184 C 
ATOM     39  N   LIG    1      -25.722  75.349  31.753  0.00  0.00    -0.210 N 
ATOM     40  H   LIG    1      -24.797  75.739  31.631  0.00  0.00    +0.298 HD
ATOM     41  C   LIG    1      -26.780  76.218  31.751  0.00  0.00    +0.295 C 
ATOM     42  C   LIG    1      -28.161  75.664  31.922  0.00  0.00    +0.083 C 
BRANCH  41  43
ATOM     43  N   LIG    1      -26.573  77.487  31.605  0.00  0.00    -0.071 NA
ATOM     44  H   LIG    1      -27.427  78.021  31.785  0.00  0.00    +0.348 HD
ENDBRANCH  41  43
ENDBRANCH  35  36
ENDBRANCH  32  35
ENDBRANCH   1  31
TORSDOF 9
ENDMDL
MODEL 6
REMARK VINA RESULT:      -6.7     22.310     25.751
REMARK  Name = pdb/CHEMBL3949290.pdb
REMARK                            x       y       z     vdW  Elec       q    Type
REMARK                         _______ _______ _______ _____ _____    ______ ____
ROOT
ATOM      1  C   LIG    1      -35.991  71.620  26.661  0.00  0.00    +0.149 A 
ATOM      2  N   LIG    1      -36.929  72.509  26.301  0.00  0.00    -0.160 NA
ATOM      3  N   LIG    1      -37.502  71.990  25.187  0.00  0.00    -0.218 N 
ATOM      4  C   LIG    1      -36.779  70.893  24.701  0.00  0.00    +0.129 A 
ATOM      5  C   LIG    1      -35.877  70.597  25.692  0.00  0.00    +0.078 A 
ENDROOT
BRANCH   3   6
ATOM      6  C   LIG    1      -38.680  72.587  24.669  0.00  0.00    +0.067 A 
ATOM      7  C   LIG    1      -39.720  71.803  24.158  0.00  0.00    +0.028 A 
ATOM      8  C   LIG    1      -40.884  72.415  23.683  0.00  0.00    +0.002 A 
ATOM      9  C   LIG    1      -41.014  73.803  23.719  0.00  0.00    +0.000 A 
ATOM     10  C   LIG    1      -39.991  74.586  24.249  0.00  0.00    +0.002 A 
ATOM     11  C   LIG    1      -38.831  73.982  24.737  0.00  0.00    +0.028 A 
ENDBRANCH   3   6
BRANCH   4  12
ATOM     12  N   LIG    1      -36.890  70.279  23.441  0.00  0.00    -0.266 N 
ATOM     13  H   LIG    1      -36.473  70.743  22.652  0.00  0.00    +0.157 HD
ATOM     14  C   LIG    1      -37.496  68.978  23.259  0.00  0.00    +0.251 C 
ATOM     15  O   LIG    1      -37.942  68.344  24.199  0.00  0.00    -0.270 OA
BRANCH  14  16
ATOM     16  C   LIG    1      -37.489  68.370  21.907  0.00  0.00    +0.056 A 
ATOM     17  C   LIG    1      -38.529  68.459  20.999  0.00  0.00    +0.056 A 
ATOM     18 CL   LIG    1      -40.031  69.226  21.359  0.00  0.00    -0.083 Cl
ATOM     19  C   LIG    1      -38.409  67.856  19.748  0.00  0.00    +0.059 A 
ATOM     20  C   LIG    1      -37.261  67.130  19.424  0.00  0.00    +0.134 A 
ATOM     21  F   LIG    1      -37.208  66.604  18.191  0.00  0.00    -0.205 F 
ATOM     22  C   LIG    1      -36.208  66.950  20.332  0.00  0.00    +0.039 A 
ATOM     23  C   LIG    1      -36.341  67.603  21.575  0.00  0.00    +0.027 A 
BRANCH  22  24
ATOM     24  C   LIG    1      -35.053  66.074  20.029  0.00  0.00    +0.109 A 
ATOM     25  C   LIG    1      -35.111  64.678  20.005  0.00  0.00    +0.149 A 
ATOM     26  F   LIG    1      -36.236  64.015  20.316  0.00  0.00    -0.203 F 
ATOM     27  C   LIG    1      -33.988  63.940  19.647  0.00  0.00    +0.042 A 
ATOM     28  C   LIG    1      -32.812  64.606  19.330  0.00  0.00    +0.023 A 
ATOM     29  C   LIG    1      -32.817  65.988  19.379  0.00  0.00    +0.111 A 
ATOM     30  N   LIG    1      -33.903  66.725  19.707  0.00  0.00    -0.252 NA
ENDBRANCH  22  24
ENDBRANCH  14  16
ENDBRANCH   4  12
BRANCH   1  31
ATOM     31  C   LIG    1      -35.181  71.756  27.867  0.00  0.00    +0.236 C 
ATOM     32  N   LIG    1      -34.451  72.799  28.015  0.00  0.00    -0.248 NA
BRANCH  31  33
ATOM     33  O   LIG    1      -35.281  70.740  28.747  0.00  0.00    -0.491 OA
ATOM     34  H   LIG    1      -35.172  71.032  29.658  0.00  0.00    +0.294 HD
ENDBRANCH  31  33
BRANCH  32  35
ATOM     35  C   LIG    1      -33.640  73.009  29.205  0.00  0.00    +0.162 C 
BRANCH  35  36
ATOM     36  C   LIG    1      -32.955  74.347  29.148  0.00  0.00    +0.052 C 
ATOM     37  C   LIG    1      -31.745  74.516  29.961  0.00  0.00    +0.028 C 
ATOM     38  C   LIG    1      -31.087  75.686  29.942  0.00  0.00    +0.184 C 
ATOM     39  N   LIG    1      -31.525  76.730  29.174  0.00  0.00    -0.210 N 
ATOM     40  H   LIG    1      -31.017  77.605  29.168  0.00  0.00    +0.298 HD
ATOM     41  C   LIG    1      -32.647  76.645  28.393  0.00  0.00    +0.295 C 
ATOM     42  C   LIG    1      -33.412  75.359  28.378  0.00  0.00    +0.083 C 
BRANCH  41  43
ATOM     43  N   LIG    1      -33.024  77.666  27.692  0.00  0.00    -0.071 NA
ATOM     44  H   LIG    1      -32.219  78.217  27.385  0.00  0.00    +0.348 HD
ENDBRANCH  41  43
ENDBRANCH  35  36
ENDBRANCH  32  35
ENDBRANCH   1  31
TORSDOF 9
ENDMDL
MODEL 7
REMARK VINA RESULT:      -6.6      8.501     12.262
REMARK  Name = pdb/CHEMBL3949290.pdb
REMARK                            x       y       z     vdW  Elec       q    Type
REMARK                         _______ _______ _______ _____ _____    ______ ____
ROOT
ATOM      1  C   LIG    1      -28.479  77.327  12.518  0.00  0.00    +0.149 A 
ATOM      2  N   LIG    1      -29.153  76.271  12.041  0.00  0.00    -0.160 NA
ATOM      3  N   LIG    1      -29.980  76.775  11.093  0.00  0.00    -0.218 N 
ATOM      4  C   LIG    1      -30.007  78.174  11.125  0.00  0.00    +0.129 A 
ATOM      5  C   LIG    1      -28.979  78.528  11.964  0.00  0.00    +0.078 A 
ENDROOT
BRANCH   3   6
ATOM      6  C   LIG    1      -30.688  75.885  10.244  0.00  0.00    +0.067 A 
ATOM      7  C   LIG    1      -32.008  75.518  10.526  0.00  0.00    +0.028 A 
ATOM      8  C   LIG    1      -32.694  74.665   9.656  0.00  0.00    +0.002 A 
ATOM      9  C   LIG    1      -32.069  74.181   8.506  0.00  0.00    +0.000 A 
ATOM     10  C   LIG    1      -30.764  74.564   8.209  0.00  0.00    +0.002 A 
ATOM     11  C   LIG    1      -30.076  75.425   9.067  0.00  0.00    +0.028 A 
ENDBRANCH   3   6
BRANCH   4  12
ATOM     12  N   LIG    1      -30.933  79.033  10.508  0.00  0.00    -0.266 N 
ATOM     13  H   LIG    1      -30.682  79.439   9.622  0.00  0.00    +0.157 HD
ATOM     14  C   LIG    1      -32.252  79.277  11.051  0.00  0.00    +0.251 C 
ATOM     15  O   LIG    1      -32.627  78.743  12.080  0.00  0.00    -0.270 OA
BRANCH  14  16
ATOM     16  C   LIG    1      -33.194  80.127  10.286  0.00  0.00    +0.056 A 
ATOM     17  C   LIG    1      -33.772  79.772   9.079  0.00  0.00    +0.056 A 
ATOM     18 CL   LIG    1      -33.396  78.308   8.249  0.00  0.00    -0.083 Cl
ATOM     19  C   LIG    1      -34.656  80.648   8.452  0.00  0.00    +0.059 A 
ATOM     20  C   LIG    1      -34.929  81.897   9.015  0.00  0.00    +0.134 A 
ATOM     21  F   LIG    1      -35.812  82.671   8.366  0.00  0.00    -0.205 F 
ATOM     22  C   LIG    1      -34.318  82.334  10.199  0.00  0.00    +0.039 A 
ATOM     23  C   LIG    1      -33.458  81.411  10.831  0.00  0.00    +0.027 A 
BRANCH  22  24
ATOM     24  C   LIG    1      -34.513  83.705  10.722  0.00  0.00    +0.109 A 
ATOM     25  C   LIG    1      -35.712  84.175  11.266  0.00  0.00    +0.149 A 
ATOM     26  F   LIG    1      -36.815  83.411  11.302  0.00  0.00    -0.203 F 
ATOM     27  C   LIG    1      -35.782  85.460  11.792  0.00  0.00    +0.042 A 
ATOM     28  C   LIG    1      -34.655  86.270  11.756  0.00  0.00    +0.023 A 
ATOM     29  C   LIG    1      -33.501  85.749  11.200  0.00  0.00    +0.111 A 
ATOM     30  N   LIG    1      -33.406  84.495  10.700  0.00  0.00    -0.252 NA
ENDBRANCH  22  24
ENDBRANCH  14  16
ENDBRANCH   4  12
BRANCH   1  31
ATOM     31  C   LIG    1      -27.418  77.218  13.515  0.00  0.00    +0.236 C 
ATOM     32  N   LIG    1      -26.246  77.645  13.228  0.00  0.00    -0.248 NA
BRANCH  31  33
ATOM     33  O   LIG    1      -27.784  76.662  14.687  0.00  0.00    -0.491 OA
ATOM     34  H   LIG    1      -28.348  77.242  15.208  0.00  0.00    +0.294 HD
ENDBRANCH  31  33
BRANCH  32  35
ATOM     35  C   LIG    1      -25.151  77.591  14.185  0.00  0.00    +0.162 C 
BRANCH  35  36
ATOM     36  C   LIG    1      -24.660  78.977  14.506  0.00  0.00    +0.052 C 
ATOM     37  C   LIG    1      -23.713  79.112  15.619  0.00  0.00    +0.028 C 
ATOM     38  C   LIG    1      -23.235  80.324  15.944  0.00  0.00    +0.184 C 
ATOM     39  N   LIG    1      -23.614  81.442  15.252  0.00  0.00    -0.210 N 
ATOM     40  H   LIG    1      -23.243  82.348  15.507  0.00  0.00    +0.298 HD
ATOM     41  C   LIG    1      -24.495  81.391  14.205  0.00  0.00    +0.295 C 
ATOM     42  C   LIG    1      -25.052  80.061  13.802  0.00  0.00    +0.083 C 
BRANCH  41  43
ATOM     43  N   LIG    1      -24.829  82.480  13.589  0.00  0.00    -0.071 NA
ATOM     44  H   LIG    1      -25.577  82.968  14.088  0.00  0.00    +0.348 HD
ENDBRANCH  41  43
ENDBRANCH  35  36
ENDBRANCH  32  35
ENDBRANCH   1  31
TORSDOF 9
ENDMDL
MODEL 8
REMARK VINA RESULT:      -6.6     20.517     25.702
REMARK  Name = pdb/CHEMBL3949290.pdb
REMARK                            x       y       z     vdW  Elec       q    Type
REMARK                         _______ _______ _______ _____ _____    ______ ____
ROOT
ATOM      1  C   LIG    1      -36.045  73.806  28.048  0.00  0.00    +0.149 A 
ATOM      2  N   LIG    1      -36.949  73.998  27.076  0.00  0.00    -0.160 NA
ATOM      3  N   LIG    1      -37.294  72.755  26.661  0.00  0.00    -0.218 N 
ATOM      4  C   LIG    1      -36.445  71.779  27.199  0.00  0.00    +0.129 A 
ATOM      5  C   LIG    1      -35.715  72.436  28.157  0.00  0.00    +0.078 A 
ENDROOT
BRANCH   3   6
ATOM      6  C   LIG    1      -38.392  72.597  25.776  0.00  0.00    +0.067 A 
ATOM      7  C   LIG    1      -39.226  71.477  25.856  0.00  0.00    +0.028 A 
ATOM      8  C   LIG    1      -40.321  71.361  24.995  0.00  0.00    +0.002 A 
ATOM      9  C   LIG    1      -40.587  72.360  24.058  0.00  0.00    +0.000 A 
ATOM     10  C   LIG    1      -39.775  73.488  23.992  0.00  0.00    +0.002 A 
ATOM     11  C   LIG    1      -38.687  73.617  24.857  0.00  0.00    +0.028 A 
ENDBRANCH   3   6
BRANCH   4  12
ATOM     12  N   LIG    1      -36.305  70.440  26.793  0.00  0.00    -0.266 N 
ATOM     13  H   LIG    1      -37.015  69.786  27.075  0.00  0.00    +0.157 HD
ATOM     14  C   LIG    1      -35.238  69.998  25.921  0.00  0.00    +0.251 C 
ATOM     15  O   LIG    1      -34.402  70.774  25.491  0.00  0.00    -0.270 OA
BRANCH  14  16
ATOM     16  C   LIG    1      -35.220  68.586  25.474  0.00  0.00    +0.056 A 
ATOM     17  C   LIG    1      -35.185  67.492  26.322  0.00  0.00    +0.056 A 
ATOM     18 CL   LIG    1      -35.065  67.632  28.036  0.00  0.00    -0.083 Cl
ATOM     19  C   LIG    1      -35.183  66.204  25.789  0.00  0.00    +0.059 A 
ATOM     20  C   LIG    1      -35.176  66.014  24.406  0.00  0.00    +0.134 A 
ATOM     21  F   LIG    1      -35.203  64.745  23.971  0.00  0.00    -0.205 F 
ATOM     22  C   LIG    1      -35.141  67.086  23.503  0.00  0.00    +0.039 A 
ATOM     23  C   LIG    1      -35.183  68.378  24.070  0.00  0.00    +0.027 A 
BRANCH  22  24
ATOM     24  C   LIG    1      -35.005  66.878  22.043  0.00  0.00    +0.109 A 
ATOM     25  C   LIG    1      -36.076  66.894  21.145  0.00  0.00    +0.149 A 
ATOM     26  F   LIG    1      -37.341  67.049  21.562  0.00  0.00    -0.203 F 
ATOM     27  C   LIG    1      -35.843  66.752  19.781  0.00  0.00    +0.042 A 
ATOM     28  C   LIG    1      -34.541  66.582  19.330  0.00  0.00    +0.023 A 
ATOM     29  C   LIG    1      -33.526  66.570  20.269  0.00  0.00    +0.111 A 
ATOM     30  N   LIG    1      -33.729  66.724  21.598  0.00  0.00    -0.252 NA
ENDBRANCH  22  24
ENDBRANCH  14  16
ENDBRANCH   4  12
BRANCH   1  31
ATOM     31  C   LIG    1      -35.463  74.895  28.827  0.00  0.00    +0.236 C 
ATOM     32  N   LIG    1      -34.198  75.091  28.778  0.00  0.00    -0.248 NA
BRANCH  31  33
ATOM     33  O   LIG    1      -36.340  75.622  29.547  0.00  0.00    -0.491 OA
ATOM     34  H   LIG    1      -35.987  76.483  29.794  0.00  0.00    +0.294 HD
ENDBRANCH  31  33
BRANCH  32  35
ATOM     35  C   LIG    1      -33.558  76.175  29.508  0.00  0.00    +0.162 C 
BRANCH  35  36
ATOM     36  C   LIG    1      -33.534  77.429  28.677  0.00  0.00    +0.052 C 
ATOM     37  C   LIG    1      -34.278  78.587  29.188  0.00  0.00    +0.028 C 
ATOM     38  C   LIG    1      -34.283  79.735  28.493  0.00  0.00    +0.184 C 
ATOM     39  N   LIG    1      -33.603  79.849  27.312  0.00  0.00    -0.210 N 
ATOM     40  H   LIG    1      -33.616  80.722  26.800  0.00  0.00    +0.298 HD
ATOM     41  C   LIG    1      -32.891  78.811  26.773  0.00  0.00    +0.295 C 
ATOM     42  C   LIG    1      -32.851  77.510  27.514  0.00  0.00    +0.083 C 
BRANCH  41  43
ATOM     43  N   LIG    1      -32.273  78.967  25.647  0.00  0.00    -0.071 NA
ATOM     44  H   LIG    1      -32.687  79.730  25.105  0.00  0.00    +0.348 HD
ENDBRANCH  41  43
ENDBRANCH  35  36
ENDBRANCH  32  35
ENDBRANCH   1  31
TORSDOF 9
ENDMDL
MODEL 9
REMARK VINA RESULT:      -6.6     20.381     24.665
REMARK  Name = pdb/CHEMBL3949290.pdb
REMARK                            x       y       z     vdW  Elec       q    Type
REMARK                         _______ _______ _______ _____ _____    ______ ____
ROOT
ATOM      1  C   LIG    1      -36.866  69.884  24.731  0.00  0.00    +0.149 A 
ATOM      2  N   LIG    1      -36.524  68.926  25.605  0.00  0.00    -0.160 NA
ATOM      3  N   LIG    1      -35.789  69.556  26.554  0.00  0.00    -0.218 N 
ATOM      4  C   LIG    1      -35.464  70.862  26.169  0.00  0.00    +0.129 A 
ATOM      5  C   LIG    1      -36.231  71.105  25.057  0.00  0.00    +0.078 A 
ENDROOT
BRANCH   3   6
ATOM      6  C   LIG    1      -35.444  68.859  27.741  0.00  0.00    +0.067 A 
ATOM      7  C   LIG    1      -34.236  68.161  27.841  0.00  0.00    +0.028 A 
ATOM      8  C   LIG    1      -33.905  67.510  29.033  0.00  0.00    +0.002 A 
ATOM      9  C   LIG    1      -34.772  67.557  30.125  0.00  0.00    +0.000 A 
ATOM     10  C   LIG    1      -35.964  68.272  30.038  0.00  0.00    +0.002 A 
ATOM     11  C   LIG    1      -36.296  68.935  28.855  0.00  0.00    +0.028 A 
ENDBRANCH   3   6
BRANCH   4  12
ATOM     12  N   LIG    1      -34.501  71.714  26.739  0.00  0.00    -0.266 N 
ATOM     13  H   LIG    1      -33.602  71.775  26.293  0.00  0.00    +0.157 HD
ATOM     14  C   LIG    1      -34.786  72.559  27.879  0.00  0.00    +0.251 C 
ATOM     15  O   LIG    1      -35.887  72.576  28.402  0.00  0.00    -0.270 OA
BRANCH  14  16
ATOM     16  C   LIG    1      -33.738  73.490  28.358  0.00  0.00    +0.056 A 
ATOM     17  C   LIG    1      -32.676  73.129  29.169  0.00  0.00    +0.056 A 
ATOM     18 CL   LIG    1      -32.480  71.541  29.813  0.00  0.00    -0.083 Cl
ATOM     19  C   LIG    1      -31.739  74.088  29.550  0.00  0.00    +0.059 A 
ATOM     20  C   LIG    1      -31.890  75.417  29.150  0.00  0.00    +0.134 A 
ATOM     21  F   LIG    1      -30.931  76.274  29.533  0.00  0.00    -0.205 F 
ATOM     22  C   LIG    1      -32.983  75.850  28.386  0.00  0.00    +0.039 A 
ATOM     23  C   LIG    1      -33.894  74.851  27.983  0.00  0.00    +0.027 A 
BRANCH  22  24
ATOM     24  C   LIG    1      -33.204  77.281  28.074  0.00  0.00    +0.109 A 
ATOM     25  C   LIG    1      -32.509  77.985  27.086  0.00  0.00    +0.149 A 
ATOM     26  F   LIG    1      -31.529  77.412  26.372  0.00  0.00    -0.203 F 
ATOM     27  C   LIG    1      -32.831  79.311  26.820  0.00  0.00    +0.042 A 
ATOM     28  C   LIG    1      -33.836  79.926  27.555  0.00  0.00    +0.023 A 
ATOM     29  C   LIG    1      -34.482  79.177  28.522  0.00  0.00    +0.111 A 
ATOM     30  N   LIG    1      -34.197  77.880  28.783  0.00  0.00    -0.252 NA
ENDBRANCH  22  24
ENDBRANCH  14  16
ENDBRANCH   4  12
BRANCH   1  31
ATOM     31  C   LIG    1      -37.734  69.647  23.582  0.00  0.00    +0.236 C 
ATOM     32  N   LIG    1      -38.993  69.498  23.771  0.00  0.00    -0.248 NA
BRANCH  31  33
ATOM     33  O   LIG    1      -37.112  69.611  22.387  0.00  0.00    -0.491 OA
ATOM     34  H   LIG    1      -37.570  70.132  21.719  0.00  0.00    +0.294 HD
ENDBRANCH  31  33
BRANCH  32  35
ATOM     35  C   LIG    1      -39.917  69.286  22.666  0.00  0.00    +0.162 C 
BRANCH  35  36
ATOM     36  C   LIG    1      -40.801  70.490  22.479  0.00  0.00    +0.052 C 
ATOM     37  C   LIG    1      -40.763  71.519  23.523  0.00  0.00    +0.028 C 
ATOM     38  C   LIG    1      -41.524  72.619  23.404  0.00  0.00    +0.184 C 
ATOM     39  N   LIG    1      -42.338  72.800  22.319  0.00  0.00    -0.210 N 
ATOM     40  H   LIG    1      -42.904  73.635  22.242  0.00  0.00    +0.298 HD
ATOM     41  C   LIG    1      -42.427  71.880  21.308  0.00  0.00    +0.295 C 
ATOM     42  C   LIG    1      -41.593  70.640  21.395  0.00  0.00    +0.083 C 
BRANCH  41  43
ATOM     43  N   LIG    1      -43.220  72.095  20.308  0.00  0.00    -0.071 NA
ATOM     44  H   LIG    1      -42.976  72.964  19.827  0.00  0.00    +0.348 HD
ENDBRANCH  41  43
ENDBRANCH  35  36
ENDBRANCH  32  35
ENDBRANCH   1  31
TORSDOF 9
ENDMDL
