MODEL 1
REMARK VINA RESULT:      -6.6      0.000      0.000
REMARK  Name = pdb/CHEMBL3958931.pdb
REMARK                            x       y       z     vdW  Elec       q    Type
REMARK                         _______ _______ _______ _____ _____    ______ ____
ROOT
ATOM      1  C   LIG    1      -37.173  76.980  26.827  0.00  0.00    +0.149 A 
ATOM      2  N   LIG    1      -38.437  77.385  26.634  0.00  0.00    -0.160 NA
ATOM      3  N   LIG    1      -38.937  76.579  25.669  0.00  0.00    -0.218 N 
ATOM      4  C   LIG    1      -38.059  75.535  25.365  0.00  0.00    +0.129 A 
ATOM      5  C   LIG    1      -36.890  75.839  26.032  0.00  0.00    +0.078 A 
ENDROOT
BRANCH   3   6
ATOM      6  C   LIG    1      -40.220  76.858  25.126  0.00  0.00    +0.067 A 
ATOM      7  C   LIG    1      -41.247  77.392  25.911  0.00  0.00    +0.028 A 
ATOM      8  C   LIG    1      -42.492  77.673  25.339  0.00  0.00    +0.002 A 
ATOM      9  C   LIG    1      -42.722  77.407  23.989  0.00  0.00    +0.000 A 
ATOM     10  C   LIG    1      -41.716  76.839  23.212  0.00  0.00    +0.002 A 
ATOM     11  C   LIG    1      -40.473  76.550  23.780  0.00  0.00    +0.028 A 
ENDBRANCH   3   6
BRANCH   4  12
ATOM     12  N   LIG    1      -38.337  74.364  24.645  0.00  0.00    -0.266 N 
ATOM     13  H   LIG    1      -38.328  74.434  23.630  0.00  0.00    +0.157 HD
ATOM     14  C   LIG    1      -38.666  73.108  25.260  0.00  0.00    +0.251 C 
ATOM     15  O   LIG    1      -38.636  72.993  26.484  0.00  0.00    -0.270 OA
BRANCH  14  16
ATOM     16  C   LIG    1      -39.058  71.961  24.406  0.00  0.00    +0.056 A 
ATOM     17  C   LIG    1      -40.263  71.863  23.717  0.00  0.00    +0.054 A 
ATOM     18 CL   LIG    1      -41.431  73.125  23.660  0.00  0.00    -0.083 Cl
ATOM     19  C   LIG    1      -40.557  70.707  22.993  0.00  0.00    +0.041 A 
ATOM     20  C   LIG    1      -39.636  69.651  22.902  0.00  0.00    +0.052 A 
ATOM     21 CL   LIG    1      -40.237  68.228  22.124  0.00  0.00    -0.083 Cl
ATOM     22  C   LIG    1      -38.353  69.760  23.468  0.00  0.00    +0.019 A 
ATOM     23  C   LIG    1      -38.117  70.923  24.252  0.00  0.00    +0.026 A 
BRANCH  22  24
ATOM     24  C   LIG    1      -37.225  68.803  23.279  0.00  0.00    +0.072 A 
ATOM     25  N   LIG    1      -36.482  68.576  24.395  0.00  0.00    -0.255 NA
ATOM     26  C   LIG    1      -35.353  67.837  24.285  0.00  0.00    +0.111 A 
ATOM     27  C   LIG    1      -34.915  67.275  23.103  0.00  0.00    +0.020 A 
ATOM     28  C   LIG    1      -35.679  67.488  21.967  0.00  0.00    +0.004 A 
ATOM     29  C   LIG    1      -36.832  68.272  22.051  0.00  0.00    +0.028 A 
ENDBRANCH  22  24
ENDBRANCH  14  16
ENDBRANCH   4  12
BRANCH   1  30
ATOM     30  C   LIG    1      -36.288  77.638  27.793  0.00  0.00    +0.236 C 
ATOM     31  N   LIG    1      -35.735  76.956  28.726  0.00  0.00    -0.247 NA
BRANCH  30  32
ATOM     32  O   LIG    1      -36.133  78.966  27.614  0.00  0.00    -0.491 OA
ATOM     33  H   LIG    1      -35.488  79.352  28.216  0.00  0.00    +0.294 HD
ENDBRANCH  30  32
BRANCH  31  34
ATOM     34  C   LIG    1      -34.846  77.566  29.715  0.00  0.00    +0.168 C 
BRANCH  34  35
ATOM     35  C   LIG    1      -33.392  77.267  29.353  0.00  0.00    +0.168 C 
BRANCH  35  36
ATOM     36  N   LIG    1      -33.001  77.857  28.094  0.00  0.00    -0.250 N 
ATOM     37  N   LIG    1      -33.010  79.190  27.918  0.00  0.00    -0.158 NA
ATOM     38  C   LIG    1      -32.572  79.286  26.660  0.00  0.00    +0.244 A 
ATOM     39  N   LIG    1      -32.303  78.097  26.041  0.00  0.00    -0.223 NA
ATOM     40  C   LIG    1      -32.589  77.214  26.969  0.00  0.00    +0.219 A 
ENDBRANCH  35  36
ENDBRANCH  34  35
ENDBRANCH  31  34
ENDBRANCH   1  30
TORSDOF 9
ENDMDL
MODEL 2
REMARK VINA RESULT:      -6.6      2.141      3.084
REMARK  Name = pdb/CHEMBL3958931.pdb
REMARK                            x       y       z     vdW  Elec       q    Type
REMARK                         _______ _______ _______ _____ _____    ______ ____
ROOT
ATOM      1  C   LIG    1      -38.085  77.073  26.122  0.00  0.00    +0.149 A 
ATOM      2  N   LIG    1      -39.324  76.819  25.676  0.00  0.00    -0.160 NA
ATOM      3  N   LIG    1      -39.230  75.670  24.966  0.00  0.00    -0.218 N 
ATOM      4  C   LIG    1      -37.970  75.082  25.106  0.00  0.00    +0.129 A 
ATOM      5  C   LIG    1      -37.203  76.020  25.765  0.00  0.00    +0.078 A 
ENDROOT
BRANCH   3   6
ATOM      6  C   LIG    1      -40.355  75.216  24.227  0.00  0.00    +0.067 A 
ATOM      7  C   LIG    1      -40.564  73.856  23.975  0.00  0.00    +0.028 A 
ATOM      8  C   LIG    1      -41.693  73.442  23.259  0.00  0.00    +0.002 A 
ATOM      9  C   LIG    1      -42.605  74.382  22.780  0.00  0.00    +0.000 A 
ATOM     10  C   LIG    1      -42.381  75.739  22.994  0.00  0.00    +0.002 A 
ATOM     11  C   LIG    1      -41.252  76.159  23.701  0.00  0.00    +0.028 A 
ENDBRANCH   3   6
BRANCH   4  12
ATOM     12  N   LIG    1      -37.593  73.774  24.768  0.00  0.00    -0.266 N 
ATOM     13  H   LIG    1      -37.259  73.621  23.818  0.00  0.00    +0.157 HD
ATOM     14  C   LIG    1      -37.692  72.657  25.666  0.00  0.00    +0.251 C 
ATOM     15  O   LIG    1      -38.048  72.830  26.830  0.00  0.00    -0.270 OA
BRANCH  14  16
ATOM     16  C   LIG    1      -37.377  71.295  25.170  0.00  0.00    +0.056 A 
ATOM     17  C   LIG    1      -36.254  70.561  25.534  0.00  0.00    +0.054 A 
ATOM     18 CL   LIG    1      -35.119  71.082  26.717  0.00  0.00    -0.083 Cl
ATOM     19  C   LIG    1      -36.023  69.312  24.956  0.00  0.00    +0.041 A 
ATOM     20  C   LIG    1      -36.932  68.754  24.042  0.00  0.00    +0.052 A 
ATOM     21 CL   LIG    1      -36.398  67.292  23.287  0.00  0.00    -0.083 Cl
ATOM     22  C   LIG    1      -38.147  69.398  23.746  0.00  0.00    +0.019 A 
ATOM     23  C   LIG    1      -38.313  70.695  24.303  0.00  0.00    +0.026 A 
BRANCH  22  24
ATOM     24  C   LIG    1      -39.274  68.826  22.954  0.00  0.00    +0.072 A 
ATOM     25  N   LIG    1      -39.814  67.692  23.474  0.00  0.00    -0.255 NA
ATOM     26  C   LIG    1      -40.742  67.023  22.749  0.00  0.00    +0.111 A 
ATOM     27  C   LIG    1      -41.195  67.435  21.513  0.00  0.00    +0.020 A 
ATOM     28  C   LIG    1      -40.661  68.601  20.988  0.00  0.00    +0.004 A 
ATOM     29  C   LIG    1      -39.681  69.291  21.703  0.00  0.00    +0.028 A 
ENDBRANCH  22  24
ENDBRANCH  14  16
ENDBRANCH   4  12
BRANCH   1  30
ATOM     30  C   LIG    1      -37.780  78.264  26.921  0.00  0.00    +0.236 C 
ATOM     31  N   LIG    1      -36.578  78.488  27.306  0.00  0.00    -0.247 NA
BRANCH  30  32
ATOM     32  O   LIG    1      -38.838  79.050  27.202  0.00  0.00    -0.491 OA
ATOM     33  H   LIG    1      -39.284  78.801  28.019  0.00  0.00    +0.294 HD
ENDBRANCH  30  32
BRANCH  31  34
ATOM     34  C   LIG    1      -36.223  79.661  28.104  0.00  0.00    +0.168 C 
BRANCH  34  35
ATOM     35  C   LIG    1      -34.919  79.395  28.856  0.00  0.00    +0.168 C 
BRANCH  35  36
ATOM     36  N   LIG    1      -33.849  78.979  27.981  0.00  0.00    -0.250 N 
ATOM     37  N   LIG    1      -33.438  79.758  26.964  0.00  0.00    -0.158 NA
ATOM     38  C   LIG    1      -32.453  79.014  26.453  0.00  0.00    +0.244 A 
ATOM     39  N   LIG    1      -32.234  77.820  27.081  0.00  0.00    -0.223 NA
ATOM     40  C   LIG    1      -33.135  77.824  28.036  0.00  0.00    +0.219 A 
ENDBRANCH  35  36
ENDBRANCH  34  35
ENDBRANCH  31  34
ENDBRANCH   1  30
TORSDOF 9
ENDMDL
MODEL 3
REMARK VINA RESULT:      -6.5      4.406     10.440
REMARK  Name = pdb/CHEMBL3958931.pdb
REMARK                            x       y       z     vdW  Elec       q    Type
REMARK                         _______ _______ _______ _____ _____    ______ ____
ROOT
ATOM      1  C   LIG    1      -35.635  69.011  24.967  0.00  0.00    +0.149 A 
ATOM      2  N   LIG    1      -36.645  69.881  24.828  0.00  0.00    -0.160 NA
ATOM      3  N   LIG    1      -36.333  70.934  25.619  0.00  0.00    -0.218 N 
ATOM      4  C   LIG    1      -35.036  70.829  26.127  0.00  0.00    +0.129 A 
ATOM      5  C   LIG    1      -34.618  69.557  25.794  0.00  0.00    +0.078 A 
ENDROOT
BRANCH   3   6
ATOM      6  C   LIG    1      -37.290  71.967  25.812  0.00  0.00    +0.067 A 
ATOM      7  C   LIG    1      -37.772  72.727  24.742  0.00  0.00    +0.028 A 
ATOM      8  C   LIG    1      -38.729  73.724  24.965  0.00  0.00    +0.002 A 
ATOM      9  C   LIG    1      -39.195  73.974  26.256  0.00  0.00    +0.000 A 
ATOM     10  C   LIG    1      -38.689  73.247  27.330  0.00  0.00    +0.002 A 
ATOM     11  C   LIG    1      -37.728  72.257  27.114  0.00  0.00    +0.028 A 
ENDBRANCH   3   6
BRANCH   4  12
ATOM     12  N   LIG    1      -34.269  71.833  26.735  0.00  0.00    -0.266 N 
ATOM     13  H   LIG    1      -33.746  72.451  26.118  0.00  0.00    +0.157 HD
ATOM     14  C   LIG    1      -34.156  72.001  28.157  0.00  0.00    +0.251 C 
ATOM     15  O   LIG    1      -34.816  71.294  28.917  0.00  0.00    -0.270 OA
BRANCH  14  16
ATOM     16  C   LIG    1      -33.224  73.021  28.698  0.00  0.00    +0.056 A 
ATOM     17  C   LIG    1      -32.070  72.733  29.420  0.00  0.00    +0.054 A 
ATOM     18 CL   LIG    1      -31.488  71.137  29.687  0.00  0.00    -0.083 Cl
ATOM     19  C   LIG    1      -31.298  73.774  29.938  0.00  0.00    +0.041 A 
ATOM     20  C   LIG    1      -31.636  75.117  29.704  0.00  0.00    +0.052 A 
ATOM     21 CL   LIG    1      -30.681  76.269  30.572  0.00  0.00    -0.083 Cl
ATOM     22  C   LIG    1      -32.716  75.456  28.868  0.00  0.00    +0.019 A 
ATOM     23  C   LIG    1      -33.514  74.370  28.415  0.00  0.00    +0.026 A 
BRANCH  22  24
ATOM     24  C   LIG    1      -33.058  76.825  28.386  0.00  0.00    +0.072 A 
ATOM     25  N   LIG    1      -32.242  77.301  27.407  0.00  0.00    -0.255 NA
ATOM     26  C   LIG    1      -32.386  78.588  27.011  0.00  0.00    +0.111 A 
ATOM     27  C   LIG    1      -33.331  79.451  27.528  0.00  0.00    +0.020 A 
ATOM     28  C   LIG    1      -34.176  78.964  28.512  0.00  0.00    +0.004 A 
ATOM     29  C   LIG    1      -34.027  77.649  28.957  0.00  0.00    +0.028 A 
ENDBRANCH  22  24
ENDBRANCH  14  16
ENDBRANCH   4  12
BRANCH   1  30
ATOM     30  C   LIG    1      -35.626  67.719  24.274  0.00  0.00    +0.236 C 
ATOM     31  N   LIG    1      -34.831  67.524  23.288  0.00  0.00    -0.247 NA
BRANCH  30  32
ATOM     32  O   LIG    1      -36.500  66.809  24.749  0.00  0.00    -0.491 OA
ATOM     33  H   LIG    1      -36.773  66.168  24.084  0.00  0.00    +0.294 HD
ENDBRANCH  30  32
BRANCH  31  34
ATOM     34  C   LIG    1      -34.784  66.254  22.564  0.00  0.00    +0.168 C 
BRANCH  34  35
ATOM     35  C   LIG    1      -34.827  66.518  21.059  0.00  0.00    +0.168 C 
BRANCH  35  36
ATOM     36  N   LIG    1      -33.665  66.005  20.373  0.00  0.00    -0.250 N 
ATOM     37  N   LIG    1      -32.535  66.728  20.280  0.00  0.00    -0.158 NA
ATOM     38  C   LIG    1      -31.746  65.887  19.607  0.00  0.00    +0.244 A 
ATOM     39  N   LIG    1      -32.318  64.693  19.266  0.00  0.00    -0.223 NA
ATOM     40  C   LIG    1      -33.531  64.800  19.758  0.00  0.00    +0.219 A 
ENDBRANCH  35  36
ENDBRANCH  34  35
ENDBRANCH  31  34
ENDBRANCH   1  30
TORSDOF 9
ENDMDL
MODEL 4
REMARK VINA RESULT:      -6.5      3.369      5.358
REMARK  Name = pdb/CHEMBL3958931.pdb
REMARK                            x       y       z     vdW  Elec       q    Type
REMARK                         _______ _______ _______ _____ _____    ______ ____
ROOT
ATOM      1  C   LIG    1      -36.027  79.311  27.970  0.00  0.00    +0.149 A 
ATOM      2  N   LIG    1      -35.125  78.372  28.294  0.00  0.00    -0.160 NA
ATOM      3  N   LIG    1      -35.746  77.185  28.100  0.00  0.00    -0.218 N 
ATOM      4  C   LIG    1      -36.985  77.349  27.477  0.00  0.00    +0.129 A 
ATOM      5  C   LIG    1      -37.215  78.710  27.478  0.00  0.00    +0.078 A 
ENDROOT
BRANCH   3   6
ATOM      6  C   LIG    1      -35.098  75.988  28.508  0.00  0.00    +0.067 A 
ATOM      7  C   LIG    1      -35.256  75.475  29.800  0.00  0.00    +0.028 A 
ATOM      8  C   LIG    1      -34.618  74.282  30.162  0.00  0.00    +0.002 A 
ATOM      9  C   LIG    1      -33.812  73.609  29.244  0.00  0.00    +0.000 A 
ATOM     10  C   LIG    1      -33.620  74.138  27.970  0.00  0.00    +0.002 A 
ATOM     11  C   LIG    1      -34.247  75.330  27.606  0.00  0.00    +0.028 A 
ENDBRANCH   3   6
BRANCH   4  12
ATOM     12  N   LIG    1      -37.775  76.364  26.867  0.00  0.00    -0.266 N 
ATOM     13  H   LIG    1      -38.351  75.789  27.479  0.00  0.00    +0.157 HD
ATOM     14  C   LIG    1      -37.778  76.106  25.454  0.00  0.00    +0.251 C 
ATOM     15  O   LIG    1      -37.125  76.819  24.694  0.00  0.00    -0.270 OA
BRANCH  14  16
ATOM     16  C   LIG    1      -38.560  74.962  24.925  0.00  0.00    +0.056 A 
ATOM     17  C   LIG    1      -39.767  75.078  24.243  0.00  0.00    +0.054 A 
ATOM     18 CL   LIG    1      -40.471  76.584  23.804  0.00  0.00    -0.083 Cl
ATOM     19  C   LIG    1      -40.452  73.929  23.845  0.00  0.00    +0.041 A 
ATOM     20  C   LIG    1      -39.924  72.648  24.077  0.00  0.00    +0.052 A 
ATOM     21 CL   LIG    1      -40.988  71.341  23.687  0.00  0.00    -0.083 Cl
ATOM     22  C   LIG    1      -38.645  72.486  24.641  0.00  0.00    +0.019 A 
ATOM     23  C   LIG    1      -38.010  73.675  25.092  0.00  0.00    +0.026 A 
BRANCH  22  24
ATOM     24  C   LIG    1      -37.894  71.203  24.759  0.00  0.00    +0.072 A 
ATOM     25  N   LIG    1      -37.272  71.019  25.954  0.00  0.00    -0.255 NA
ATOM     26  C   LIG    1      -36.448  69.954  26.101  0.00  0.00    +0.111 A 
ATOM     27  C   LIG    1      -36.214  69.022  25.111  0.00  0.00    +0.020 A 
ATOM     28  C   LIG    1      -36.860  69.195  23.898  0.00  0.00    +0.004 A 
ATOM     29  C   LIG    1      -37.691  70.302  23.714  0.00  0.00    +0.028 A 
ENDBRANCH  22  24
ENDBRANCH  14  16
ENDBRANCH   4  12
BRANCH   1  30
ATOM     30  C   LIG    1      -35.726  80.742  28.076  0.00  0.00    +0.236 C 
ATOM     31  N   LIG    1      -36.330  81.463  28.946  0.00  0.00    -0.247 NA
BRANCH  30  32
ATOM     32  O   LIG    1      -34.804  81.198  27.203  0.00  0.00    -0.491 OA
ATOM     33  H   LIG    1      -34.122  80.547  27.005  0.00  0.00    +0.294 HD
ENDBRANCH  30  32
BRANCH  31  34
ATOM     34  C   LIG    1      -36.066  82.894  29.090  0.00  0.00    +0.168 C 
BRANCH  34  35
ATOM     35  C   LIG    1      -37.244  83.693  28.535  0.00  0.00    +0.168 C 
BRANCH  35  36
ATOM     36  N   LIG    1      -37.180  83.852  27.101  0.00  0.00    -0.250 N 
ATOM     37  N   LIG    1      -36.000  83.958  26.465  0.00  0.00    -0.158 NA
ATOM     38  C   LIG    1      -36.402  84.064  25.195  0.00  0.00    +0.244 A 
ATOM     39  N   LIG    1      -37.755  84.043  25.005  0.00  0.00    -0.223 NA
ATOM     40  C   LIG    1      -38.219  83.914  26.226  0.00  0.00    +0.219 A 
ENDBRANCH  35  36
ENDBRANCH  34  35
ENDBRANCH  31  34
ENDBRANCH   1  30
TORSDOF 9
ENDMDL
MODEL 5
REMARK VINA RESULT:      -6.4     15.900     20.351
REMARK  Name = pdb/CHEMBL3958931.pdb
REMARK                            x       y       z     vdW  Elec       q    Type
REMARK                         _______ _______ _______ _____ _____    ______ ____
ROOT
ATOM      1  C   LIG    1      -24.604  82.946  36.946  0.00  0.00    +0.149 A 
ATOM      2  N   LIG    1      -23.630  83.452  37.717  0.00  0.00    -0.160 NA
ATOM      3  N   LIG    1      -22.520  82.738  37.419  0.00  0.00    -0.218 N 
ATOM      4  C   LIG    1      -22.728  81.895  36.325  0.00  0.00    +0.129 A 
ATOM      5  C   LIG    1      -24.085  81.950  36.078  0.00  0.00    +0.078 A 
ENDROOT
BRANCH   3   6
ATOM      6  C   LIG    1      -21.342  82.932  38.190  0.00  0.00    +0.067 A 
ATOM      7  C   LIG    1      -20.383  83.886  37.833  0.00  0.00    +0.028 A 
ATOM      8  C   LIG    1      -19.243  84.063  38.626  0.00  0.00    +0.002 A 
ATOM      9  C   LIG    1      -19.050  83.281  39.765  0.00  0.00    +0.000 A 
ATOM     10  C   LIG    1      -19.982  82.303  40.101  0.00  0.00    +0.002 A 
ATOM     11  C   LIG    1      -21.117  82.116  39.310  0.00  0.00    +0.028 A 
ENDBRANCH   3   6
BRANCH   4  12
ATOM     12  N   LIG    1      -21.761  81.230  35.558  0.00  0.00    -0.266 N 
ATOM     13  H   LIG    1      -21.470  81.678  34.692  0.00  0.00    +0.157 HD
ATOM     14  C   LIG    1      -21.202  79.954  35.910  0.00  0.00    +0.251 C 
ATOM     15  O   LIG    1      -21.506  79.419  36.975  0.00  0.00    -0.270 OA
BRANCH  14  16
ATOM     16  C   LIG    1      -20.273  79.282  34.968  0.00  0.00    +0.056 A 
ATOM     17  C   LIG    1      -18.917  79.082  35.205  0.00  0.00    +0.054 A 
ATOM     18 CL   LIG    1      -18.140  79.479  36.687  0.00  0.00    -0.083 Cl
ATOM     19  C   LIG    1      -18.120  78.495  34.220  0.00  0.00    +0.041 A 
ATOM     20  C   LIG    1      -18.670  78.055  33.005  0.00  0.00    +0.052 A 
ATOM     21 CL   LIG    1      -17.513  77.525  31.833  0.00  0.00    -0.083 Cl
ATOM     22  C   LIG    1      -20.057  78.112  32.777  0.00  0.00    +0.019 A 
ATOM     23  C   LIG    1      -20.823  78.776  33.774  0.00  0.00    +0.026 A 
BRANCH  22  24
ATOM     24  C   LIG    1      -20.783  77.506  31.624  0.00  0.00    +0.072 A 
ATOM     25  N   LIG    1      -21.855  76.743  31.968  0.00  0.00    -0.255 NA
ATOM     26  C   LIG    1      -22.486  76.036  31.001  0.00  0.00    +0.111 A 
ATOM     27  C   LIG    1      -22.120  76.058  29.670  0.00  0.00    +0.020 A 
ATOM     28  C   LIG    1      -21.041  76.848  29.313  0.00  0.00    +0.004 A 
ATOM     29  C   LIG    1      -20.356  77.563  30.297  0.00  0.00    +0.028 A 
ENDBRANCH  22  24
ENDBRANCH  14  16
ENDBRANCH   4  12
BRANCH   1  30
ATOM     30  C   LIG    1      -25.979  83.452  37.005  0.00  0.00    +0.236 C 
ATOM     31  N   LIG    1      -26.263  84.600  36.513  0.00  0.00    -0.247 NA
BRANCH  30  32
ATOM     32  O   LIG    1      -26.865  82.631  37.606  0.00  0.00    -0.491 OA
ATOM     33  H   LIG    1      -27.684  82.535  37.108  0.00  0.00    +0.294 HD
ENDBRANCH  30  32
BRANCH  31  34
ATOM     34  C   LIG    1      -27.619  85.149  36.548  0.00  0.00    +0.168 C 
BRANCH  34  35
ATOM     35  C   LIG    1      -28.233  85.090  35.150  0.00  0.00    +0.168 C 
BRANCH  35  36
ATOM     36  N   LIG    1      -29.333  84.157  35.068  0.00  0.00    -0.250 N 
ATOM     37  N   LIG    1      -29.458  83.148  35.947  0.00  0.00    -0.158 NA
ATOM     38  C   LIG    1      -30.586  82.574  35.521  0.00  0.00    +0.244 A 
ATOM     39  N   LIG    1      -31.162  83.155  34.427  0.00  0.00    -0.223 NA
ATOM     40  C   LIG    1      -30.346  84.148  34.160  0.00  0.00    +0.219 A 
ENDBRANCH  35  36
ENDBRANCH  34  35
ENDBRANCH  31  34
ENDBRANCH   1  30
TORSDOF 9
ENDMDL
MODEL 6
REMARK VINA RESULT:      -6.3      3.677      6.012
REMARK  Name = pdb/CHEMBL3958931.pdb
REMARK                            x       y       z     vdW  Elec       q    Type
REMARK                         _______ _______ _______ _____ _____    ______ ____
ROOT
ATOM      1  C   LIG    1      -37.214  76.704  26.334  0.00  0.00    +0.149 A 
ATOM      2  N   LIG    1      -38.021  77.774  26.284  0.00  0.00    -0.160 NA
ATOM      3  N   LIG    1      -38.887  77.533  25.272  0.00  0.00    -0.218 N 
ATOM      4  C   LIG    1      -38.760  76.229  24.786  0.00  0.00    +0.129 A 
ATOM      5  C   LIG    1      -37.629  75.725  25.394  0.00  0.00    +0.078 A 
ENDROOT
BRANCH   3   6
ATOM      6  C   LIG    1      -39.779  78.560  24.861  0.00  0.00    +0.067 A 
ATOM      7  C   LIG    1      -39.384  79.558  23.965  0.00  0.00    +0.028 A 
ATOM      8  C   LIG    1      -40.295  80.543  23.567  0.00  0.00    +0.002 A 
ATOM      9  C   LIG    1      -41.595  80.544  24.074  0.00  0.00    +0.000 A 
ATOM     10  C   LIG    1      -41.981  79.577  24.998  0.00  0.00    +0.002 A 
ATOM     11  C   LIG    1      -41.074  78.596  25.404  0.00  0.00    +0.028 A 
ENDBRANCH   3   6
BRANCH   4  12
ATOM     12  N   LIG    1      -39.652  75.532  23.959  0.00  0.00    -0.266 N 
ATOM     13  H   LIG    1      -39.455  75.536  22.960  0.00  0.00    +0.157 HD
ATOM     14  C   LIG    1      -40.829  74.862  24.440  0.00  0.00    +0.251 C 
ATOM     15  O   LIG    1      -41.059  74.808  25.647  0.00  0.00    -0.270 OA
BRANCH  14  16
ATOM     16  C   LIG    1      -41.769  74.255  23.466  0.00  0.00    +0.056 A 
ATOM     17  C   LIG    1      -41.731  72.927  23.054  0.00  0.00    +0.054 A 
ATOM     18 CL   LIG    1      -40.656  71.757  23.711  0.00  0.00    -0.083 Cl
ATOM     19  C   LIG    1      -42.626  72.477  22.082  0.00  0.00    +0.041 A 
ATOM     20  C   LIG    1      -43.603  73.328  21.541  0.00  0.00    +0.052 A 
ATOM     21 CL   LIG    1      -44.500  72.660  20.222  0.00  0.00    -0.083 Cl
ATOM     22  C   LIG    1      -43.767  74.639  22.025  0.00  0.00    +0.019 A 
ATOM     23  C   LIG    1      -42.796  75.080  22.964  0.00  0.00    +0.026 A 
BRANCH  22  24
ATOM     24  C   LIG    1      -44.879  75.571  21.678  0.00  0.00    +0.072 A 
ATOM     25  N   LIG    1      -44.752  76.179  20.469  0.00  0.00    -0.255 NA
ATOM     26  C   LIG    1      -45.636  77.148  20.133  0.00  0.00    +0.111 A 
ATOM     27  C   LIG    1      -46.682  77.548  20.940  0.00  0.00    +0.020 A 
ATOM     28  C   LIG    1      -46.825  76.918  22.165  0.00  0.00    +0.004 A 
ATOM     29  C   LIG    1      -45.908  75.936  22.545  0.00  0.00    +0.028 A 
ENDBRANCH  22  24
ENDBRANCH  14  16
ENDBRANCH   4  12
BRANCH   1  30
ATOM     30  C   LIG    1      -36.116  76.608  27.301  0.00  0.00    +0.236 C 
ATOM     31  N   LIG    1      -36.094  77.376  28.326  0.00  0.00    -0.247 NA
BRANCH  30  32
ATOM     32  O   LIG    1      -35.179  75.683  27.010  0.00  0.00    -0.491 OA
ATOM     33  H   LIG    1      -34.509  75.600  27.697  0.00  0.00    +0.294 HD
ENDBRANCH  30  32
BRANCH  31  34
ATOM     34  C   LIG    1      -35.020  77.318  29.319  0.00  0.00    +0.168 C 
BRANCH  34  35
ATOM     35  C   LIG    1      -34.072  78.499  29.119  0.00  0.00    +0.168 C 
BRANCH  35  36
ATOM     36  N   LIG    1      -33.288  78.383  27.912  0.00  0.00    -0.250 N 
ATOM     37  N   LIG    1      -32.636  77.245  27.612  0.00  0.00    -0.158 NA
ATOM     38  C   LIG    1      -32.081  77.569  26.440  0.00  0.00    +0.244 A 
ATOM     39  N   LIG    1      -32.338  78.836  26.000  0.00  0.00    -0.223 NA
ATOM     40  C   LIG    1      -33.097  79.327  26.952  0.00  0.00    +0.219 A 
ENDBRANCH  35  36
ENDBRANCH  34  35
ENDBRANCH  31  34
ENDBRANCH   1  30
TORSDOF 9
ENDMDL
MODEL 7
REMARK VINA RESULT:      -6.1      4.129      6.608
REMARK  Name = pdb/CHEMBL3958931.pdb
REMARK                            x       y       z     vdW  Elec       q    Type
REMARK                         _______ _______ _______ _____ _____    ______ ____
ROOT
ATOM      1  C   LIG    1      -31.874  74.372  30.155  0.00  0.00    +0.149 A 
ATOM      2  N   LIG    1      -32.017  75.692  29.970  0.00  0.00    -0.160 NA
ATOM      3  N   LIG    1      -32.802  75.826  28.875  0.00  0.00    -0.218 N 
ATOM      4  C   LIG    1      -33.318  74.596  28.459  0.00  0.00    +0.129 A 
ATOM      5  C   LIG    1      -32.653  73.651  29.212  0.00  0.00    +0.078 A 
ENDROOT
BRANCH   3   6
ATOM      6  C   LIG    1      -33.012  77.119  28.324  0.00  0.00    +0.067 A 
ATOM      7  C   LIG    1      -32.190  77.626  27.312  0.00  0.00    +0.028 A 
ATOM      8  C   LIG    1      -32.438  78.896  26.779  0.00  0.00    +0.002 A 
ATOM      9  C   LIG    1      -33.493  79.668  27.265  0.00  0.00    +0.000 A 
ATOM     10  C   LIG    1      -34.289  79.185  28.300  0.00  0.00    +0.002 A 
ATOM     11  C   LIG    1      -34.042  77.922  28.840  0.00  0.00    +0.028 A 
ENDBRANCH   3   6
BRANCH   4  12
ATOM     12  N   LIG    1      -34.371  74.367  27.562  0.00  0.00    -0.266 N 
ATOM     13  H   LIG    1      -34.120  74.143  26.602  0.00  0.00    +0.157 HD
ATOM     14  C   LIG    1      -35.759  74.474  27.918  0.00  0.00    +0.251 C 
ATOM     15  O   LIG    1      -36.083  74.698  29.083  0.00  0.00    -0.270 OA
BRANCH  14  16
ATOM     16  C   LIG    1      -36.793  74.328  26.865  0.00  0.00    +0.056 A 
ATOM     17  C   LIG    1      -37.460  75.389  26.259  0.00  0.00    +0.054 A 
ATOM     18 CL   LIG    1      -37.091  77.041  26.561  0.00  0.00    -0.083 Cl
ATOM     19  C   LIG    1      -38.463  75.134  25.323  0.00  0.00    +0.041 A 
ATOM     20  C   LIG    1      -38.785  73.822  24.940  0.00  0.00    +0.052 A 
ATOM     21 CL   LIG    1      -40.172  73.684  23.915  0.00  0.00    -0.083 Cl
ATOM     22  C   LIG    1      -38.047  72.726  25.423  0.00  0.00    +0.019 A 
ATOM     23  C   LIG    1      -37.080  73.021  26.422  0.00  0.00    +0.026 A 
BRANCH  22  24
ATOM     24  C   LIG    1      -38.157  71.316  24.950  0.00  0.00    +0.072 A 
ATOM     25  N   LIG    1      -37.314  70.992  23.934  0.00  0.00    -0.255 NA
ATOM     26  C   LIG    1      -37.443  69.780  23.344  0.00  0.00    +0.111 A 
ATOM     27  C   LIG    1      -38.373  68.834  23.726  0.00  0.00    +0.020 A 
ATOM     28  C   LIG    1      -39.222  69.153  24.773  0.00  0.00    +0.004 A 
ATOM     29  C   LIG    1      -39.127  70.408  25.377  0.00  0.00    +0.028 A 
ENDBRANCH  22  24
ENDBRANCH  14  16
ENDBRANCH   4  12
BRANCH   1  30
ATOM     30  C   LIG    1      -31.059  73.827  31.245  0.00  0.00    +0.236 C 
ATOM     31  N   LIG    1      -29.819  74.136  31.337  0.00  0.00    -0.247 NA
BRANCH  30  32
ATOM     32  O   LIG    1      -31.713  73.005  32.091  0.00  0.00    -0.491 OA
ATOM     33  H   LIG    1      -32.548  73.371  32.399  0.00  0.00    +0.294 HD
ENDBRANCH  30  32
BRANCH  31  34
ATOM     34  C   LIG    1      -28.964  73.619  32.405  0.00  0.00    +0.168 C 
BRANCH  34  35
ATOM     35  C   LIG    1      -28.449  74.777  33.258  0.00  0.00    +0.168 C 
BRANCH  35  36
ATOM     36  N   LIG    1      -27.568  75.655  32.525  0.00  0.00    -0.250 N 
ATOM     37  N   LIG    1      -26.349  75.247  32.128  0.00  0.00    -0.158 NA
ATOM     38  C   LIG    1      -25.909  76.335  31.490  0.00  0.00    +0.244 A 
ATOM     39  N   LIG    1      -26.770  77.395  31.476  0.00  0.00    -0.223 NA
ATOM     40  C   LIG    1      -27.806  76.938  32.142  0.00  0.00    +0.219 A 
ENDBRANCH  35  36
ENDBRANCH  34  35
ENDBRANCH  31  34
ENDBRANCH   1  30
TORSDOF 9
ENDMDL
MODEL 8
REMARK VINA RESULT:      -6.1      1.894      3.186
REMARK  Name = pdb/CHEMBL3958931.pdb
REMARK                            x       y       z     vdW  Elec       q    Type
REMARK                         _______ _______ _______ _____ _____    ______ ____
ROOT
ATOM      1  C   LIG    1      -37.307  77.244  26.829  0.00  0.00    +0.149 A 
ATOM      2  N   LIG    1      -38.553  77.366  26.346  0.00  0.00    -0.160 NA
ATOM      3  N   LIG    1      -38.703  76.356  25.459  0.00  0.00    -0.218 N 
ATOM      4  C   LIG    1      -37.623  75.470  25.500  0.00  0.00    +0.129 A 
ATOM      5  C   LIG    1      -36.683  76.082  26.303  0.00  0.00    +0.078 A 
ENDROOT
BRANCH   3   6
ATOM      6  C   LIG    1      -39.874  76.305  24.655  0.00  0.00    +0.067 A 
ATOM      7  C   LIG    1      -40.562  77.467  24.290  0.00  0.00    +0.028 A 
ATOM      8  C   LIG    1      -41.701  77.381  23.481  0.00  0.00    +0.002 A 
ATOM      9  C   LIG    1      -42.164  76.139  23.049  0.00  0.00    +0.000 A 
ATOM     10  C   LIG    1      -41.506  74.977  23.442  0.00  0.00    +0.002 A 
ATOM     11  C   LIG    1      -40.373  75.055  24.255  0.00  0.00    +0.028 A 
ENDBRANCH   3   6
BRANCH   4  12
ATOM     12  N   LIG    1      -37.550  74.181  24.952  0.00  0.00    -0.266 N 
ATOM     13  H   LIG    1      -37.185  74.102  24.005  0.00  0.00    +0.157 HD
ATOM     14  C   LIG    1      -37.994  72.998  25.635  0.00  0.00    +0.251 C 
ATOM     15  O   LIG    1      -38.394  73.067  26.796  0.00  0.00    -0.270 OA
BRANCH  14  16
ATOM     16  C   LIG    1      -37.982  71.698  24.920  0.00  0.00    +0.056 A 
ATOM     17  C   LIG    1      -36.929  70.790  24.948  0.00  0.00    +0.054 A 
ATOM     18 CL   LIG    1      -35.526  70.990  25.924  0.00  0.00    -0.083 Cl
ATOM     19  C   LIG    1      -36.997  69.624  24.185  0.00  0.00    +0.041 A 
ATOM     20  C   LIG    1      -38.135  69.320  23.419  0.00  0.00    +0.052 A 
ATOM     21 CL   LIG    1      -37.973  67.936  22.394  0.00  0.00    -0.083 Cl
ATOM     22  C   LIG    1      -39.277  70.140  23.465  0.00  0.00    +0.019 A 
ATOM     23  C   LIG    1      -39.143  71.349  24.201  0.00  0.00    +0.026 A 
BRANCH  22  24
ATOM     24  C   LIG    1      -40.605  69.831  22.861  0.00  0.00    +0.072 A 
ATOM     25  N   LIG    1      -40.661  69.981  21.511  0.00  0.00    -0.255 NA
ATOM     26  C   LIG    1      -41.861  69.865  20.893  0.00  0.00    +0.111 A 
ATOM     27  C   LIG    1      -43.039  69.580  21.552  0.00  0.00    +0.020 A 
ATOM     28  C   LIG    1      -42.983  69.408  22.926  0.00  0.00    +0.004 A 
ATOM     29  C   LIG    1      -41.762  69.552  23.587  0.00  0.00    +0.028 A 
ENDBRANCH  22  24
ENDBRANCH  14  16
ENDBRANCH   4  12
BRANCH   1  30
ATOM     30  C   LIG    1      -36.762  78.185  27.812  0.00  0.00    +0.236 C 
ATOM     31  N   LIG    1      -35.746  77.858  28.520  0.00  0.00    -0.247 NA
BRANCH  30  32
ATOM     32  O   LIG    1      -37.412  79.364  27.894  0.00  0.00    -0.491 OA
ATOM     33  H   LIG    1      -37.655  79.595  28.797  0.00  0.00    +0.294 HD
ENDBRANCH  30  32
BRANCH  31  34
ATOM     34  C   LIG    1      -35.166  78.761  29.514  0.00  0.00    +0.168 C 
BRANCH  34  35
ATOM     35  C   LIG    1      -34.086  79.621  28.859  0.00  0.00    +0.168 C 
BRANCH  35  36
ATOM     36  N   LIG    1      -33.301  78.885  27.896  0.00  0.00    -0.250 N 
ATOM     37  N   LIG    1      -32.730  77.710  28.214  0.00  0.00    -0.158 NA
ATOM     38  C   LIG    1      -32.142  77.389  27.058  0.00  0.00    +0.244 A 
ATOM     39  N   LIG    1      -32.302  78.294  26.048  0.00  0.00    -0.223 NA
ATOM     40  C   LIG    1      -33.032  79.231  26.608  0.00  0.00    +0.219 A 
ENDBRANCH  35  36
ENDBRANCH  34  35
ENDBRANCH  31  34
ENDBRANCH   1  30
TORSDOF 9
ENDMDL
MODEL 9
REMARK VINA RESULT:      -6.1      8.753     13.908
REMARK  Name = pdb/CHEMBL3958931.pdb
REMARK                            x       y       z     vdW  Elec       q    Type
REMARK                         _______ _______ _______ _____ _____    ______ ____
ROOT
ATOM      1  C   LIG    1      -27.599  65.686  19.414  0.00  0.00    +0.149 A 
ATOM      2  N   LIG    1      -27.386  66.975  19.108  0.00  0.00    -0.160 NA
ATOM      3  N   LIG    1      -28.613  67.516  18.928  0.00  0.00    -0.218 N 
ATOM      4  C   LIG    1      -29.627  66.627  19.295  0.00  0.00    +0.129 A 
ATOM      5  C   LIG    1      -28.991  65.423  19.515  0.00  0.00    +0.078 A 
ENDROOT
BRANCH   3   6
ATOM      6  C   LIG    1      -28.721  68.845  18.436  0.00  0.00    +0.067 A 
ATOM      7  C   LIG    1      -28.482  69.951  19.259  0.00  0.00    +0.028 A 
ATOM      8  C   LIG    1      -28.579  71.246  18.737  0.00  0.00    +0.002 A 
ATOM      9  C   LIG    1      -28.929  71.441  17.401  0.00  0.00    +0.000 A 
ATOM     10  C   LIG    1      -29.207  70.345  16.589  0.00  0.00    +0.002 A 
ATOM     11  C   LIG    1      -29.119  69.051  17.106  0.00  0.00    +0.028 A 
ENDBRANCH   3   6
BRANCH   4  12
ATOM     12  N   LIG    1      -30.981  66.916  19.518  0.00  0.00    -0.266 N 
ATOM     13  H   LIG    1      -31.214  67.875  19.766  0.00  0.00    +0.157 HD
ATOM     14  C   LIG    1      -32.027  65.933  19.454  0.00  0.00    +0.251 C 
ATOM     15  O   LIG    1      -31.772  64.780  19.110  0.00  0.00    -0.270 OA
BRANCH  14  16
ATOM     16  C   LIG    1      -33.411  66.319  19.823  0.00  0.00    +0.056 A 
ATOM     17  C   LIG    1      -34.472  66.412  18.927  0.00  0.00    +0.054 A 
ATOM     18 CL   LIG    1      -34.358  65.970  17.269  0.00  0.00    -0.083 Cl
ATOM     19  C   LIG    1      -35.720  66.848  19.373  0.00  0.00    +0.041 A 
ATOM     20  C   LIG    1      -35.945  67.151  20.726  0.00  0.00    +0.052 A 
ATOM     21 CL   LIG    1      -37.490  67.851  21.066  0.00  0.00    -0.083 Cl
ATOM     22  C   LIG    1      -34.942  66.944  21.690  0.00  0.00    +0.019 A 
ATOM     23  C   LIG    1      -33.668  66.563  21.187  0.00  0.00    +0.026 A 
BRANCH  22  24
ATOM     24  C   LIG    1      -35.112  67.039  23.168  0.00  0.00    +0.072 A 
ATOM     25  N   LIG    1      -34.827  68.261  23.693  0.00  0.00    -0.255 NA
ATOM     26  C   LIG    1      -34.812  68.403  25.040  0.00  0.00    +0.111 A 
ATOM     27  C   LIG    1      -35.090  67.379  25.923  0.00  0.00    +0.020 A 
ATOM     28  C   LIG    1      -35.399  66.138  25.392  0.00  0.00    +0.004 A 
ATOM     29  C   LIG    1      -35.392  65.961  24.007  0.00  0.00    +0.028 A 
ENDBRANCH  22  24
ENDBRANCH  14  16
ENDBRANCH   4  12
BRANCH   1  30
ATOM     30  C   LIG    1      -26.493  64.756  19.659  0.00  0.00    +0.236 C 
ATOM     31  N   LIG    1      -26.465  63.621  19.066  0.00  0.00    -0.247 NA
BRANCH  30  32
ATOM     32  O   LIG    1      -25.563  65.192  20.534  0.00  0.00    -0.491 OA
ATOM     33  H   LIG    1      -25.897  65.253  21.435  0.00  0.00    +0.294 HD
ENDBRANCH  30  32
BRANCH  31  34
ATOM     34  C   LIG    1      -25.384  62.658  19.278  0.00  0.00    +0.168 C 
BRANCH  34  35
ATOM     35  C   LIG    1      -25.786  61.665  20.367  0.00  0.00    +0.168 C 
BRANCH  35  36
ATOM     36  N   LIG    1      -24.921  61.727  21.522  0.00  0.00    -0.250 N 
ATOM     37  N   LIG    1      -24.773  62.867  22.220  0.00  0.00    -0.158 NA
ATOM     38  C   LIG    1      -23.930  62.473  23.179  0.00  0.00    +0.244 A 
ATOM     39  N   LIG    1      -23.538  61.165  23.113  0.00  0.00    -0.223 NA
ATOM     40  C   LIG    1      -24.174  60.723  22.054  0.00  0.00    +0.219 A 
ENDBRANCH  35  36
ENDBRANCH  34  35
ENDBRANCH  31  34
ENDBRANCH   1  30
TORSDOF 9
ENDMDL
