MODEL 1
REMARK VINA RESULT:      -6.5      0.000      0.000
REMARK  Name = pdb/CHEMBL3671460.pdb
REMARK                            x       y       z     vdW  Elec       q    Type
REMARK                         _______ _______ _______ _____ _____    ______ ____
ROOT
ATOM      1  C   LIG    1      -40.423  74.919  24.246  0.00  0.00    +0.042 A 
ATOM      2  C   LIG    1      -39.096  74.978  24.707  0.00  0.00    +0.038 A 
ATOM      3  C   LIG    1      -38.333  76.148  24.560  0.00  0.00    +0.054 A 
ATOM      4  C   LIG    1      -38.916  77.211  23.870  0.00  0.00    +0.134 A 
ATOM      5  N   LIG    1      -40.194  77.194  23.428  0.00  0.00    -0.261 NA
ATOM      6  C   LIG    1      -40.922  76.078  23.672  0.00  0.00    +0.122 A 
ENDROOT
BRANCH   3   7
ATOM      7  N   LIG    1      -37.037  76.196  25.136  0.00  0.00    -0.268 N 
ATOM      8  H   LIG    1      -36.284  76.046  24.454  0.00  0.00    +0.156 HD
ATOM      9  C   LIG    1      -36.731  76.325  26.461  0.00  0.00    +0.309 C 
ATOM     10  N   LIG    1      -35.295  76.373  26.588  0.00  0.00    -0.254 N 
ATOM     11  H   LIG    1      -34.734  76.401  25.741  0.00  0.00    +0.158 HD
ATOM     12  O   LIG    1      -37.474  76.429  27.424  0.00  0.00    -0.252 OA
BRANCH  10  13
ATOM     13  C   LIG    1      -34.613  76.544  27.798  0.00  0.00    +0.130 A 
ATOM     14  N   LIG    1      -34.479  77.719  28.553  0.00  0.00    -0.215 N 
ATOM     15  N   LIG    1      -33.967  77.455  29.788  0.00  0.00    -0.169 NA
ATOM     16  C   LIG    1      -33.611  76.171  29.733  0.00  0.00    +0.068 A 
ATOM     17  C   LIG    1      -33.996  75.558  28.531  0.00  0.00    +0.069 A 
BRANCH  14  18
ATOM     18  C   LIG    1      -34.869  79.029  28.164  0.00  0.00    +0.105 A 
ATOM     19  C   LIG    1      -36.118  79.603  28.286  0.00  0.00    +0.135 A 
ATOM     20  N   LIG    1      -36.012  80.854  27.743  0.00  0.00    -0.272 N 
ATOM     21  C   LIG    1      -37.071  81.823  27.577  0.00  0.00    +0.172 C 
ATOM     22  N   LIG    1      -34.765  81.138  27.315  0.00  0.00    -0.178 NA
ATOM     23  C   LIG    1      -34.066  80.042  27.610  0.00  0.00    +0.162 A 
ENDBRANCH  14  18
BRANCH  16  24
ATOM     24  C   LIG    1      -32.913  75.447  30.877  0.00  0.00    +0.040 C 
ATOM     25  C   LIG    1      -32.438  76.247  32.080  0.00  0.00    +0.010 C 
ATOM     26  C   LIG    1      -31.435  75.722  31.113  0.00  0.00    +0.010 C 
ENDBRANCH  16  24
ENDBRANCH  10  13
ENDBRANCH   3   7
BRANCH   1  27
ATOM     27  C   LIG    1      -41.257  73.685  24.445  0.00  0.00    +0.197 C 
ATOM     28  O   LIG    1      -42.149  73.742  25.289  0.00  0.00    -0.287 OA
BRANCH  27  36
ATOM     29  N   LIG    1      -40.059  70.449  23.140  0.00  0.00    -0.329 N 
ATOM     30  C   LIG    1      -41.096  70.652  22.271  0.00  0.00    +0.145 A 
ATOM     31  N   LIG    1      -41.490  69.776  21.330  0.00  0.00    -0.218 NA
ATOM     32  C   LIG    1      -42.518  70.239  20.609  0.00  0.00    +0.223 A 
ATOM     33  N   LIG    1      -43.119  71.439  20.718  0.00  0.00    -0.243 NA
ATOM     34  C   LIG    1      -42.684  72.290  21.684  0.00  0.00    +0.124 A 
ATOM     35  C   LIG    1      -41.648  71.904  22.539  0.00  0.00    +0.048 A 
ATOM     36  C   LIG    1      -40.973  72.441  23.702  0.00  0.00    +0.051 A 
ATOM     37  C   LIG    1      -40.026  71.485  24.036  0.00  0.00    +0.100 A 
BRANCH  29  39
ATOM     38  C   LIG    1      -37.711  69.663  22.961  0.00  0.00    +0.030 C 
ATOM     39  C   LIG    1      -39.180  69.280  23.158  0.00  0.00    +0.083 C 
ATOM     40  C   LIG    1      -39.348  68.437  24.426  0.00  0.00    +0.030 C 
ENDBRANCH  29  39
ENDBRANCH  27  36
ENDBRANCH   1  27
TORSDOF 7
ENDMDL
MODEL 2
REMARK VINA RESULT:      -6.5      2.808      9.975
REMARK  Name = pdb/CHEMBL3671460.pdb
REMARK                            x       y       z     vdW  Elec       q    Type
REMARK                         _______ _______ _______ _____ _____    ______ ____
ROOT
ATOM      1  C   LIG    1      -33.127  73.530  29.157  0.00  0.00    +0.042 A 
ATOM      2  C   LIG    1      -33.912  73.410  27.997  0.00  0.00    +0.038 A 
ATOM      3  C   LIG    1      -34.610  72.223  27.719  0.00  0.00    +0.054 A 
ATOM      4  C   LIG    1      -34.426  71.151  28.592  0.00  0.00    +0.134 A 
ATOM      5  N   LIG    1      -33.691  71.237  29.725  0.00  0.00    -0.261 NA
ATOM      6  C   LIG    1      -33.109  72.430  30.000  0.00  0.00    +0.122 A 
ENDROOT
BRANCH   3   7
ATOM      7  N   LIG    1      -35.474  72.185  26.593  0.00  0.00    -0.268 N 
ATOM      8  H   LIG    1      -35.006  71.877  25.733  0.00  0.00    +0.156 HD
ATOM      9  C   LIG    1      -36.778  72.591  26.545  0.00  0.00    +0.309 C 
ATOM     10  N   LIG    1      -37.280  72.332  25.219  0.00  0.00    -0.254 N 
ATOM     11  H   LIG    1      -36.685  71.831  24.564  0.00  0.00    +0.158 HD
ATOM     12  O   LIG    1      -37.480  73.060  27.428  0.00  0.00    -0.252 OA
BRANCH  10  13
ATOM     13  C   LIG    1      -38.595  72.578  24.808  0.00  0.00    +0.130 A 
ATOM     14  N   LIG    1      -39.230  73.818  24.646  0.00  0.00    -0.215 N 
ATOM     15  N   LIG    1      -40.420  73.682  23.996  0.00  0.00    -0.169 NA
ATOM     16  C   LIG    1      -40.611  72.365  23.926  0.00  0.00    +0.068 A 
ATOM     17  C   LIG    1      -39.511  71.635  24.403  0.00  0.00    +0.069 A 
BRANCH  14  18
ATOM     18  C   LIG    1      -38.721  75.090  25.028  0.00  0.00    +0.105 A 
ATOM     19  C   LIG    1      -39.271  75.976  25.932  0.00  0.00    +0.135 A 
ATOM     20  N   LIG    1      -38.448  77.069  25.935  0.00  0.00    -0.272 N 
ATOM     21  C   LIG    1      -38.635  78.296  26.675  0.00  0.00    +0.172 C 
ATOM     22  N   LIG    1      -37.382  76.927  25.122  0.00  0.00    -0.178 NA
ATOM     23  C   LIG    1      -37.531  75.707  24.604  0.00  0.00    +0.162 A 
ENDBRANCH  14  18
BRANCH  16  24
ATOM     24  C   LIG    1      -41.867  71.732  23.340  0.00  0.00    +0.040 C 
ATOM     25  C   LIG    1      -41.813  71.132  21.944  0.00  0.00    +0.010 C 
ATOM     26  C   LIG    1      -42.538  72.415  22.158  0.00  0.00    +0.010 C 
ENDBRANCH  16  24
ENDBRANCH  10  13
ENDBRANCH   3   7
BRANCH   1  27
ATOM     27  C   LIG    1      -32.417  74.814  29.481  0.00  0.00    +0.197 C 
ATOM     28  O   LIG    1      -31.255  74.728  29.872  0.00  0.00    -0.287 OA
BRANCH  27  36
ATOM     29  N   LIG    1      -34.389  77.896  29.951  0.00  0.00    -0.329 N 
ATOM     30  C   LIG    1      -33.767  78.226  28.778  0.00  0.00    +0.145 A 
ATOM     31  N   LIG    1      -33.880  79.413  28.158  0.00  0.00    -0.218 NA
ATOM     32  C   LIG    1      -33.177  79.455  27.019  0.00  0.00    +0.223 A 
ATOM     33  N   LIG    1      -32.451  78.464  26.468  0.00  0.00    -0.243 NA
ATOM     34  C   LIG    1      -32.368  77.282  27.133  0.00  0.00    +0.124 A 
ATOM     35  C   LIG    1      -33.016  77.126  28.362  0.00  0.00    +0.048 A 
ATOM     36  C   LIG    1      -33.110  76.115  29.394  0.00  0.00    +0.051 A 
ATOM     37  C   LIG    1      -33.949  76.663  30.353  0.00  0.00    +0.100 A 
BRANCH  29  39
ATOM     38  C   LIG    1      -36.656  78.061  30.952  0.00  0.00    +0.030 C 
ATOM     39  C   LIG    1      -35.315  78.753  30.692  0.00  0.00    +0.083 C 
ATOM     40  C   LIG    1      -34.716  79.268  32.005  0.00  0.00    +0.030 C 
ENDBRANCH  29  39
ENDBRANCH  27  36
ENDBRANCH   1  27
TORSDOF 7
ENDMDL
MODEL 3
REMARK VINA RESULT:      -6.5      6.362     11.447
REMARK  Name = pdb/CHEMBL3671460.pdb
REMARK                            x       y       z     vdW  Elec       q    Type
REMARK                         _______ _______ _______ _____ _____    ______ ____
ROOT
ATOM      1  C   LIG    1      -31.876  75.247  30.569  0.00  0.00    +0.042 A 
ATOM      2  C   LIG    1      -30.698  76.006  30.456  0.00  0.00    +0.038 A 
ATOM      3  C   LIG    1      -29.855  76.198  31.563  0.00  0.00    +0.054 A 
ATOM      4  C   LIG    1      -30.275  75.677  32.787  0.00  0.00    +0.134 A 
ATOM      5  N   LIG    1      -31.393  74.929  32.928  0.00  0.00    -0.261 NA
ATOM      6  C   LIG    1      -32.129  74.693  31.814  0.00  0.00    +0.122 A 
ENDROOT
BRANCH   3   7
ATOM      7  N   LIG    1      -28.625  76.880  31.375  0.00  0.00    -0.268 N 
ATOM      8  H   LIG    1      -28.733  77.797  30.925  0.00  0.00    +0.156 HD
ATOM      9  C   LIG    1      -27.373  76.405  31.645  0.00  0.00    +0.309 C 
ATOM     10  N   LIG    1      -26.422  77.448  31.346  0.00  0.00    -0.254 N 
ATOM     11  H   LIG    1      -26.775  78.366  31.087  0.00  0.00    +0.158 HD
ATOM     12  O   LIG    1      -27.032  75.323  32.097  0.00  0.00    -0.252 OA
BRANCH  10  13
ATOM     13  C   LIG    1      -25.041  77.339  31.541  0.00  0.00    +0.130 A 
ATOM     14  N   LIG    1      -24.308  77.628  32.702  0.00  0.00    -0.215 N 
ATOM     15  N   LIG    1      -23.029  77.166  32.605  0.00  0.00    -0.169 NA
ATOM     16  C   LIG    1      -22.914  76.772  31.337  0.00  0.00    +0.068 A 
ATOM     17  C   LIG    1      -24.128  76.846  30.638  0.00  0.00    +0.069 A 
BRANCH  14  18
ATOM     18  C   LIG    1      -24.796  78.253  33.882  0.00  0.00    +0.105 A 
ATOM     19  C   LIG    1      -25.813  77.813  34.705  0.00  0.00    +0.135 A 
ATOM     20  N   LIG    1      -25.942  78.762  35.682  0.00  0.00    -0.272 N 
ATOM     21  C   LIG    1      -26.918  78.786  36.747  0.00  0.00    +0.172 C 
ATOM     22  N   LIG    1      -25.047  79.764  35.565  0.00  0.00    -0.178 NA
ATOM     23  C   LIG    1      -24.327  79.429  34.494  0.00  0.00    +0.162 A 
ENDBRANCH  14  18
BRANCH  16  24
ATOM     24  C   LIG    1      -21.614  76.247  30.740  0.00  0.00    +0.040 C 
ATOM     25  C   LIG    1      -20.533  77.236  30.333  0.00  0.00    +0.010 C 
ATOM     26  C   LIG    1      -21.319  76.540  29.277  0.00  0.00    +0.010 C 
ENDBRANCH  16  24
ENDBRANCH  10  13
ENDBRANCH   3   7
BRANCH   1  27
ATOM     27  C   LIG    1      -32.755  75.000  29.376  0.00  0.00    +0.197 C 
ATOM     28  O   LIG    1      -32.612  73.930  28.788  0.00  0.00    -0.287 OA
BRANCH  27  36
ATOM     29  N   LIG    1      -35.630  77.147  28.521  0.00  0.00    -0.329 N 
ATOM     30  C   LIG    1      -34.624  77.960  28.073  0.00  0.00    +0.145 A 
ATOM     31  N   LIG    1      -34.802  79.196  27.578  0.00  0.00    -0.218 NA
ATOM     32  C   LIG    1      -33.647  79.759  27.199  0.00  0.00    +0.223 A 
ATOM     33  N   LIG    1      -32.419  79.209  27.237  0.00  0.00    -0.243 NA
ATOM     34  C   LIG    1      -32.291  77.955  27.746  0.00  0.00    +0.124 A 
ATOM     35  C   LIG    1      -33.417  77.278  28.224  0.00  0.00    +0.048 A 
ATOM     36  C   LIG    1      -33.700  76.027  28.895  0.00  0.00    +0.051 A 
ATOM     37  C   LIG    1      -35.076  76.022  29.071  0.00  0.00    +0.100 A 
BRANCH  29  39
ATOM     38  C   LIG    1      -37.915  76.223  28.218  0.00  0.00    +0.030 C 
ATOM     39  C   LIG    1      -37.058  77.464  28.487  0.00  0.00    +0.083 C 
ATOM     40  C   LIG    1      -37.532  78.177  29.757  0.00  0.00    +0.030 C 
ENDBRANCH  29  39
ENDBRANCH  27  36
ENDBRANCH   1  27
TORSDOF 7
ENDMDL
MODEL 4
REMARK VINA RESULT:      -6.4      1.153      2.501
REMARK  Name = pdb/CHEMBL3671460.pdb
REMARK                            x       y       z     vdW  Elec       q    Type
REMARK                         _______ _______ _______ _____ _____    ______ ____
ROOT
ATOM      1  C   LIG    1      -39.849  73.626  24.688  0.00  0.00    +0.042 A 
ATOM      2  C   LIG    1      -38.568  74.080  25.046  0.00  0.00    +0.038 A 
ATOM      3  C   LIG    1      -38.212  75.430  24.890  0.00  0.00    +0.054 A 
ATOM      4  C   LIG    1      -39.147  76.276  24.295  0.00  0.00    +0.134 A 
ATOM      5  N   LIG    1      -40.394  75.876  23.954  0.00  0.00    -0.261 NA
ATOM      6  C   LIG    1      -40.725  74.587  24.206  0.00  0.00    +0.122 A 
ENDROOT
BRANCH   3   7
ATOM      7  N   LIG    1      -36.945  75.862  25.364  0.00  0.00    -0.268 N 
ATOM      8  H   LIG    1      -36.260  76.011  24.613  0.00  0.00    +0.156 HD
ATOM      9  C   LIG    1      -36.558  75.997  26.667  0.00  0.00    +0.309 C 
ATOM     10  N   LIG    1      -35.208  76.504  26.685  0.00  0.00    -0.254 N 
ATOM     11  H   LIG    1      -34.779  76.770  25.803  0.00  0.00    +0.158 HD
ATOM     12  O   LIG    1      -37.190  75.789  27.692  0.00  0.00    -0.252 OA
BRANCH  10  13
ATOM     13  C   LIG    1      -34.493  76.810  27.848  0.00  0.00    +0.130 A 
ATOM     14  N   LIG    1      -34.454  78.029  28.540  0.00  0.00    -0.215 N 
ATOM     15  N   LIG    1      -33.859  77.886  29.758  0.00  0.00    -0.169 NA
ATOM     16  C   LIG    1      -33.366  76.647  29.743  0.00  0.00    +0.068 A 
ATOM     17  C   LIG    1      -33.737  75.935  28.592  0.00  0.00    +0.069 A 
BRANCH  14  18
ATOM     18  C   LIG    1      -35.004  79.268  28.112  0.00  0.00    +0.105 A 
ATOM     19  C   LIG    1      -36.330  79.652  28.143  0.00  0.00    +0.135 A 
ATOM     20  N   LIG    1      -36.371  80.905  27.596  0.00  0.00    -0.272 N 
ATOM     21  C   LIG    1      -37.546  81.708  27.349  0.00  0.00    +0.172 C 
ATOM     22  N   LIG    1      -35.152  81.370  27.252  0.00  0.00    -0.178 NA
ATOM     23  C   LIG    1      -34.322  80.388  27.605  0.00  0.00    +0.162 A 
ENDBRANCH  14  18
BRANCH  16  24
ATOM     24  C   LIG    1      -32.539  76.063  30.881  0.00  0.00    +0.040 C 
ATOM     25  C   LIG    1      -32.838  74.654  31.368  0.00  0.00    +0.010 C 
ATOM     26  C   LIG    1      -33.219  75.816  32.218  0.00  0.00    +0.010 C 
ENDBRANCH  16  24
ENDBRANCH  10  13
ENDBRANCH   3   7
BRANCH   1  27
ATOM     27  C   LIG    1      -40.249  72.193  24.898  0.00  0.00    +0.197 C 
ATOM     28  O   LIG    1      -40.555  71.858  26.041  0.00  0.00    -0.287 OA
BRANCH  27  36
ATOM     29  N   LIG    1      -40.843  70.014  21.981  0.00  0.00    -0.329 N 
ATOM     30  C   LIG    1      -39.523  69.723  22.191  0.00  0.00    +0.145 A 
ATOM     31  N   LIG    1      -38.780  68.923  21.407  0.00  0.00    -0.218 NA
ATOM     32  C   LIG    1      -37.525  68.800  21.857  0.00  0.00    +0.223 A 
ATOM     33  N   LIG    1      -36.998  69.343  22.971  0.00  0.00    -0.243 NA
ATOM     34  C   LIG    1      -37.790  70.144  23.731  0.00  0.00    +0.124 A 
ATOM     35  C   LIG    1      -39.109  70.395  23.341  0.00  0.00    +0.048 A 
ATOM     36  C   LIG    1      -40.213  71.218  23.790  0.00  0.00    +0.051 A 
ATOM     37  C   LIG    1      -41.238  70.955  22.894  0.00  0.00    +0.100 A 
BRANCH  29  39
ATOM     38  C   LIG    1      -42.480  68.250  21.369  0.00  0.00    +0.030 C 
ATOM     39  C   LIG    1      -41.674  69.468  20.908  0.00  0.00    +0.083 C 
ATOM     40  C   LIG    1      -42.600  70.519  20.288  0.00  0.00    +0.030 C 
ENDBRANCH  29  39
ENDBRANCH  27  36
ENDBRANCH   1  27
TORSDOF 7
ENDMDL
MODEL 5
REMARK VINA RESULT:      -6.3      7.135     11.403
REMARK  Name = pdb/CHEMBL3671460.pdb
REMARK                            x       y       z     vdW  Elec       q    Type
REMARK                         _______ _______ _______ _____ _____    ______ ____
ROOT
ATOM      1  C   LIG    1      -31.597  75.328  30.611  0.00  0.00    +0.042 A 
ATOM      2  C   LIG    1      -30.416  76.073  30.453  0.00  0.00    +0.038 A 
ATOM      3  C   LIG    1      -29.626  76.414  31.564  0.00  0.00    +0.054 A 
ATOM      4  C   LIG    1      -30.103  76.056  32.825  0.00  0.00    +0.134 A 
ATOM      5  N   LIG    1      -31.226  75.326  33.010  0.00  0.00    -0.261 NA
ATOM      6  C   LIG    1      -31.908  74.941  31.904  0.00  0.00    +0.122 A 
ENDROOT
BRANCH   3   7
ATOM      7  N   LIG    1      -28.389  77.075  31.346  0.00  0.00    -0.268 N 
ATOM      8  H   LIG    1      -28.497  78.043  31.021  0.00  0.00    +0.156 HD
ATOM      9  C   LIG    1      -27.139  76.529  31.438  0.00  0.00    +0.309 C 
ATOM     10  N   LIG    1      -26.174  77.569  31.180  0.00  0.00    -0.254 N 
ATOM     11  H   LIG    1      -26.508  78.523  31.067  0.00  0.00    +0.158 HD
ATOM     12  O   LIG    1      -26.808  75.389  31.723  0.00  0.00    -0.252 OA
BRANCH  10  13
ATOM     13  C   LIG    1      -24.787  77.392  31.230  0.00  0.00    +0.130 A 
ATOM     14  N   LIG    1      -23.918  77.695  32.288  0.00  0.00    -0.215 N 
ATOM     15  N   LIG    1      -22.682  77.158  32.079  0.00  0.00    -0.169 NA
ATOM     16  C   LIG    1      -22.728  76.697  30.829  0.00  0.00    +0.068 A 
ATOM     17  C   LIG    1      -24.006  76.806  30.262  0.00  0.00    +0.069 A 
BRANCH  14  18
ATOM     18  C   LIG    1      -24.240  78.403  33.478  0.00  0.00    +0.105 A 
ATOM     19  C   LIG    1      -23.623  79.534  33.972  0.00  0.00    +0.135 A 
ATOM     20  N   LIG    1      -24.256  79.821  35.151  0.00  0.00    -0.272 N 
ATOM     21  C   LIG    1      -23.928  80.881  36.078  0.00  0.00    +0.172 C 
ATOM     22  N   LIG    1      -25.266  78.972  35.428  0.00  0.00    -0.178 NA
ATOM     23  C   LIG    1      -25.278  78.137  34.388  0.00  0.00    +0.162 A 
ENDBRANCH  14  18
BRANCH  16  24
ATOM     24  C   LIG    1      -21.530  76.072  30.125  0.00  0.00    +0.040 C 
ATOM     25  C   LIG    1      -20.141  76.263  30.713  0.00  0.00    +0.010 C 
ATOM     26  C   LIG    1      -20.513  76.994  29.470  0.00  0.00    +0.010 C 
ENDBRANCH  16  24
ENDBRANCH  10  13
ENDBRANCH   3   7
BRANCH   1  27
ATOM     27  C   LIG    1      -32.419  74.920  29.420  0.00  0.00    +0.197 C 
ATOM     28  O   LIG    1      -32.708  75.800  28.612  0.00  0.00    -0.287 OA
BRANCH  27  36
ATOM     29  N   LIG    1      -34.255  71.791  28.754  0.00  0.00    -0.329 N 
ATOM     30  C   LIG    1      -33.046  71.252  29.099  0.00  0.00    +0.145 A 
ATOM     31  N   LIG    1      -32.753  69.941  29.061  0.00  0.00    -0.218 NA
ATOM     32  C   LIG    1      -31.502  69.692  29.469  0.00  0.00    +0.223 A 
ATOM     33  N   LIG    1      -30.596  70.581  29.918  0.00  0.00    -0.243 NA
ATOM     34  C   LIG    1      -30.940  71.895  29.938  0.00  0.00    +0.124 A 
ATOM     35  C   LIG    1      -32.203  72.293  29.488  0.00  0.00    +0.048 A 
ATOM     36  C   LIG    1      -32.910  73.536  29.266  0.00  0.00    +0.051 A 
ATOM     37  C   LIG    1      -34.156  73.156  28.790  0.00  0.00    +0.100 A 
BRANCH  29  39
ATOM     38  C   LIG    1      -36.736  71.701  28.797  0.00  0.00    +0.030 C 
ATOM     39  C   LIG    1      -35.436  71.034  28.339  0.00  0.00    +0.083 C 
ATOM     40  C   LIG    1      -35.470  70.777  26.829  0.00  0.00    +0.030 C 
ENDBRANCH  29  39
ENDBRANCH  27  36
ENDBRANCH   1  27
TORSDOF 7
ENDMDL
MODEL 6
REMARK VINA RESULT:      -6.3      1.886      3.083
REMARK  Name = pdb/CHEMBL3671460.pdb
REMARK                            x       y       z     vdW  Elec       q    Type
REMARK                         _______ _______ _______ _____ _____    ______ ____
ROOT
ATOM      1  C   LIG    1      -39.837  73.731  24.356  0.00  0.00    +0.042 A 
ATOM      2  C   LIG    1      -38.573  74.231  24.714  0.00  0.00    +0.038 A 
ATOM      3  C   LIG    1      -38.316  75.612  24.702  0.00  0.00    +0.054 A 
ATOM      4  C   LIG    1      -39.332  76.451  24.244  0.00  0.00    +0.134 A 
ATOM      5  N   LIG    1      -40.563  76.004  23.907  0.00  0.00    -0.261 NA
ATOM      6  C   LIG    1      -40.796  74.674  24.021  0.00  0.00    +0.122 A 
ENDROOT
BRANCH   3   7
ATOM      7  N   LIG    1      -37.060  76.078  25.174  0.00  0.00    -0.268 N 
ATOM      8  H   LIG    1      -36.470  76.475  24.433  0.00  0.00    +0.156 HD
ATOM      9  C   LIG    1      -36.566  75.961  26.442  0.00  0.00    +0.309 C 
ATOM     10  N   LIG    1      -35.279  76.612  26.484  0.00  0.00    -0.254 N 
ATOM     11  H   LIG    1      -34.966  77.121  25.661  0.00  0.00    +0.158 HD
ATOM     12  O   LIG    1      -37.071  75.452  27.430  0.00  0.00    -0.252 OA
BRANCH  10  13
ATOM     13  C   LIG    1      -34.490  76.733  27.633  0.00  0.00    +0.130 A 
ATOM     14  N   LIG    1      -34.379  77.838  28.490  0.00  0.00    -0.215 N 
ATOM     15  N   LIG    1      -33.719  77.508  29.636  0.00  0.00    -0.169 NA
ATOM     16  C   LIG    1      -33.261  76.276  29.413  0.00  0.00    +0.068 A 
ATOM     17  C   LIG    1      -33.717  75.745  28.196  0.00  0.00    +0.069 A 
BRANCH  14  18
ATOM     18  C   LIG    1      -34.919  79.136  28.279  0.00  0.00    +0.105 A 
ATOM     19  C   LIG    1      -36.159  79.601  28.666  0.00  0.00    +0.135 A 
ATOM     20  N   LIG    1      -36.237  80.889  28.211  0.00  0.00    -0.272 N 
ATOM     21  C   LIG    1      -37.369  81.780  28.312  0.00  0.00    +0.172 C 
ATOM     22  N   LIG    1      -35.111  81.296  27.590  0.00  0.00    -0.178 NA
ATOM     23  C   LIG    1      -34.299  80.242  27.670  0.00  0.00    +0.162 A 
ENDBRANCH  14  18
BRANCH  16  24
ATOM     24  C   LIG    1      -32.386  75.517  30.403  0.00  0.00    +0.040 C 
ATOM     25  C   LIG    1      -30.938  75.941  30.588  0.00  0.00    +0.010 C 
ATOM     26  C   LIG    1      -31.240  74.677  29.860  0.00  0.00    +0.010 C 
ENDBRANCH  16  24
ENDBRANCH  10  13
ENDBRANCH   3   7
BRANCH   1  27
ATOM     27  C   LIG    1      -40.130  72.258  24.414  0.00  0.00    +0.197 C 
ATOM     28  O   LIG    1      -41.281  71.927  24.693  0.00  0.00    -0.287 OA
BRANCH  27  36
ATOM     29  N   LIG    1      -37.825  69.621  23.256  0.00  0.00    -0.329 N 
ATOM     30  C   LIG    1      -37.122  70.044  24.351  0.00  0.00    +0.145 A 
ATOM     31  N   LIG    1      -35.909  69.587  24.706  0.00  0.00    -0.218 NA
ATOM     32  C   LIG    1      -35.463  70.162  25.830  0.00  0.00    +0.223 A 
ATOM     33  N   LIG    1      -36.103  71.066  26.596  0.00  0.00    -0.243 NA
ATOM     34  C   LIG    1      -37.328  71.496  26.195  0.00  0.00    +0.124 A 
ATOM     35  C   LIG    1      -37.884  71.009  25.008  0.00  0.00    +0.048 A 
ATOM     36  C   LIG    1      -39.065  71.256  24.208  0.00  0.00    +0.051 A 
ATOM     37  C   LIG    1      -38.953  70.388  23.132  0.00  0.00    +0.100 A 
BRANCH  29  39
ATOM     38  C   LIG    1      -37.922  67.194  22.740  0.00  0.00    +0.030 C 
ATOM     39  C   LIG    1      -37.402  68.573  22.326  0.00  0.00    +0.083 C 
ATOM     40  C   LIG    1      -37.793  68.880  20.877  0.00  0.00    +0.030 C 
ENDBRANCH  29  39
ENDBRANCH  27  36
ENDBRANCH   1  27
TORSDOF 7
ENDMDL
MODEL 7
REMARK VINA RESULT:      -6.3      3.973      9.116
REMARK  Name = pdb/CHEMBL3671460.pdb
REMARK                            x       y       z     vdW  Elec       q    Type
REMARK                         _______ _______ _______ _____ _____    ______ ____
ROOT
ATOM      1  C   LIG    1      -38.599  75.928  25.105  0.00  0.00    +0.042 A 
ATOM      2  C   LIG    1      -38.412  77.185  24.505  0.00  0.00    +0.038 A 
ATOM      3  C   LIG    1      -39.373  77.714  23.626  0.00  0.00    +0.054 A 
ATOM      4  C   LIG    1      -40.469  76.910  23.315  0.00  0.00    +0.134 A 
ATOM      5  N   LIG    1      -40.687  75.703  23.886  0.00  0.00    -0.261 NA
ATOM      6  C   LIG    1      -39.780  75.273  24.797  0.00  0.00    +0.122 A 
ENDROOT
BRANCH   3   7
ATOM      7  N   LIG    1      -39.192  79.031  23.129  0.00  0.00    -0.268 N 
ATOM      8  H   LIG    1      -38.528  79.082  22.348  0.00  0.00    +0.156 HD
ATOM      9  C   LIG    1      -39.729  80.181  23.635  0.00  0.00    +0.309 C 
ATOM     10  N   LIG    1      -39.320  81.277  22.792  0.00  0.00    -0.254 N 
ATOM     11  H   LIG    1      -38.807  81.067  21.939  0.00  0.00    +0.158 HD
ATOM     12  O   LIG    1      -40.465  80.338  24.597  0.00  0.00    -0.252 OA
BRANCH  10  13
ATOM     13  C   LIG    1      -39.715  82.607  22.975  0.00  0.00    +0.130 A 
ATOM     14  N   LIG    1      -39.104  83.585  23.773  0.00  0.00    -0.215 N 
ATOM     15  N   LIG    1      -39.612  84.822  23.511  0.00  0.00    -0.169 NA
ATOM     16  C   LIG    1      -40.650  84.592  22.707  0.00  0.00    +0.068 A 
ATOM     17  C   LIG    1      -40.753  83.242  22.336  0.00  0.00    +0.069 A 
BRANCH  14  18
ATOM     18  C   LIG    1      -38.045  83.387  24.701  0.00  0.00    +0.105 A 
ATOM     19  C   LIG    1      -38.078  82.644  25.864  0.00  0.00    +0.135 A 
ATOM     20  N   LIG    1      -36.841  82.782  26.432  0.00  0.00    -0.272 N 
ATOM     21  C   LIG    1      -36.401  82.243  27.698  0.00  0.00    +0.172 C 
ATOM     22  N   LIG    1      -36.001  83.533  25.690  0.00  0.00    -0.178 NA
ATOM     23  C   LIG    1      -36.725  83.864  24.620  0.00  0.00    +0.162 A 
ENDBRANCH  14  18
BRANCH  16  24
ATOM     24  C   LIG    1      -41.582  85.689  22.209  0.00  0.00    +0.040 C 
ATOM     25  C   LIG    1      -42.307  85.502  20.886  0.00  0.00    +0.010 C 
ATOM     26  C   LIG    1      -41.180  86.472  20.968  0.00  0.00    +0.010 C 
ENDBRANCH  16  24
ENDBRANCH  10  13
ENDBRANCH   3   7
BRANCH   1  27
ATOM     27  C   LIG    1      -37.596  75.381  26.082  0.00  0.00    +0.197 C 
ATOM     28  O   LIG    1      -37.480  74.158  26.140  0.00  0.00    -0.287 OA
BRANCH  27  36
ATOM     29  N   LIG    1      -35.098  77.368  27.931  0.00  0.00    -0.329 N 
ATOM     30  C   LIG    1      -36.233  77.910  28.469  0.00  0.00    +0.145 A 
ATOM     31  N   LIG    1      -36.254  78.933  29.341  0.00  0.00    -0.218 NA
ATOM     32  C   LIG    1      -37.500  79.248  29.717  0.00  0.00    +0.223 A 
ATOM     33  N   LIG    1      -38.644  78.641  29.349  0.00  0.00    -0.243 NA
ATOM     34  C   LIG    1      -38.570  77.610  28.466  0.00  0.00    +0.124 A 
ATOM     35  C   LIG    1      -37.329  77.216  27.957  0.00  0.00    +0.048 A 
ATOM     36  C   LIG    1      -36.833  76.273  26.977  0.00  0.00    +0.051 A 
ATOM     37  C   LIG    1      -35.456  76.436  26.992  0.00  0.00    +0.100 A 
BRANCH  29  39
ATOM     38  C   LIG    1      -32.744  76.605  28.135  0.00  0.00    +0.030 C 
ATOM     39  C   LIG    1      -33.728  77.772  28.250  0.00  0.00    +0.083 C 
ATOM     40  C   LIG    1      -33.253  78.958  27.404  0.00  0.00    +0.030 C 
ENDBRANCH  29  39
ENDBRANCH  27  36
ENDBRANCH   1  27
TORSDOF 7
ENDMDL
MODEL 8
REMARK VINA RESULT:      -6.3     16.658     19.541
REMARK  Name = pdb/CHEMBL3671460.pdb
REMARK                            x       y       z     vdW  Elec       q    Type
REMARK                         _______ _______ _______ _____ _____    ______ ____
ROOT
ATOM      1  C   LIG    1      -29.016  78.239  10.525  0.00  0.00    +0.042 A 
ATOM      2  C   LIG    1      -29.878  79.304  10.842  0.00  0.00    +0.038 A 
ATOM      3  C   LIG    1      -31.257  79.090  11.006  0.00  0.00    +0.054 A 
ATOM      4  C   LIG    1      -31.740  77.805  10.762  0.00  0.00    +0.134 A 
ATOM      5  N   LIG    1      -30.938  76.756  10.472  0.00  0.00    -0.261 NA
ATOM      6  C   LIG    1      -29.604  76.990  10.412  0.00  0.00    +0.122 A 
ENDROOT
BRANCH   3   7
ATOM      7  N   LIG    1      -32.070  80.173  11.430  0.00  0.00    -0.268 N 
ATOM      8  H   LIG    1      -32.233  80.186  12.444  0.00  0.00    +0.156 HD
ATOM      9  C   LIG    1      -32.693  81.093  10.635  0.00  0.00    +0.309 C 
ATOM     10  N   LIG    1      -33.374  82.037  11.487  0.00  0.00    -0.254 N 
ATOM     11  H   LIG    1      -33.238  81.968  12.492  0.00  0.00    +0.158 HD
ATOM     12  O   LIG    1      -32.693  81.196   9.418  0.00  0.00    -0.252 OA
BRANCH  10  13
ATOM     13  C   LIG    1      -34.087  83.149  11.026  0.00  0.00    +0.130 A 
ATOM     14  N   LIG    1      -33.580  84.398  10.639  0.00  0.00    -0.215 N 
ATOM     15  N   LIG    1      -34.532  85.144  10.011  0.00  0.00    -0.169 NA
ATOM     16  C   LIG    1      -35.659  84.450  10.175  0.00  0.00    +0.068 A 
ATOM     17  C   LIG    1      -35.440  83.205  10.785  0.00  0.00    +0.069 A 
BRANCH  14  18
ATOM     18  C   LIG    1      -32.243  84.858  10.793  0.00  0.00    +0.105 A 
ATOM     19  C   LIG    1      -31.159  84.567   9.990  0.00  0.00    +0.135 A 
ATOM     20  N   LIG    1      -30.090  85.206  10.557  0.00  0.00    -0.272 N 
ATOM     21  C   LIG    1      -28.715  85.154  10.118  0.00  0.00    +0.172 C 
ATOM     22  N   LIG    1      -30.423  85.922  11.650  0.00  0.00    -0.178 NA
ATOM     23  C   LIG    1      -31.739  85.740  11.765  0.00  0.00    +0.162 A 
ENDBRANCH  14  18
BRANCH  16  24
ATOM     24  C   LIG    1      -37.020  84.940   9.698  0.00  0.00    +0.040 C 
ATOM     25  C   LIG    1      -37.313  86.432   9.702  0.00  0.00    +0.010 C 
ATOM     26  C   LIG    1      -37.964  85.559  10.717  0.00  0.00    +0.010 C 
ENDBRANCH  16  24
ENDBRANCH  10  13
ENDBRANCH   3   7
BRANCH   1  27
ATOM     27  C   LIG    1      -27.534  78.456  10.395  0.00  0.00    +0.197 C 
ATOM     28  O   LIG    1      -26.973  77.926   9.439  0.00  0.00    -0.287 OA
BRANCH  27  36
ATOM     29  N   LIG    1      -25.641  80.897  12.411  0.00  0.00    -0.329 N 
ATOM     30  C   LIG    1      -25.856  79.953  13.377  0.00  0.00    +0.145 A 
ATOM     31  N   LIG    1      -25.496  80.081  14.666  0.00  0.00    -0.218 NA
ATOM     32  C   LIG    1      -25.812  78.998  15.387  0.00  0.00    +0.223 A 
ATOM     33  N   LIG    1      -26.385  77.861  14.948  0.00  0.00    -0.243 NA
ATOM     34  C   LIG    1      -26.730  77.781  13.636  0.00  0.00    +0.124 A 
ATOM     35  C   LIG    1      -26.500  78.867  12.786  0.00  0.00    +0.048 A 
ATOM     36  C   LIG    1      -26.780  79.218  11.410  0.00  0.00    +0.051 A 
ATOM     37  C   LIG    1      -26.249  80.490  11.253  0.00  0.00    +0.100 A 
BRANCH  29  39
ATOM     38  C   LIG    1      -23.442  82.048  12.328  0.00  0.00    +0.030 C 
ATOM     39  C   LIG    1      -24.943  82.169  12.604  0.00  0.00    +0.083 C 
ATOM     40  C   LIG    1      -25.550  83.305  11.774  0.00  0.00    +0.030 C 
ENDBRANCH  29  39
ENDBRANCH  27  36
ENDBRANCH   1  27
TORSDOF 7
ENDMDL
MODEL 9
REMARK VINA RESULT:      -6.2     16.512     19.994
REMARK  Name = pdb/CHEMBL3671460.pdb
REMARK                            x       y       z     vdW  Elec       q    Type
REMARK                         _______ _______ _______ _____ _____    ______ ____
ROOT
ATOM      1  C   LIG    1      -26.157  78.148  13.623  0.00  0.00    +0.042 A 
ATOM      2  C   LIG    1      -27.535  78.170  13.345  0.00  0.00    +0.038 A 
ATOM      3  C   LIG    1      -28.067  77.431  12.275  0.00  0.00    +0.054 A 
ATOM      4  C   LIG    1      -27.167  76.748  11.458  0.00  0.00    +0.134 A 
ATOM      5  N   LIG    1      -25.839  76.692  11.705  0.00  0.00    -0.261 NA
ATOM      6  C   LIG    1      -25.382  77.345  12.801  0.00  0.00    +0.122 A 
ENDROOT
BRANCH   3   7
ATOM      7  N   LIG    1      -29.475  77.400  12.099  0.00  0.00    -0.268 N 
ATOM      8  H   LIG    1      -29.987  77.179  12.961  0.00  0.00    +0.156 HD
ATOM      9  C   LIG    1      -30.159  77.540  10.925  0.00  0.00    +0.309 C 
ATOM     10  N   LIG    1      -31.570  77.488  11.218  0.00  0.00    -0.254 N 
ATOM     11  H   LIG    1      -31.863  77.455  12.191  0.00  0.00    +0.158 HD
ATOM     12  O   LIG    1      -29.735  77.722   9.794  0.00  0.00    -0.252 OA
BRANCH  10  13
ATOM     13  C   LIG    1      -32.583  77.640  10.265  0.00  0.00    +0.130 A 
ATOM     14  N   LIG    1      -33.047  78.829   9.683  0.00  0.00    -0.215 N 
ATOM     15  N   LIG    1      -33.860  78.572   8.619  0.00  0.00    -0.169 NA
ATOM     16  C   LIG    1      -34.051  77.254   8.657  0.00  0.00    +0.068 A 
ATOM     17  C   LIG    1      -33.278  76.627   9.647  0.00  0.00    +0.069 A 
BRANCH  14  18
ATOM     18  C   LIG    1      -32.700  80.154  10.063  0.00  0.00    +0.105 A 
ATOM     19  C   LIG    1      -33.507  81.088  10.681  0.00  0.00    +0.135 A 
ATOM     20  N   LIG    1      -32.745  82.217  10.808  0.00  0.00    -0.272 N 
ATOM     21  C   LIG    1      -33.165  83.494  11.338  0.00  0.00    +0.172 C 
ATOM     22  N   LIG    1      -31.487  82.059  10.347  0.00  0.00    -0.178 NA
ATOM     23  C   LIG    1      -31.454  80.792   9.933  0.00  0.00    +0.162 A 
ENDBRANCH  14  18
BRANCH  16  24
ATOM     24  C   LIG    1      -34.968  76.514   7.692  0.00  0.00    +0.040 C 
ATOM     25  C   LIG    1      -36.148  77.250   7.077  0.00  0.00    +0.010 C 
ATOM     26  C   LIG    1      -36.396  76.225   8.128  0.00  0.00    +0.010 C 
ENDBRANCH  16  24
ENDBRANCH  10  13
ENDBRANCH   3   7
BRANCH   1  27
ATOM     27  C   LIG    1      -25.592  78.898  14.796  0.00  0.00    +0.197 C 
ATOM     28  O   LIG    1      -25.850  78.462  15.916  0.00  0.00    -0.287 OA
BRANCH  27  36
ATOM     29  N   LIG    1      -23.292  81.778  14.940  0.00  0.00    -0.329 N 
ATOM     30  C   LIG    1      -23.868  82.034  13.726  0.00  0.00    +0.145 A 
ATOM     31  N   LIG    1      -23.512  83.037  12.906  0.00  0.00    -0.218 NA
ATOM     32  C   LIG    1      -24.253  83.064  11.791  0.00  0.00    +0.223 A 
ATOM     33  N   LIG    1      -25.276  82.250  11.469  0.00  0.00    -0.243 NA
ATOM     34  C   LIG    1      -25.598  81.250  12.332  0.00  0.00    +0.124 A 
ATOM     35  C   LIG    1      -24.865  81.083  13.510  0.00  0.00    +0.048 A 
ATOM     36  C   LIG    1      -24.817  80.141  14.609  0.00  0.00    +0.051 A 
ATOM     37  C   LIG    1      -23.811  80.613  15.438  0.00  0.00    +0.100 A 
BRANCH  29  39
ATOM     38  C   LIG    1      -22.513  82.823  17.054  0.00  0.00    +0.030 C 
ATOM     39  C   LIG    1      -22.239  82.578  15.568  0.00  0.00    +0.083 C 
ATOM     40  C   LIG    1      -20.846  81.971  15.373  0.00  0.00    +0.030 C 
ENDBRANCH  29  39
ENDBRANCH  27  36
ENDBRANCH   1  27
TORSDOF 7
ENDMDL
