MODEL 1
REMARK VINA RESULT:      -6.6      0.000      0.000
REMARK  Name = pdb/CHEMBL3961246.pdb
REMARK                            x       y       z     vdW  Elec       q    Type
REMARK                         _______ _______ _______ _____ _____    ______ ____
ROOT
ATOM      1  C   LIG    1      -35.978  79.364  27.952  0.00  0.00    +0.149 A 
ATOM      2  N   LIG    1      -35.048  78.443  28.243  0.00  0.00    -0.160 NA
ATOM      3  N   LIG    1      -35.621  77.232  27.967  0.00  0.00    -0.218 N 
ATOM      4  C   LIG    1      -36.884  77.416  27.367  0.00  0.00    +0.129 A 
ATOM      5  C   LIG    1      -37.131  78.770  27.430  0.00  0.00    +0.078 A 
ENDROOT
BRANCH   3   6
ATOM      6  C   LIG    1      -34.844  76.054  28.229  0.00  0.00    +0.067 A 
ATOM      7  C   LIG    1      -35.278  74.760  27.931  0.00  0.00    +0.028 A 
ATOM      8  C   LIG    1      -34.455  73.653  28.181  0.00  0.00    +0.002 A 
ATOM      9  C   LIG    1      -33.191  73.819  28.735  0.00  0.00    +0.000 A 
ATOM     10  C   LIG    1      -32.745  75.094  29.053  0.00  0.00    +0.002 A 
ATOM     11  C   LIG    1      -33.562  76.203  28.805  0.00  0.00    +0.028 A 
ENDBRANCH   3   6
BRANCH   4  12
ATOM     12  N   LIG    1      -37.761  76.480  26.798  0.00  0.00    -0.266 N 
ATOM     13  H   LIG    1      -38.424  76.002  27.369  0.00  0.00    +0.157 HD
ATOM     14  C   LIG    1      -37.710  76.140  25.395  0.00  0.00    +0.251 C 
ATOM     15  O   LIG    1      -36.905  76.662  24.657  0.00  0.00    -0.270 OA
BRANCH  14  16
ATOM     16  C   LIG    1      -38.571  75.050  24.886  0.00  0.00    +0.056 A 
ATOM     17  C   LIG    1      -39.855  75.207  24.387  0.00  0.00    +0.054 A 
ATOM     18 CL   LIG    1      -40.633  76.743  24.250  0.00  0.00    -0.083 Cl
ATOM     19  C   LIG    1      -40.564  74.085  23.957  0.00  0.00    +0.041 A 
ATOM     20  C   LIG    1      -40.004  72.794  24.030  0.00  0.00    +0.052 A 
ATOM     21 CL   LIG    1      -41.060  71.510  23.554  0.00  0.00    -0.083 Cl
ATOM     22  C   LIG    1      -38.698  72.593  24.512  0.00  0.00    +0.019 A 
ATOM     23  C   LIG    1      -38.007  73.759  24.926  0.00  0.00    +0.026 A 
BRANCH  22  24
ATOM     24  C   LIG    1      -37.998  71.290  24.665  0.00  0.00    +0.072 A 
ATOM     25  N   LIG    1      -37.297  71.168  25.827  0.00  0.00    -0.255 NA
ATOM     26  C   LIG    1      -36.595  70.030  26.044  0.00  0.00    +0.111 A 
ATOM     27  C   LIG    1      -36.560  68.972  25.159  0.00  0.00    +0.020 A 
ATOM     28  C   LIG    1      -37.268  69.098  23.975  0.00  0.00    +0.004 A 
ATOM     29  C   LIG    1      -37.977  70.273  23.714  0.00  0.00    +0.028 A 
ENDBRANCH  22  24
ENDBRANCH  14  16
ENDBRANCH   4  12
BRANCH   1  31
ATOM     30  N   LIG    1      -36.338  81.528  28.951  0.00  0.00    -0.238 NA
ATOM     31  C   LIG    1      -35.679  80.777  28.130  0.00  0.00    +0.237 C 
BRANCH  30  33
ATOM     32  C   LIG    1      -36.203  83.768  27.818  0.00  0.00    +0.041 C 
ATOM     33  C   LIG    1      -35.881  82.932  29.047  0.00  0.00    +0.109 C 
ATOM     34  C   LIG    1      -36.323  83.597  30.374  0.00  0.00    +0.192 C 
ATOM     35  O   LIG    1      -34.954  83.967  30.689  0.00  0.00    -0.375 OA
ATOM     36  C   LIG    1      -34.466  83.080  29.649  0.00  0.00    +0.192 C 
ENDBRANCH  30  33
BRANCH  31  37
ATOM     37  O   LIG    1      -34.664  81.218  27.353  0.00  0.00    -0.491 OA
ATOM     38  H   LIG    1      -34.605  82.190  27.430  0.00  0.00    +0.294 HD
ENDBRANCH  31  37
ENDBRANCH   1  31
TORSDOF 7
ENDMDL
MODEL 2
REMARK VINA RESULT:      -6.6      6.136     10.517
REMARK  Name = pdb/CHEMBL3961246.pdb
REMARK                            x       y       z     vdW  Elec       q    Type
REMARK                         _______ _______ _______ _____ _____    ______ ____
ROOT
ATOM      1  C   LIG    1      -31.255  87.082  30.831  0.00  0.00    +0.149 A 
ATOM      2  N   LIG    1      -32.121  87.936  30.269  0.00  0.00    -0.160 NA
ATOM      3  N   LIG    1      -32.941  87.175  29.483  0.00  0.00    -0.218 N 
ATOM      4  C   LIG    1      -32.660  85.805  29.668  0.00  0.00    +0.129 A 
ATOM      5  C   LIG    1      -31.540  85.761  30.469  0.00  0.00    +0.078 A 
ENDROOT
BRANCH   3   6
ATOM      6  C   LIG    1      -33.953  87.854  28.724  0.00  0.00    +0.067 A 
ATOM      7  C   LIG    1      -35.150  87.255  28.322  0.00  0.00    +0.028 A 
ATOM      8  C   LIG    1      -36.113  87.985  27.612  0.00  0.00    +0.002 A 
ATOM      9  C   LIG    1      -35.897  89.320  27.289  0.00  0.00    +0.000 A 
ATOM     10  C   LIG    1      -34.708  89.931  27.666  0.00  0.00    +0.002 A 
ATOM     11  C   LIG    1      -33.744  89.207  28.375  0.00  0.00    +0.028 A 
ENDBRANCH   3   6
BRANCH   4  12
ATOM     12  N   LIG    1      -33.327  84.669  29.184  0.00  0.00    -0.266 N 
ATOM     13  H   LIG    1      -33.086  84.286  28.295  0.00  0.00    +0.157 HD
ATOM     14  C   LIG    1      -34.407  84.048  29.916  0.00  0.00    +0.251 C 
ATOM     15  O   LIG    1      -34.768  84.487  30.984  0.00  0.00    -0.270 OA
BRANCH  14  16
ATOM     16  C   LIG    1      -35.156  82.938  29.289  0.00  0.00    +0.056 A 
ATOM     17  C   LIG    1      -36.526  82.917  29.067  0.00  0.00    +0.054 A 
ATOM     18 CL   LIG    1      -37.566  84.236  29.469  0.00  0.00    -0.083 Cl
ATOM     19  C   LIG    1      -37.107  81.793  28.480  0.00  0.00    +0.041 A 
ATOM     20  C   LIG    1      -36.331  80.674  28.119  0.00  0.00    +0.052 A 
ATOM     21 CL   LIG    1      -37.229  79.330  27.503  0.00  0.00    -0.083 Cl
ATOM     22  C   LIG    1      -34.937  80.661  28.308  0.00  0.00    +0.019 A 
ATOM     23  C   LIG    1      -34.384  81.827  28.894  0.00  0.00    +0.026 A 
BRANCH  22  24
ATOM     24  C   LIG    1      -34.008  79.543  27.996  0.00  0.00    +0.072 A 
ATOM     25  N   LIG    1      -33.316  79.702  26.833  0.00  0.00    -0.255 NA
ATOM     26  C   LIG    1      -32.469  78.720  26.444  0.00  0.00    +0.111 A 
ATOM     27  C   LIG    1      -32.251  77.565  27.167  0.00  0.00    +0.020 A 
ATOM     28  C   LIG    1      -32.960  77.400  28.347  0.00  0.00    +0.004 A 
ATOM     29  C   LIG    1      -33.860  78.386  28.757  0.00  0.00    +0.028 A 
ENDBRANCH  22  24
ENDBRANCH  14  16
ENDBRANCH   4  12
BRANCH   1  31
ATOM     30  N   LIG    1      -30.453  87.729  33.010  0.00  0.00    -0.238 NA
ATOM     31  C   LIG    1      -30.236  87.578  31.744  0.00  0.00    +0.237 C 
BRANCH  30  33
ATOM     32  C   LIG    1      -29.011  89.685  33.652  0.00  0.00    +0.041 C 
ATOM     33  C   LIG    1      -29.299  88.200  33.808  0.00  0.00    +0.109 C 
ATOM     34  C   LIG    1      -29.391  87.746  35.286  0.00  0.00    +0.192 C 
ATOM     35  O   LIG    1      -28.075  87.134  35.220  0.00  0.00    -0.375 OA
ATOM     36  C   LIG    1      -28.090  87.240  33.773  0.00  0.00    +0.192 C 
ENDBRANCH  30  33
BRANCH  31  37
ATOM     37  O   LIG    1      -29.061  87.868  31.139  0.00  0.00    -0.491 OA
ATOM     38  H   LIG    1      -29.124  88.757  30.738  0.00  0.00    +0.294 HD
ENDBRANCH  31  37
ENDBRANCH   1  31
TORSDOF 7
ENDMDL
MODEL 3
REMARK VINA RESULT:      -6.5      2.312      4.344
REMARK  Name = pdb/CHEMBL3961246.pdb
REMARK                            x       y       z     vdW  Elec       q    Type
REMARK                         _______ _______ _______ _____ _____    ______ ____
ROOT
ATOM      1  C   LIG    1      -36.377  79.650  27.701  0.00  0.00    +0.149 A 
ATOM      2  N   LIG    1      -35.545  78.621  27.911  0.00  0.00    -0.160 NA
ATOM      3  N   LIG    1      -36.245  77.497  27.569  0.00  0.00    -0.218 N 
ATOM      4  C   LIG    1      -37.490  77.850  27.009  0.00  0.00    +0.129 A 
ATOM      5  C   LIG    1      -37.594  79.215  27.165  0.00  0.00    +0.078 A 
ENDROOT
BRANCH   3   6
ATOM      6  C   LIG    1      -35.591  76.229  27.736  0.00  0.00    +0.067 A 
ATOM      7  C   LIG    1      -34.213  76.048  27.602  0.00  0.00    +0.028 A 
ATOM      8  C   LIG    1      -33.632  74.789  27.812  0.00  0.00    +0.002 A 
ATOM      9  C   LIG    1      -34.417  73.694  28.156  0.00  0.00    +0.000 A 
ATOM     10  C   LIG    1      -35.791  73.849  28.281  0.00  0.00    +0.002 A 
ATOM     11  C   LIG    1      -36.375  75.103  28.072  0.00  0.00    +0.028 A 
ENDBRANCH   3   6
BRANCH   4  12
ATOM     12  N   LIG    1      -38.469  77.050  26.399  0.00  0.00    -0.266 N 
ATOM     13  H   LIG    1      -39.306  76.820  26.889  0.00  0.00    +0.157 HD
ATOM     14  C   LIG    1      -38.286  76.496  25.077  0.00  0.00    +0.251 C 
ATOM     15  O   LIG    1      -37.277  76.711  24.445  0.00  0.00    -0.270 OA
BRANCH  14  16
ATOM     16  C   LIG    1      -39.295  75.553  24.547  0.00  0.00    +0.056 A 
ATOM     17  C   LIG    1      -39.169  74.171  24.524  0.00  0.00    +0.054 A 
ATOM     18 CL   LIG    1      -37.799  73.338  25.164  0.00  0.00    -0.083 Cl
ATOM     19  C   LIG    1      -40.194  73.400  23.975  0.00  0.00    +0.041 A 
ATOM     20  C   LIG    1      -41.350  73.998  23.434  0.00  0.00    +0.052 A 
ATOM     21 CL   LIG    1      -42.467  72.901  22.701  0.00  0.00    -0.083 Cl
ATOM     22  C   LIG    1      -41.525  75.394  23.454  0.00  0.00    +0.019 A 
ATOM     23  C   LIG    1      -40.468  76.140  24.032  0.00  0.00    +0.026 A 
BRANCH  22  24
ATOM     24  C   LIG    1      -42.677  76.153  22.899  0.00  0.00    +0.072 A 
ATOM     25  N   LIG    1      -42.820  77.405  23.416  0.00  0.00    -0.255 NA
ATOM     26  C   LIG    1      -43.862  78.164  22.999  0.00  0.00    +0.111 A 
ATOM     27  C   LIG    1      -44.786  77.747  22.063  0.00  0.00    +0.020 A 
ATOM     28  C   LIG    1      -44.644  76.471  21.542  0.00  0.00    +0.004 A 
ATOM     29  C   LIG    1      -43.594  75.658  21.975  0.00  0.00    +0.028 A 
ENDBRANCH  22  24
ENDBRANCH  14  16
ENDBRANCH   4  12
BRANCH   1  31
ATOM     30  N   LIG    1      -36.488  81.763  28.856  0.00  0.00    -0.238 NA
ATOM     31  C   LIG    1      -35.931  81.009  27.965  0.00  0.00    +0.237 C 
BRANCH  30  33
ATOM     32  C   LIG    1      -36.064  84.019  27.832  0.00  0.00    +0.041 C 
ATOM     33  C   LIG    1      -35.886  83.103  29.032  0.00  0.00    +0.109 C 
ATOM     34  C   LIG    1      -36.309  83.758  30.371  0.00  0.00    +0.192 C 
ATOM     35  O   LIG    1      -34.922  83.963  30.753  0.00  0.00    -0.375 OA
ATOM     36  C   LIG    1      -34.490  83.071  29.693  0.00  0.00    +0.192 C 
ENDBRANCH  30  33
BRANCH  31  37
ATOM     37  O   LIG    1      -34.895  81.399  27.187  0.00  0.00    -0.491 OA
ATOM     38  H   LIG    1      -34.078  81.395  27.722  0.00  0.00    +0.294 HD
ENDBRANCH  31  37
ENDBRANCH   1  31
TORSDOF 7
ENDMDL
MODEL 4
REMARK VINA RESULT:      -6.5      3.735     10.346
REMARK  Name = pdb/CHEMBL3961246.pdb
REMARK                            x       y       z     vdW  Elec       q    Type
REMARK                         _______ _______ _______ _____ _____    ______ ____
ROOT
ATOM      1  C   LIG    1      -37.797  70.470  24.137  0.00  0.00    +0.149 A 
ATOM      2  N   LIG    1      -39.005  70.779  23.645  0.00  0.00    -0.160 NA
ATOM      3  N   LIG    1      -39.243  72.072  24.020  0.00  0.00    -0.218 N 
ATOM      4  C   LIG    1      -38.100  72.618  24.641  0.00  0.00    +0.129 A 
ATOM      5  C   LIG    1      -37.215  71.570  24.775  0.00  0.00    +0.078 A 
ENDROOT
BRANCH   3   6
ATOM      6  C   LIG    1      -40.504  72.651  23.650  0.00  0.00    +0.067 A 
ATOM      7  C   LIG    1      -40.823  73.996  23.845  0.00  0.00    +0.028 A 
ATOM      8  C   LIG    1      -42.061  74.506  23.430  0.00  0.00    +0.002 A 
ATOM      9  C   LIG    1      -43.000  73.682  22.819  0.00  0.00    +0.000 A 
ATOM     10  C   LIG    1      -42.709  72.338  22.629  0.00  0.00    +0.002 A 
ATOM     11  C   LIG    1      -41.475  71.824  23.041  0.00  0.00    +0.028 A 
ENDBRANCH   3   6
BRANCH   4  12
ATOM     12  N   LIG    1      -37.836  73.931  25.059  0.00  0.00    -0.266 N 
ATOM     13  H   LIG    1      -37.312  74.548  24.475  0.00  0.00    +0.157 HD
ATOM     14  C   LIG    1      -38.261  74.422  26.350  0.00  0.00    +0.251 C 
ATOM     15  O   LIG    1      -38.870  73.711  27.116  0.00  0.00    -0.270 OA
BRANCH  14  16
ATOM     16  C   LIG    1      -37.834  75.770  26.783  0.00  0.00    +0.056 A 
ATOM     17  C   LIG    1      -38.653  76.887  26.857  0.00  0.00    +0.054 A 
ATOM     18 CL   LIG    1      -40.338  76.847  26.480  0.00  0.00    -0.083 Cl
ATOM     19  C   LIG    1      -38.112  78.107  27.266  0.00  0.00    +0.041 A 
ATOM     20  C   LIG    1      -36.747  78.227  27.595  0.00  0.00    +0.052 A 
ATOM     21 CL   LIG    1      -36.226  79.831  27.977  0.00  0.00    -0.083 Cl
ATOM     22  C   LIG    1      -35.886  77.116  27.552  0.00  0.00    +0.019 A 
ATOM     23  C   LIG    1      -36.477  75.894  27.144  0.00  0.00    +0.026 A 
BRANCH  22  24
ATOM     24  C   LIG    1      -34.429  77.108  27.848  0.00  0.00    +0.072 A 
ATOM     25  N   LIG    1      -33.654  77.610  26.845  0.00  0.00    -0.255 NA
ATOM     26  C   LIG    1      -32.310  77.613  27.005  0.00  0.00    +0.111 A 
ATOM     27  C   LIG    1      -31.673  77.150  28.138  0.00  0.00    +0.020 A 
ATOM     28  C   LIG    1      -32.460  76.634  29.155  0.00  0.00    +0.004 A 
ATOM     29  C   LIG    1      -33.848  76.594  29.004  0.00  0.00    +0.028 A 
ENDBRANCH  22  24
ENDBRANCH  14  16
ENDBRANCH   4  12
BRANCH   1  31
ATOM     30  N   LIG    1      -36.755  68.789  22.759  0.00  0.00    -0.238 NA
ATOM     31  C   LIG    1      -37.235  69.148  23.905  0.00  0.00    +0.237 C 
BRANCH  30  33
ATOM     32  C   LIG    1      -37.214  66.318  22.834  0.00  0.00    +0.041 C 
ATOM     33  C   LIG    1      -36.181  67.426  22.702  0.00  0.00    +0.109 C 
ATOM     34  C   LIG    1      -35.239  67.243  21.486  0.00  0.00    +0.192 C 
ATOM     35  O   LIG    1      -34.153  66.801  22.344  0.00  0.00    -0.375 OA
ATOM     36  C   LIG    1      -34.875  67.271  23.512  0.00  0.00    +0.192 C 
ENDBRANCH  30  33
BRANCH  31  37
ATOM     37  O   LIG    1      -37.277  68.344  24.992  0.00  0.00    -0.491 OA
ATOM     38  H   LIG    1      -37.305  68.899  25.795  0.00  0.00    +0.294 HD
ENDBRANCH  31  37
ENDBRANCH   1  31
TORSDOF 7
ENDMDL
MODEL 5
REMARK VINA RESULT:      -6.5      1.611      2.107
REMARK  Name = pdb/CHEMBL3961246.pdb
REMARK                            x       y       z     vdW  Elec       q    Type
REMARK                         _______ _______ _______ _____ _____    ______ ____
ROOT
ATOM      1  C   LIG    1      -37.411  80.282  27.305  0.00  0.00    +0.149 A 
ATOM      2  N   LIG    1      -36.371  79.562  27.747  0.00  0.00    -0.160 NA
ATOM      3  N   LIG    1      -36.721  78.251  27.570  0.00  0.00    -0.218 N 
ATOM      4  C   LIG    1      -37.948  78.163  26.881  0.00  0.00    +0.129 A 
ATOM      5  C   LIG    1      -38.412  79.457  26.782  0.00  0.00    +0.078 A 
ENDROOT
BRANCH   3   6
ATOM      6  C   LIG    1      -35.788  77.249  28.003  0.00  0.00    +0.067 A 
ATOM      7  C   LIG    1      -35.011  76.488  27.126  0.00  0.00    +0.028 A 
ATOM      8  C   LIG    1      -34.092  75.549  27.615  0.00  0.00    +0.002 A 
ATOM      9  C   LIG    1      -33.937  75.352  28.983  0.00  0.00    +0.000 A 
ATOM     10  C   LIG    1      -34.710  76.088  29.871  0.00  0.00    +0.002 A 
ATOM     11  C   LIG    1      -35.627  77.027  29.389  0.00  0.00    +0.028 A 
ENDBRANCH   3   6
BRANCH   4  12
ATOM     12  N   LIG    1      -38.620  77.043  26.366  0.00  0.00    -0.266 N 
ATOM     13  H   LIG    1      -39.366  76.625  26.879  0.00  0.00    +0.157 HD
ATOM     14  C   LIG    1      -38.235  76.430  25.115  0.00  0.00    +0.251 C 
ATOM     15  O   LIG    1      -37.316  76.871  24.463  0.00  0.00    -0.270 OA
BRANCH  14  16
ATOM     16  C   LIG    1      -38.895  75.175  24.696  0.00  0.00    +0.056 A 
ATOM     17  C   LIG    1      -40.134  75.086  24.080  0.00  0.00    +0.054 A 
ATOM     18 CL   LIG    1      -41.085  76.467  23.670  0.00  0.00    -0.083 Cl
ATOM     19  C   LIG    1      -40.648  73.830  23.754  0.00  0.00    +0.041 A 
ATOM     20  C   LIG    1      -39.936  72.650  24.049  0.00  0.00    +0.052 A 
ATOM     21 CL   LIG    1      -40.767  71.181  23.673  0.00  0.00    -0.083 Cl
ATOM     22  C   LIG    1      -38.668  72.697  24.656  0.00  0.00    +0.019 A 
ATOM     23  C   LIG    1      -38.176  73.991  24.959  0.00  0.00    +0.026 A 
BRANCH  22  24
ATOM     24  C   LIG    1      -37.824  71.535  25.043  0.00  0.00    +0.072 A 
ATOM     25  N   LIG    1      -37.424  71.546  26.345  0.00  0.00    -0.255 NA
ATOM     26  C   LIG    1      -36.622  70.548  26.786  0.00  0.00    +0.111 A 
ATOM     27  C   LIG    1      -36.195  69.503  25.992  0.00  0.00    +0.020 A 
ATOM     28  C   LIG    1      -36.597  69.494  24.666  0.00  0.00    +0.004 A 
ATOM     29  C   LIG    1      -37.402  70.527  24.180  0.00  0.00    +0.028 A 
ENDBRANCH  22  24
ENDBRANCH  14  16
ENDBRANCH   4  12
BRANCH   1  31
ATOM     30  N   LIG    1      -36.423  82.412  26.761  0.00  0.00    -0.238 NA
ATOM     31  C   LIG    1      -37.356  81.735  27.346  0.00  0.00    +0.237 C 
BRANCH  30  33
ATOM     32  C   LIG    1      -36.149  84.439  28.222  0.00  0.00    +0.041 C 
ATOM     33  C   LIG    1      -36.537  83.884  26.861  0.00  0.00    +0.109 C 
ATOM     34  C   LIG    1      -35.832  84.602  25.683  0.00  0.00    +0.192 C 
ATOM     35  O   LIG    1      -37.045  85.330  25.351  0.00  0.00    -0.375 OA
ATOM     36  C   LIG    1      -37.817  84.450  26.208  0.00  0.00    +0.192 C 
ENDBRANCH  30  33
BRANCH  31  37
ATOM     37  O   LIG    1      -38.362  82.295  28.057  0.00  0.00    -0.491 OA
ATOM     38  H   LIG    1      -38.997  81.597  28.310  0.00  0.00    +0.294 HD
ENDBRANCH  31  37
ENDBRANCH   1  31
TORSDOF 7
ENDMDL
MODEL 6
REMARK VINA RESULT:      -6.4      4.148     10.088
REMARK  Name = pdb/CHEMBL3961246.pdb
REMARK                            x       y       z     vdW  Elec       q    Type
REMARK                         _______ _______ _______ _____ _____    ______ ____
ROOT
ATOM      1  C   LIG    1      -40.833  73.008  23.526  0.00  0.00    +0.149 A 
ATOM      2  N   LIG    1      -41.095  74.321  23.492  0.00  0.00    -0.160 NA
ATOM      3  N   LIG    1      -40.107  74.920  24.225  0.00  0.00    -0.218 N 
ATOM      4  C   LIG    1      -39.140  73.967  24.607  0.00  0.00    +0.129 A 
ATOM      5  C   LIG    1      -39.648  72.746  24.221  0.00  0.00    +0.078 A 
ENDROOT
BRANCH   3   6
ATOM      6  C   LIG    1      -40.169  76.345  24.386  0.00  0.00    +0.067 A 
ATOM      7  C   LIG    1      -39.627  77.250  23.471  0.00  0.00    +0.028 A 
ATOM      8  C   LIG    1      -39.752  78.632  23.670  0.00  0.00    +0.002 A 
ATOM      9  C   LIG    1      -40.415  79.132  24.786  0.00  0.00    +0.000 A 
ATOM     10  C   LIG    1      -40.948  78.250  25.716  0.00  0.00    +0.002 A 
ATOM     11  C   LIG    1      -40.827  76.870  25.521  0.00  0.00    +0.028 A 
ENDBRANCH   3   6
BRANCH   4  12
ATOM     12  N   LIG    1      -37.899  74.140  25.241  0.00  0.00    -0.266 N 
ATOM     13  H   LIG    1      -37.055  74.100  24.711  0.00  0.00    +0.157 HD
ATOM     14  C   LIG    1      -37.792  74.331  26.669  0.00  0.00    +0.251 C 
ATOM     15  O   LIG    1      -38.778  74.356  27.370  0.00  0.00    -0.270 OA
BRANCH  14  16
ATOM     16  C   LIG    1      -36.450  74.372  27.290  0.00  0.00    +0.056 A 
ATOM     17  C   LIG    1      -35.847  73.324  27.969  0.00  0.00    +0.054 A 
ATOM     18 CL   LIG    1      -36.583  71.773  28.154  0.00  0.00    -0.083 Cl
ATOM     19  C   LIG    1      -34.580  73.507  28.524  0.00  0.00    +0.041 A 
ATOM     20  C   LIG    1      -33.906  74.740  28.417  0.00  0.00    +0.052 A 
ATOM     21 CL   LIG    1      -32.394  74.822  29.253  0.00  0.00    -0.083 Cl
ATOM     22  C   LIG    1      -34.473  75.822  27.720  0.00  0.00    +0.019 A 
ATOM     23  C   LIG    1      -35.755  75.591  27.160  0.00  0.00    +0.026 A 
BRANCH  22  24
ATOM     24  C   LIG    1      -33.886  77.178  27.553  0.00  0.00    +0.072 A 
ATOM     25  N   LIG    1      -34.638  78.181  28.085  0.00  0.00    -0.255 NA
ATOM     26  C   LIG    1      -34.204  79.457  27.953  0.00  0.00    +0.111 A 
ATOM     27  C   LIG    1      -33.029  79.804  27.320  0.00  0.00    +0.020 A 
ATOM     28  C   LIG    1      -32.266  78.784  26.773  0.00  0.00    +0.004 A 
ATOM     29  C   LIG    1      -32.704  77.462  26.871  0.00  0.00    +0.028 A 
ENDBRANCH  22  24
ENDBRANCH  14  16
ENDBRANCH   4  12
BRANCH   1  31
ATOM     30  N   LIG    1      -42.588  72.464  21.965  0.00  0.00    -0.238 NA
ATOM     31  C   LIG    1      -41.704  72.076  22.825  0.00  0.00    +0.237 C 
BRANCH  30  33
ATOM     32  C   LIG    1      -44.425  70.766  22.199  0.00  0.00    +0.041 C 
ATOM     33  C   LIG    1      -43.362  71.388  21.309  0.00  0.00    +0.109 C 
ATOM     34  C   LIG    1      -43.902  71.823  19.923  0.00  0.00    +0.192 C 
ATOM     35  O   LIG    1      -43.282  70.677  19.279  0.00  0.00    -0.375 OA
ATOM     36  C   LIG    1      -42.493  70.425  20.470  0.00  0.00    +0.192 C 
ENDBRANCH  30  33
BRANCH  31  37
ATOM     37  O   LIG    1      -41.503  70.783  23.170  0.00  0.00    -0.491 OA
ATOM     38  H   LIG    1      -42.003  70.211  22.556  0.00  0.00    +0.294 HD
ENDBRANCH  31  37
ENDBRANCH   1  31
TORSDOF 7
ENDMDL
MODEL 7
REMARK VINA RESULT:      -6.4     15.220     18.258
REMARK  Name = pdb/CHEMBL3961246.pdb
REMARK                            x       y       z     vdW  Elec       q    Type
REMARK                         _______ _______ _______ _____ _____    ______ ____
ROOT
ATOM      1  C   LIG    1      -24.827  82.852  37.205  0.00  0.00    +0.149 A 
ATOM      2  N   LIG    1      -23.789  83.336  37.902  0.00  0.00    -0.160 NA
ATOM      3  N   LIG    1      -22.775  82.432  37.741  0.00  0.00    -0.218 N 
ATOM      4  C   LIG    1      -23.152  81.437  36.815  0.00  0.00    +0.129 A 
ATOM      5  C   LIG    1      -24.481  81.672  36.538  0.00  0.00    +0.078 A 
ENDROOT
BRANCH   3   6
ATOM      6  C   LIG    1      -21.539  82.691  38.424  0.00  0.00    +0.067 A 
ATOM      7  C   LIG    1      -21.117  81.983  39.551  0.00  0.00    +0.028 A 
ATOM      8  C   LIG    1      -19.881  82.262  40.152  0.00  0.00    +0.002 A 
ATOM      9  C   LIG    1      -19.051  83.253  39.640  0.00  0.00    +0.000 A 
ATOM     10  C   LIG    1      -19.458  83.980  38.529  0.00  0.00    +0.002 A 
ATOM     11  C   LIG    1      -20.690  83.704  37.926  0.00  0.00    +0.028 A 
ENDBRANCH   3   6
BRANCH   4  12
ATOM     12  N   LIG    1      -22.400  80.400  36.243  0.00  0.00    -0.266 N 
ATOM     13  H   LIG    1      -22.596  79.450  36.476  0.00  0.00    +0.157 HD
ATOM     14  C   LIG    1      -21.297  80.661  35.347  0.00  0.00    +0.251 C 
ATOM     15  O   LIG    1      -20.988  81.794  35.053  0.00  0.00    -0.270 OA
BRANCH  14  16
ATOM     16  C   LIG    1      -20.461  79.531  34.887  0.00  0.00    +0.056 A 
ATOM     17  C   LIG    1      -19.300  79.086  35.504  0.00  0.00    +0.054 A 
ATOM     18 CL   LIG    1      -18.677  79.784  36.955  0.00  0.00    -0.083 Cl
ATOM     19  C   LIG    1      -18.597  78.017  34.949  0.00  0.00    +0.041 A 
ATOM     20  C   LIG    1      -19.038  77.386  33.768  0.00  0.00    +0.052 A 
ATOM     21 CL   LIG    1      -17.990  76.151  33.164  0.00  0.00    -0.083 Cl
ATOM     22  C   LIG    1      -20.219  77.794  33.121  0.00  0.00    +0.019 A 
ATOM     23  C   LIG    1      -20.910  78.874  33.724  0.00  0.00    +0.026 A 
BRANCH  22  24
ATOM     24  C   LIG    1      -20.781  77.235  31.863  0.00  0.00    +0.072 A 
ATOM     25  N   LIG    1      -20.083  77.573  30.743  0.00  0.00    -0.255 NA
ATOM     26  C   LIG    1      -20.537  77.142  29.542  0.00  0.00    +0.111 A 
ATOM     27  C   LIG    1      -21.664  76.362  29.385  0.00  0.00    +0.020 A 
ATOM     28  C   LIG    1      -22.377  76.023  30.523  0.00  0.00    +0.004 A 
ATOM     29  C   LIG    1      -21.946  76.478  31.771  0.00  0.00    +0.028 A 
ENDBRANCH  22  24
ENDBRANCH  14  16
ENDBRANCH   4  12
BRANCH   1  31
ATOM     30  N   LIG    1      -26.384  84.388  36.192  0.00  0.00    -0.238 NA
ATOM     31  C   LIG    1      -26.080  83.590  37.164  0.00  0.00    +0.237 C 
BRANCH  30  33
ATOM     32  C   LIG    1      -27.833  86.052  37.397  0.00  0.00    +0.041 C 
ATOM     33  C   LIG    1      -27.716  85.028  36.279  0.00  0.00    +0.109 C 
ATOM     34  C   LIG    1      -28.193  85.562  34.906  0.00  0.00    +0.192 C 
ATOM     35  O   LIG    1      -29.432  84.810  35.001  0.00  0.00    -0.375 OA
ATOM     36  C   LIG    1      -28.889  84.038  36.103  0.00  0.00    +0.192 C 
ENDBRANCH  30  33
BRANCH  31  37
ATOM     37  O   LIG    1      -26.876  83.366  38.234  0.00  0.00    -0.491 OA
ATOM     38  H   LIG    1      -27.221  82.453  38.186  0.00  0.00    +0.294 HD
ENDBRANCH  31  37
ENDBRANCH   1  31
TORSDOF 7
ENDMDL
MODEL 8
REMARK VINA RESULT:      -6.3      3.672      6.496
REMARK  Name = pdb/CHEMBL3961246.pdb
REMARK                            x       y       z     vdW  Elec       q    Type
REMARK                         _______ _______ _______ _____ _____    ______ ____
ROOT
ATOM      1  C   LIG    1      -36.923  76.502  26.802  0.00  0.00    +0.149 A 
ATOM      2  N   LIG    1      -36.997  75.288  26.240  0.00  0.00    -0.160 NA
ATOM      3  N   LIG    1      -38.275  75.172  25.764  0.00  0.00    -0.218 N 
ATOM      4  C   LIG    1      -38.964  76.394  25.917  0.00  0.00    +0.129 A 
ATOM      5  C   LIG    1      -38.121  77.207  26.643  0.00  0.00    +0.078 A 
ENDROOT
BRANCH   3   6
ATOM      6  C   LIG    1      -38.642  73.934  25.139  0.00  0.00    +0.067 A 
ATOM      7  C   LIG    1      -37.861  72.777  25.198  0.00  0.00    +0.028 A 
ATOM      8  C   LIG    1      -38.293  71.588  24.594  0.00  0.00    +0.002 A 
ATOM      9  C   LIG    1      -39.508  71.537  23.918  0.00  0.00    +0.000 A 
ATOM     10  C   LIG    1      -40.293  72.679  23.834  0.00  0.00    +0.002 A 
ATOM     11  C   LIG    1      -39.866  73.867  24.436  0.00  0.00    +0.028 A 
ENDBRANCH   3   6
BRANCH   4  12
ATOM     12  N   LIG    1      -40.231  76.782  25.457  0.00  0.00    -0.266 N 
ATOM     13  H   LIG    1      -41.037  76.646  26.030  0.00  0.00    +0.157 HD
ATOM     14  C   LIG    1      -40.427  77.342  24.140  0.00  0.00    +0.251 C 
ATOM     15  O   LIG    1      -39.493  77.501  23.386  0.00  0.00    -0.270 OA
BRANCH  14  16
ATOM     16  C   LIG    1      -41.803  77.605  23.667  0.00  0.00    +0.056 A 
ATOM     17  C   LIG    1      -42.517  78.775  23.882  0.00  0.00    +0.054 A 
ATOM     18 CL   LIG    1      -41.865  80.137  24.720  0.00  0.00    -0.083 Cl
ATOM     19  C   LIG    1      -43.820  78.881  23.393  0.00  0.00    +0.041 A 
ATOM     20  C   LIG    1      -44.427  77.819  22.695  0.00  0.00    +0.052 A 
ATOM     21 CL   LIG    1      -46.079  78.083  22.255  0.00  0.00    -0.083 Cl
ATOM     22  C   LIG    1      -43.733  76.623  22.439  0.00  0.00    +0.019 A 
ATOM     23  C   LIG    1      -42.408  76.560  22.940  0.00  0.00    +0.026 A 
BRANCH  22  24
ATOM     24  C   LIG    1      -44.260  75.421  21.740  0.00  0.00    +0.072 A 
ATOM     25  N   LIG    1      -44.425  75.585  20.397  0.00  0.00    -0.255 NA
ATOM     26  C   LIG    1      -44.933  74.558  19.676  0.00  0.00    +0.111 A 
ATOM     27  C   LIG    1      -45.283  73.340  20.222  0.00  0.00    +0.020 A 
ATOM     28  C   LIG    1      -45.121  73.175  21.588  0.00  0.00    +0.004 A 
ATOM     29  C   LIG    1      -44.624  74.228  22.359  0.00  0.00    +0.028 A 
ENDBRANCH  22  24
ENDBRANCH  14  16
ENDBRANCH   4  12
BRANCH   1  31
ATOM     30  N   LIG    1      -34.546  76.901  26.777  0.00  0.00    -0.238 NA
ATOM     31  C   LIG    1      -35.676  76.948  27.405  0.00  0.00    +0.237 C 
BRANCH  30  33
ATOM     32  C   LIG    1      -32.957  76.577  28.698  0.00  0.00    +0.041 C 
ATOM     33  C   LIG    1      -33.379  77.433  27.515  0.00  0.00    +0.109 C 
ATOM     34  C   LIG    1      -32.206  77.789  26.567  0.00  0.00    +0.192 C 
ATOM     35  O   LIG    1      -32.146  79.144  27.087  0.00  0.00    -0.375 OA
ATOM     36  C   LIG    1      -33.432  78.962  27.734  0.00  0.00    +0.192 C 
ENDBRANCH  30  33
BRANCH  31  37
ATOM     37  O   LIG    1      -35.818  77.399  28.672  0.00  0.00    -0.491 OA
ATOM     38  H   LIG    1      -35.983  76.638  29.262  0.00  0.00    +0.294 HD
ENDBRANCH  31  37
ENDBRANCH   1  31
TORSDOF 7
ENDMDL
MODEL 9
REMARK VINA RESULT:      -6.3     19.595     20.788
REMARK  Name = pdb/CHEMBL3961246.pdb
REMARK                            x       y       z     vdW  Elec       q    Type
REMARK                         _______ _______ _______ _____ _____    ______ ____
ROOT
ATOM      1  C   LIG    1      -22.016  83.660  13.971  0.00  0.00    +0.149 A 
ATOM      2  N   LIG    1      -23.073  82.940  14.371  0.00  0.00    -0.160 NA
ATOM      3  N   LIG    1      -22.679  81.631  14.308  0.00  0.00    -0.218 N 
ATOM      4  C   LIG    1      -21.307  81.549  13.992  0.00  0.00    +0.129 A 
ATOM      5  C   LIG    1      -20.915  82.840  13.708  0.00  0.00    +0.078 A 
ENDROOT
BRANCH   3   6
ATOM      6  C   LIG    1      -23.647  80.628  14.652  0.00  0.00    +0.067 A 
ATOM      7  C   LIG    1      -23.520  79.778  15.753  0.00  0.00    +0.028 A 
ATOM      8  C   LIG    1      -24.520  78.842  16.054  0.00  0.00    +0.002 A 
ATOM      9  C   LIG    1      -25.657  78.737  15.261  0.00  0.00    +0.000 A 
ATOM     10  C   LIG    1      -25.796  79.562  14.153  0.00  0.00    +0.002 A 
ATOM     11  C   LIG    1      -24.803  80.499  13.849  0.00  0.00    +0.028 A 
ENDBRANCH   3   6
BRANCH   4  12
ATOM     12  N   LIG    1      -20.450  80.439  13.956  0.00  0.00    -0.266 N 
ATOM     13  H   LIG    1      -20.298  79.950  13.100  0.00  0.00    +0.157 HD
ATOM     14  C   LIG    1      -19.802  79.936  15.146  0.00  0.00    +0.251 C 
ATOM     15  O   LIG    1      -19.974  80.466  16.220  0.00  0.00    -0.270 OA
BRANCH  14  16
ATOM     16  C   LIG    1      -19.020  78.683  15.063  0.00  0.00    +0.056 A 
ATOM     17  C   LIG    1      -17.791  78.543  14.436  0.00  0.00    +0.054 A 
ATOM     18 CL   LIG    1      -16.964  79.856  13.678  0.00  0.00    -0.083 Cl
ATOM     19  C   LIG    1      -17.170  77.294  14.418  0.00  0.00    +0.041 A 
ATOM     20  C   LIG    1      -17.773  76.169  15.016  0.00  0.00    +0.052 A 
ATOM     21 CL   LIG    1      -16.915  74.682  14.807  0.00  0.00    -0.083 Cl
ATOM     22  C   LIG    1      -19.009  76.272  15.679  0.00  0.00    +0.019 A 
ATOM     23  C   LIG    1      -19.600  77.560  15.686  0.00  0.00    +0.026 A 
BRANCH  22  24
ATOM     24  C   LIG    1      -19.764  75.167  16.327  0.00  0.00    +0.072 A 
ATOM     25  N   LIG    1      -21.063  75.070  15.928  0.00  0.00    -0.255 NA
ATOM     26  C   LIG    1      -21.844  74.116  16.487  0.00  0.00    +0.111 A 
ATOM     27  C   LIG    1      -21.396  73.219  17.435  0.00  0.00    +0.020 A 
ATOM     28  C   LIG    1      -20.077  73.321  17.846  0.00  0.00    +0.004 A 
ATOM     29  C   LIG    1      -19.257  74.313  17.304  0.00  0.00    +0.028 A 
ENDBRANCH  22  24
ENDBRANCH  14  16
ENDBRANCH   4  12
BRANCH   1  31
ATOM     30  N   LIG    1      -21.062  85.873  14.034  0.00  0.00    -0.238 NA
ATOM     31  C   LIG    1      -22.103  85.112  13.929  0.00  0.00    +0.237 C 
BRANCH  30  33
ATOM     32  C   LIG    1      -22.089  87.904  15.102  0.00  0.00    +0.041 C 
ATOM     33  C   LIG    1      -21.316  87.327  13.927  0.00  0.00    +0.109 C 
ATOM     34  C   LIG    1      -20.027  88.118  13.593  0.00  0.00    +0.192 C 
ATOM     35  O   LIG    1      -20.656  88.731  12.437  0.00  0.00    -0.375 OA
ATOM     36  C   LIG    1      -21.746  87.776  12.512  0.00  0.00    +0.192 C 
ENDBRANCH  30  33
BRANCH  31  37
ATOM     37  O   LIG    1      -23.365  85.575  13.780  0.00  0.00    -0.491 OA
ATOM     38  H   LIG    1      -23.353  86.550  13.842  0.00  0.00    +0.294 HD
ENDBRANCH  31  37
ENDBRANCH   1  31
TORSDOF 7
ENDMDL
