MODEL 1
REMARK VINA RESULT:      -5.9      0.000      0.000
REMARK  Name = pdb/CHEMBL3671144.pdb
REMARK                            x       y       z     vdW  Elec       q    Type
REMARK                         _______ _______ _______ _____ _____    ______ ____
ROOT
ATOM      1  C   LIG    1      -20.397  77.090  30.618  0.00  0.00    +0.100 A 
ATOM      2  C   LIG    1      -19.727  77.642  31.702  0.00  0.00    +0.170 A 
ATOM      3  N   LIG    1      -20.160  78.197  32.879  0.00  0.00    -0.212 NA
ATOM      4  C   LIG    1      -19.256  78.669  33.715  0.00  0.00    +0.126 A 
ATOM      5  C   LIG    1      -17.774  78.592  33.415  0.00  0.00    +0.063 A 
ATOM      6  C   LIG    1      -17.407  78.022  32.264  0.00  0.00    +0.118 A 
ATOM      7  N   LIG    1      -18.366  77.540  31.394  0.00  0.00    -0.221 N 
ATOM      8  N   LIG    1      -18.147  76.924  30.210  0.00  0.00    -0.173 NA
ATOM      9  C   LIG    1      -19.368  76.659  29.754  0.00  0.00    +0.150 A 
ENDROOT
BRANCH   4  10
ATOM     10  N   LIG    1      -19.659  79.222  34.924  0.00  0.00    -0.308 N 
ATOM     11  C   LIG    1      -20.783  80.172  35.049  0.00  0.00    +0.108 C 
ATOM     12  C   LIG    1      -20.375  81.031  36.262  0.00  0.00    +0.029 C 
ATOM     13  C   LIG    1      -19.586  80.071  37.134  0.00  0.00    +0.021 C 
ATOM     14  C   LIG    1      -18.816  79.247  36.117  0.00  0.00    +0.107 C 
BRANCH  11  15
ATOM     15  C   LIG    1      -22.116  79.464  35.252  0.00  0.00    +0.011 A 
ATOM     16  C   LIG    1      -23.322  80.158  35.052  0.00  0.00    +0.129 A 
ATOM     17  F   LIG    1      -23.297  81.451  34.695  0.00  0.00    -0.205 F 
ATOM     18  C   LIG    1      -24.566  79.544  35.218  0.00  0.00    +0.041 A 
ATOM     19  C   LIG    1      -24.629  78.199  35.574  0.00  0.00    +0.041 A 
ATOM     20  C   LIG    1      -23.448  77.493  35.760  0.00  0.00    +0.124 A 
ATOM     21  F   LIG    1      -23.498  76.199  36.097  0.00  0.00    -0.205 F 
ATOM     22  C   LIG    1      -22.209  78.108  35.604  0.00  0.00    +0.046 A 
ENDBRANCH  11  15
ENDBRANCH   4  10
BRANCH   1  25
ATOM     23  N   LIG    1      -22.625  76.916  31.478  0.00  0.00    -0.303 N 
ATOM     24  H   LIG    1      -22.189  77.054  32.388  0.00  0.00    +0.150 HD
ATOM     25  C   LIG    1      -21.812  76.935  30.370  0.00  0.00    +0.250 C 
ATOM     26  O   LIG    1      -22.239  76.734  29.226  0.00  0.00    -0.270 OA
BRANCH  23  27
ATOM     27  C   LIG    1      -24.052  76.658  31.410  0.00  0.00    +0.058 C 
ATOM     28  C   LIG    1      -24.522  75.232  31.206  0.00  0.00    +0.030 C 
ATOM     29  C   LIG    1      -24.659  75.867  32.553  0.00  0.00    +0.030 C 
BRANCH  27  30
ATOM     30  C   LIG    1      -24.928  77.756  30.803  0.00  0.00    +0.181 C 
BRANCH  30  31
ATOM     31  O   LIG    1      -25.175  77.499  29.424  0.00  0.00    -0.393 OA
ATOM     32  H   LIG    1      -25.766  76.727  29.413  0.00  0.00    +0.209 HD
ENDBRANCH  30  31
ENDBRANCH  27  30
ENDBRANCH  23  27
ENDBRANCH   1  25
TORSDOF 6
ENDMDL
MODEL 2
REMARK VINA RESULT:      -5.8     17.650     20.266
REMARK  Name = pdb/CHEMBL3671144.pdb
REMARK                            x       y       z     vdW  Elec       q    Type
REMARK                         _______ _______ _______ _____ _____    ______ ____
ROOT
ATOM      1  C   LIG    1      -18.654  85.335  13.216  0.00  0.00    +0.100 A 
ATOM      2  C   LIG    1      -18.439  83.966  13.301  0.00  0.00    +0.170 A 
ATOM      3  N   LIG    1      -19.054  82.970  14.016  0.00  0.00    -0.212 NA
ATOM      4  C   LIG    1      -18.590  81.742  13.900  0.00  0.00    +0.126 A 
ATOM      5  C   LIG    1      -17.424  81.411  12.992  0.00  0.00    +0.063 A 
ATOM      6  C   LIG    1      -16.876  82.416  12.302  0.00  0.00    +0.118 A 
ATOM      7  N   LIG    1      -17.367  83.700  12.441  0.00  0.00    -0.221 N 
ATOM      8  N   LIG    1      -16.932  84.806  11.798  0.00  0.00    -0.173 NA
ATOM      9  C   LIG    1      -17.707  85.779  12.268  0.00  0.00    +0.150 A 
ENDROOT
BRANCH   4  10
ATOM     10  N   LIG    1      -19.200  80.706  14.596  0.00  0.00    -0.308 N 
ATOM     11  C   LIG    1      -20.282  80.915  15.580  0.00  0.00    +0.108 C 
ATOM     12  C   LIG    1      -20.085  79.743  16.561  0.00  0.00    +0.029 C 
ATOM     13  C   LIG    1      -19.532  78.631  15.689  0.00  0.00    +0.021 C 
ATOM     14  C   LIG    1      -18.613  79.375  14.736  0.00  0.00    +0.107 C 
BRANCH  11  15
ATOM     15  C   LIG    1      -21.660  80.914  14.932  0.00  0.00    +0.011 A 
ATOM     16  C   LIG    1      -22.770  81.413  15.633  0.00  0.00    +0.129 A 
ATOM     17  F   LIG    1      -22.618  81.879  16.882  0.00  0.00    -0.205 F 
ATOM     18  C   LIG    1      -24.050  81.440  15.072  0.00  0.00    +0.041 A 
ATOM     19  C   LIG    1      -24.242  80.978  13.772  0.00  0.00    +0.041 A 
ATOM     20  C   LIG    1      -23.153  80.497  13.058  0.00  0.00    +0.124 A 
ATOM     21  F   LIG    1      -23.327  80.055  11.806  0.00  0.00    -0.205 F 
ATOM     22  C   LIG    1      -21.880  80.461  13.621  0.00  0.00    +0.046 A 
ENDBRANCH  11  15
ENDBRANCH   4  10
BRANCH   1  25
ATOM     23  N   LIG    1      -20.924  85.759  13.846  0.00  0.00    -0.303 N 
ATOM     24  H   LIG    1      -21.124  84.873  13.386  0.00  0.00    +0.150 HD
ATOM     25  C   LIG    1      -19.616  86.177  13.889  0.00  0.00    +0.250 C 
ATOM     26  O   LIG    1      -19.277  87.258  14.386  0.00  0.00    -0.270 OA
BRANCH  23  27
ATOM     27  C   LIG    1      -22.025  86.544  14.376  0.00  0.00    +0.058 C 
ATOM     28  C   LIG    1      -22.382  87.847  13.689  0.00  0.00    +0.030 C 
ATOM     29  C   LIG    1      -23.265  86.653  13.509  0.00  0.00    +0.030 C 
BRANCH  27  30
ATOM     30  C   LIG    1      -22.255  86.486  15.887  0.00  0.00    +0.181 C 
BRANCH  30  31
ATOM     31  O   LIG    1      -21.467  87.467  16.555  0.00  0.00    -0.393 OA
ATOM     32  H   LIG    1      -20.872  86.960  17.133  0.00  0.00    +0.209 HD
ENDBRANCH  30  31
ENDBRANCH  27  30
ENDBRANCH  23  27
ENDBRANCH   1  25
TORSDOF 6
ENDMDL
MODEL 3
REMARK VINA RESULT:      -5.7      1.567      2.021
REMARK  Name = pdb/CHEMBL3671144.pdb
REMARK                            x       y       z     vdW  Elec       q    Type
REMARK                         _______ _______ _______ _____ _____    ______ ____
ROOT
ATOM      1  C   LIG    1      -22.851  76.914  30.645  0.00  0.00    +0.100 A 
ATOM      2  C   LIG    1      -21.831  77.415  31.442  0.00  0.00    +0.170 A 
ATOM      3  N   LIG    1      -21.799  77.872  32.735  0.00  0.00    -0.212 NA
ATOM      4  C   LIG    1      -20.653  78.319  33.210  0.00  0.00    +0.126 A 
ATOM      5  C   LIG    1      -19.389  78.320  32.377  0.00  0.00    +0.063 A 
ATOM      6  C   LIG    1      -19.473  77.844  31.131  0.00  0.00    +0.118 A 
ATOM      7  N   LIG    1      -20.682  77.387  30.644  0.00  0.00    -0.221 N 
ATOM      8  N   LIG    1      -20.914  76.862  29.419  0.00  0.00    -0.173 NA
ATOM      9  C   LIG    1      -22.214  76.583  29.430  0.00  0.00    +0.150 A 
ENDROOT
BRANCH   4  10
ATOM     10  N   LIG    1      -20.581  78.772  34.521  0.00  0.00    -0.308 N 
ATOM     11  C   LIG    1      -21.190  80.038  34.979  0.00  0.00    +0.108 C 
ATOM     12  C   LIG    1      -20.266  80.467  36.135  0.00  0.00    +0.029 C 
ATOM     13  C   LIG    1      -19.788  79.151  36.721  0.00  0.00    +0.021 C 
ATOM     14  C   LIG    1      -19.604  78.280  35.490  0.00  0.00    +0.107 C 
BRANCH  11  15
ATOM     15  C   LIG    1      -22.637  79.857  35.418  0.00  0.00    +0.011 A 
ATOM     16  C   LIG    1      -23.414  80.974  35.766  0.00  0.00    +0.129 A 
ATOM     17  F   LIG    1      -22.877  82.203  35.722  0.00  0.00    -0.205 F 
ATOM     18  C   LIG    1      -24.748  80.853  36.165  0.00  0.00    +0.041 A 
ATOM     19  C   LIG    1      -25.343  79.595  36.206  0.00  0.00    +0.041 A 
ATOM     20  C   LIG    1      -24.595  78.481  35.851  0.00  0.00    +0.124 A 
ATOM     21  F   LIG    1      -25.160  77.268  35.884  0.00  0.00    -0.205 F 
ATOM     22  C   LIG    1      -23.264  78.601  35.463  0.00  0.00    +0.046 A 
ENDBRANCH  11  15
ENDBRANCH   4  10
BRANCH   1  25
ATOM     23  N   LIG    1      -24.563  76.256  32.183  0.00  0.00    -0.303 N 
ATOM     24  H   LIG    1      -23.796  76.116  32.839  0.00  0.00    +0.150 HD
ATOM     25  C   LIG    1      -24.254  76.722  30.929  0.00  0.00    +0.250 C 
ATOM     26  O   LIG    1      -25.109  76.882  30.048  0.00  0.00    -0.270 OA
BRANCH  23  27
ATOM     27  C   LIG    1      -25.913  75.905  32.590  0.00  0.00    +0.058 C 
ATOM     28  C   LIG    1      -26.509  74.609  32.080  0.00  0.00    +0.030 C 
ATOM     29  C   LIG    1      -26.060  74.704  33.504  0.00  0.00    +0.030 C 
BRANCH  27  30
ATOM     30  C   LIG    1      -26.890  77.060  32.821  0.00  0.00    +0.181 C 
BRANCH  30  31
ATOM     31  O   LIG    1      -27.570  77.392  31.615  0.00  0.00    -0.393 OA
ATOM     32  H   LIG    1      -28.325  77.938  31.894  0.00  0.00    +0.209 HD
ENDBRANCH  30  31
ENDBRANCH  27  30
ENDBRANCH  23  27
ENDBRANCH   1  25
TORSDOF 6
ENDMDL
MODEL 4
REMARK VINA RESULT:      -5.6      1.800      2.585
REMARK  Name = pdb/CHEMBL3671144.pdb
REMARK                            x       y       z     vdW  Elec       q    Type
REMARK                         _______ _______ _______ _____ _____    ______ ____
ROOT
ATOM      1  C   LIG    1      -19.857  77.859  32.607  0.00  0.00    +0.100 A 
ATOM      2  C   LIG    1      -19.915  78.591  33.785  0.00  0.00    +0.170 A 
ATOM      3  N   LIG    1      -20.901  79.353  34.359  0.00  0.00    -0.212 NA
ATOM      4  C   LIG    1      -20.635  79.960  35.499  0.00  0.00    +0.126 A 
ATOM      5  C   LIG    1      -19.293  79.818  36.185  0.00  0.00    +0.063 A 
ATOM      6  C   LIG    1      -18.377  79.045  35.593  0.00  0.00    +0.118 A 
ATOM      7  N   LIG    1      -18.667  78.423  34.394  0.00  0.00    -0.221 N 
ATOM      8  N   LIG    1      -17.854  77.602  33.692  0.00  0.00    -0.173 NA
ATOM      9  C   LIG    1      -18.574  77.271  32.625  0.00  0.00    +0.150 A 
ENDROOT
BRANCH   4  10
ATOM     10  N   LIG    1      -21.615  80.726  36.116  0.00  0.00    -0.308 N 
ATOM     11  C   LIG    1      -22.874  81.124  35.453  0.00  0.00    +0.108 C 
ATOM     12  C   LIG    1      -23.210  82.467  36.132  0.00  0.00    +0.029 C 
ATOM     13  C   LIG    1      -22.659  82.309  37.537  0.00  0.00    +0.021 C 
ATOM     14  C   LIG    1      -21.372  81.535  37.309  0.00  0.00    +0.107 C 
BRANCH  11  15
ATOM     15  C   LIG    1      -23.973  80.085  35.628  0.00  0.00    +0.011 A 
ATOM     16  C   LIG    1      -24.395  79.312  34.533  0.00  0.00    +0.129 A 
ATOM     17  F   LIG    1      -23.837  79.500  33.328  0.00  0.00    -0.205 F 
ATOM     18  C   LIG    1      -25.393  78.341  34.653  0.00  0.00    +0.041 A 
ATOM     19  C   LIG    1      -25.983  78.109  35.893  0.00  0.00    +0.041 A 
ATOM     20  C   LIG    1      -25.568  78.852  36.989  0.00  0.00    +0.124 A 
ATOM     21  F   LIG    1      -26.127  78.632  38.186  0.00  0.00    -0.205 F 
ATOM     22  C   LIG    1      -24.581  79.826  36.868  0.00  0.00    +0.046 A 
ENDBRANCH  11  15
ENDBRANCH   4  10
BRANCH   1  25
ATOM     23  N   LIG    1      -22.075  77.220  31.972  0.00  0.00    -0.303 N 
ATOM     24  H   LIG    1      -22.226  77.084  32.970  0.00  0.00    +0.150 HD
ATOM     25  C   LIG    1      -20.843  77.674  31.568  0.00  0.00    +0.250 C 
ATOM     26  O   LIG    1      -20.548  77.829  30.376  0.00  0.00    -0.270 OA
BRANCH  23  27
ATOM     27  C   LIG    1      -23.139  76.878  31.044  0.00  0.00    +0.058 C 
ATOM     28  C   LIG    1      -23.071  75.546  30.324  0.00  0.00    +0.030 C 
ATOM     29  C   LIG    1      -24.049  75.731  31.441  0.00  0.00    +0.030 C 
BRANCH  27  30
ATOM     30  C   LIG    1      -23.792  78.032  30.282  0.00  0.00    +0.181 C 
BRANCH  30  31
ATOM     31  O   LIG    1      -23.228  78.158  28.980  0.00  0.00    -0.393 OA
ATOM     32  H   LIG    1      -23.894  77.783  28.379  0.00  0.00    +0.209 HD
ENDBRANCH  30  31
ENDBRANCH  27  30
ENDBRANCH  23  27
ENDBRANCH   1  25
TORSDOF 6
ENDMDL
MODEL 5
REMARK VINA RESULT:      -5.5      1.365      2.028
REMARK  Name = pdb/CHEMBL3671144.pdb
REMARK                            x       y       z     vdW  Elec       q    Type
REMARK                         _______ _______ _______ _____ _____    ______ ____
ROOT
ATOM      1  C   LIG    1      -20.319  76.974  30.770  0.00  0.00    +0.100 A 
ATOM      2  C   LIG    1      -19.593  77.230  31.926  0.00  0.00    +0.170 A 
ATOM      3  N   LIG    1      -19.965  77.507  33.217  0.00  0.00    -0.212 NA
ATOM      4  C   LIG    1      -19.016  77.734  34.104  0.00  0.00    +0.126 A 
ATOM      5  C   LIG    1      -17.549  77.677  33.736  0.00  0.00    +0.063 A 
ATOM      6  C   LIG    1      -17.243  77.381  32.470  0.00  0.00    +0.118 A 
ATOM      7  N   LIG    1      -18.247  77.154  31.549  0.00  0.00    -0.221 N 
ATOM      8  N   LIG    1      -18.092  76.827  30.246  0.00  0.00    -0.173 NA
ATOM      9  C   LIG    1      -19.336  76.723  29.790  0.00  0.00    +0.150 A 
ENDROOT
BRANCH   4  10
ATOM     10  N   LIG    1      -19.357  78.001  35.424  0.00  0.00    -0.308 N 
ATOM     11  C   LIG    1      -19.294  79.349  36.024  0.00  0.00    +0.108 C 
ATOM     12  C   LIG    1      -18.996  79.052  37.507  0.00  0.00    +0.029 C 
ATOM     13  C   LIG    1      -19.685  77.722  37.754  0.00  0.00    +0.021 C 
ATOM     14  C   LIG    1      -19.440  76.970  36.457  0.00  0.00    +0.107 C 
BRANCH  11  15
ATOM     15  C   LIG    1      -20.587  80.130  35.828  0.00  0.00    +0.011 A 
ATOM     16  C   LIG    1      -20.743  81.396  36.416  0.00  0.00    +0.129 A 
ATOM     17  F   LIG    1      -19.756  81.912  37.163  0.00  0.00    -0.205 F 
ATOM     18  C   LIG    1      -21.909  82.149  36.254  0.00  0.00    +0.041 A 
ATOM     19  C   LIG    1      -22.948  81.650  35.473  0.00  0.00    +0.041 A 
ATOM     20  C   LIG    1      -22.805  80.407  34.870  0.00  0.00    +0.124 A 
ATOM     21  F   LIG    1      -23.797  79.921  34.114  0.00  0.00    -0.205 F 
ATOM     22  C   LIG    1      -21.648  79.653  35.041  0.00  0.00    +0.046 A 
ENDBRANCH  11  15
ENDBRANCH   4  10
BRANCH   1  25
ATOM     23  N   LIG    1      -22.537  77.279  31.618  0.00  0.00    -0.303 N 
ATOM     24  H   LIG    1      -22.073  77.579  32.474  0.00  0.00    +0.150 HD
ATOM     25  C   LIG    1      -21.746  76.933  30.550  0.00  0.00    +0.250 C 
ATOM     26  O   LIG    1      -22.212  76.515  29.482  0.00  0.00    -0.270 OA
BRANCH  23  27
ATOM     27  C   LIG    1      -23.986  77.184  31.596  0.00  0.00    +0.058 C 
ATOM     28  C   LIG    1      -24.627  75.834  31.850  0.00  0.00    +0.030 C 
ATOM     29  C   LIG    1      -24.671  76.883  32.916  0.00  0.00    +0.030 C 
BRANCH  27  30
ATOM     30  C   LIG    1      -24.729  78.122  30.643  0.00  0.00    +0.181 C 
BRANCH  30  31
ATOM     31  O   LIG    1      -25.105  77.435  29.452  0.00  0.00    -0.393 OA
ATOM     32  H   LIG    1      -25.413  76.563  29.751  0.00  0.00    +0.209 HD
ENDBRANCH  30  31
ENDBRANCH  27  30
ENDBRANCH  23  27
ENDBRANCH   1  25
TORSDOF 6
ENDMDL
MODEL 6
REMARK VINA RESULT:      -5.3     17.459     19.973
REMARK  Name = pdb/CHEMBL3671144.pdb
REMARK                            x       y       z     vdW  Elec       q    Type
REMARK                         _______ _______ _______ _____ _____    ______ ____
ROOT
ATOM      1  C   LIG    1      -18.630  84.974  13.317  0.00  0.00    +0.100 A 
ATOM      2  C   LIG    1      -18.818  83.634  13.629  0.00  0.00    +0.170 A 
ATOM      3  N   LIG    1      -19.789  82.971  14.334  0.00  0.00    -0.212 NA
ATOM      4  C   LIG    1      -19.670  81.666  14.483  0.00  0.00    +0.126 A 
ATOM      5  C   LIG    1      -18.512  80.897  13.885  0.00  0.00    +0.063 A 
ATOM      6  C   LIG    1      -17.606  81.590  13.189  0.00  0.00    +0.118 A 
ATOM      7  N   LIG    1      -17.739  82.958  13.049  0.00  0.00    -0.221 N 
ATOM      8  N   LIG    1      -16.918  83.785  12.362  0.00  0.00    -0.173 NA
ATOM      9  C   LIG    1      -17.460  84.988  12.529  0.00  0.00    +0.150 A 
ENDROOT
BRANCH   4  10
ATOM     10  N   LIG    1      -20.645  80.960  15.176  0.00  0.00    -0.308 N 
ATOM     11  C   LIG    1      -21.221  79.687  14.699  0.00  0.00    +0.108 C 
ATOM     12  C   LIG    1      -22.647  79.713  15.283  0.00  0.00    +0.029 C 
ATOM     13  C   LIG    1      -22.490  80.479  16.583  0.00  0.00    +0.021 C 
ATOM     14  C   LIG    1      -21.477  81.553  16.221  0.00  0.00    +0.107 C 
BRANCH  11  15
ATOM     15  C   LIG    1      -20.416  78.479  15.163  0.00  0.00    +0.011 A 
ATOM     16  C   LIG    1      -20.566  77.241  14.517  0.00  0.00    +0.129 A 
ATOM     17  F   LIG    1      -21.428  77.118  13.497  0.00  0.00    -0.205 F 
ATOM     18  C   LIG    1      -19.840  76.111  14.906  0.00  0.00    +0.041 A 
ATOM     19  C   LIG    1      -18.925  76.206  15.950  0.00  0.00    +0.041 A 
ATOM     20  C   LIG    1      -18.752  77.426  16.590  0.00  0.00    +0.124 A 
ATOM     21  F   LIG    1      -17.871  77.527  17.593  0.00  0.00    -0.205 F 
ATOM     22  C   LIG    1      -19.482  78.548  16.209  0.00  0.00    +0.046 A 
ENDBRANCH  11  15
ENDBRANCH   4  10
BRANCH   1  25
ATOM     23  N   LIG    1      -20.774  85.946  13.750  0.00  0.00    -0.303 N 
ATOM     24  H   LIG    1      -21.131  85.002  13.614  0.00  0.00    +0.150 HD
ATOM     25  C   LIG    1      -19.417  86.136  13.659  0.00  0.00    +0.250 C 
ATOM     26  O   LIG    1      -18.891  87.251  13.765  0.00  0.00    -0.270 OA
BRANCH  23  27
ATOM     27  C   LIG    1      -21.714  87.031  13.976  0.00  0.00    +0.058 C 
ATOM     28  C   LIG    1      -21.816  88.129  12.937  0.00  0.00    +0.030 C 
ATOM     29  C   LIG    1      -22.905  87.109  13.040  0.00  0.00    +0.030 C 
BRANCH  27  30
ATOM     30  C   LIG    1      -21.963  87.442  15.428  0.00  0.00    +0.181 C 
BRANCH  30  31
ATOM     31  O   LIG    1      -20.746  87.440  16.168  0.00  0.00    -0.393 OA
ATOM     32  H   LIG    1      -20.828  86.693  16.786  0.00  0.00    +0.209 HD
ENDBRANCH  30  31
ENDBRANCH  27  30
ENDBRANCH  23  27
ENDBRANCH   1  25
TORSDOF 6
ENDMDL
MODEL 7
REMARK VINA RESULT:      -5.2      2.944      6.518
REMARK  Name = pdb/CHEMBL3671144.pdb
REMARK                            x       y       z     vdW  Elec       q    Type
REMARK                         _______ _______ _______ _____ _____    ______ ____
ROOT
ATOM      1  C   LIG    1      -21.073  79.918  35.296  0.00  0.00    +0.100 A 
ATOM      2  C   LIG    1      -22.417  79.581  35.213  0.00  0.00    +0.170 A 
ATOM      3  N   LIG    1      -23.088  78.588  34.545  0.00  0.00    -0.212 NA
ATOM      4  C   LIG    1      -24.402  78.547  34.646  0.00  0.00    +0.126 A 
ATOM      5  C   LIG    1      -25.170  79.545  35.486  0.00  0.00    +0.063 A 
ATOM      6  C   LIG    1      -24.465  80.478  36.133  0.00  0.00    +0.118 A 
ATOM      7  N   LIG    1      -23.089  80.514  36.011  0.00  0.00    -0.221 N 
ATOM      8  N   LIG    1      -22.246  81.381  36.616  0.00  0.00    -0.173 NA
ATOM      9  C   LIG    1      -21.043  81.016  36.182  0.00  0.00    +0.150 A 
ENDROOT
BRANCH   4  10
ATOM     10  N   LIG    1      -25.111  77.544  33.998  0.00  0.00    -0.308 N 
ATOM     11  C   LIG    1      -25.501  77.613  32.575  0.00  0.00    +0.108 C 
ATOM     12  C   LIG    1      -26.802  76.789  32.533  0.00  0.00    +0.029 C 
ATOM     13  C   LIG    1      -26.600  75.742  33.613  0.00  0.00    +0.021 C 
ATOM     14  C   LIG    1      -25.875  76.515  34.701  0.00  0.00    +0.107 C 
BRANCH  11  15
ATOM     15  C   LIG    1      -24.423  77.058  31.653  0.00  0.00    +0.011 A 
ATOM     16  C   LIG    1      -24.215  77.627  30.386  0.00  0.00    +0.129 A 
ATOM     17  F   LIG    1      -24.977  78.655  29.982  0.00  0.00    -0.205 F 
ATOM     18  C   LIG    1      -23.231  77.154  29.514  0.00  0.00    +0.041 A 
ATOM     19  C   LIG    1      -22.412  76.099  29.907  0.00  0.00    +0.041 A 
ATOM     20  C   LIG    1      -22.592  75.534  31.162  0.00  0.00    +0.124 A 
ATOM     21  F   LIG    1      -21.806  74.522  31.550  0.00  0.00    -0.205 F 
ATOM     22  C   LIG    1      -23.579  75.999  32.026  0.00  0.00    +0.046 A 
ENDBRANCH  11  15
ENDBRANCH   4  10
BRANCH   1  25
ATOM     23  N   LIG    1      -20.032  79.014  33.339  0.00  0.00    -0.303 N 
ATOM     24  H   LIG    1      -20.901  79.265  32.870  0.00  0.00    +0.150 HD
ATOM     25  C   LIG    1      -19.916  79.319  34.674  0.00  0.00    +0.250 C 
ATOM     26  O   LIG    1      -18.919  79.016  35.342  0.00  0.00    -0.270 OA
BRANCH  23  27
ATOM     27  C   LIG    1      -19.004  78.309  32.593  0.00  0.00    +0.058 C 
ATOM     28  C   LIG    1      -19.162  76.818  32.375  0.00  0.00    +0.030 C 
ATOM     29  C   LIG    1      -19.401  77.759  31.237  0.00  0.00    +0.030 C 
BRANCH  27  30
ATOM     30  C   LIG    1      -17.572  78.830  32.723  0.00  0.00    +0.181 C 
BRANCH  30  31
ATOM     31  O   LIG    1      -16.875  78.136  33.754  0.00  0.00    -0.393 OA
ATOM     32  H   LIG    1      -16.610  77.291  33.353  0.00  0.00    +0.209 HD
ENDBRANCH  30  31
ENDBRANCH  27  30
ENDBRANCH  23  27
ENDBRANCH   1  25
TORSDOF 6
ENDMDL
MODEL 8
REMARK VINA RESULT:      -5.1     14.366     18.600
REMARK  Name = pdb/CHEMBL3671144.pdb
REMARK                            x       y       z     vdW  Elec       q    Type
REMARK                         _______ _______ _______ _____ _____    ______ ____
ROOT
ATOM      1  C   LIG    1      -37.616  76.735  26.340  0.00  0.00    +0.100 A 
ATOM      2  C   LIG    1      -38.245  75.698  25.663  0.00  0.00    +0.170 A 
ATOM      3  N   LIG    1      -37.983  74.355  25.568  0.00  0.00    -0.212 NA
ATOM      4  C   LIG    1      -38.769  73.620  24.806  0.00  0.00    +0.126 A 
ATOM      5  C   LIG    1      -39.947  74.215  24.064  0.00  0.00    +0.063 A 
ATOM      6  C   LIG    1      -40.169  75.524  24.211  0.00  0.00    +0.118 A 
ATOM      7  N   LIG    1      -39.332  76.284  25.005  0.00  0.00    -0.221 N 
ATOM      8  N   LIG    1      -39.442  77.607  25.262  0.00  0.00    -0.173 NA
ATOM      9  C   LIG    1      -38.411  77.867  26.061  0.00  0.00    +0.150 A 
ENDROOT
BRANCH   4  10
ATOM     10  N   LIG    1      -38.543  72.254  24.700  0.00  0.00    -0.308 N 
ATOM     11  C   LIG    1      -37.202  71.641  24.800  0.00  0.00    +0.108 C 
ATOM     12  C   LIG    1      -37.329  70.388  23.911  0.00  0.00    +0.029 C 
ATOM     13  C   LIG    1      -38.784  69.985  24.062  0.00  0.00    +0.021 C 
ATOM     14  C   LIG    1      -39.502  71.323  24.109  0.00  0.00    +0.107 C 
BRANCH  11  15
ATOM     15  C   LIG    1      -36.826  71.306  26.237  0.00  0.00    +0.011 A 
ATOM     16  C   LIG    1      -35.495  71.000  26.566  0.00  0.00    +0.129 A 
ATOM     17  F   LIG    1      -34.555  70.991  25.608  0.00  0.00    -0.205 F 
ATOM     18  C   LIG    1      -35.106  70.697  27.873  0.00  0.00    +0.041 A 
ATOM     19  C   LIG    1      -36.052  70.713  28.895  0.00  0.00    +0.041 A 
ATOM     20  C   LIG    1      -37.369  71.029  28.592  0.00  0.00    +0.124 A 
ATOM     21  F   LIG    1      -38.285  71.051  29.568  0.00  0.00    -0.205 F 
ATOM     22  C   LIG    1      -37.758  71.321  27.288  0.00  0.00    +0.046 A 
ENDBRANCH  11  15
ENDBRANCH   4  10
BRANCH   1  25
ATOM     23  N   LIG    1      -35.492  75.776  26.886  0.00  0.00    -0.303 N 
ATOM     24  H   LIG    1      -35.661  75.166  26.088  0.00  0.00    +0.150 HD
ATOM     25  C   LIG    1      -36.436  76.731  27.174  0.00  0.00    +0.250 C 
ATOM     26  O   LIG    1      -36.343  77.489  28.147  0.00  0.00    -0.270 OA
BRANCH  23  27
ATOM     27  C   LIG    1      -34.303  75.566  27.695  0.00  0.00    +0.058 C 
ATOM     28  C   LIG    1      -34.460  74.927  29.060  0.00  0.00    +0.030 C 
ATOM     29  C   LIG    1      -33.885  74.128  27.934  0.00  0.00    +0.030 C 
BRANCH  27  30
ATOM     30  C   LIG    1      -33.174  76.587  27.547  0.00  0.00    +0.181 C 
BRANCH  30  31
ATOM     31  O   LIG    1      -33.568  77.654  26.690  0.00  0.00    -0.393 OA
ATOM     32  H   LIG    1      -34.535  77.578  26.621  0.00  0.00    +0.209 HD
ENDBRANCH  30  31
ENDBRANCH  27  30
ENDBRANCH  23  27
ENDBRANCH   1  25
TORSDOF 6
ENDMDL
MODEL 9
REMARK VINA RESULT:      -5.1     18.247     20.714
REMARK  Name = pdb/CHEMBL3671144.pdb
REMARK                            x       y       z     vdW  Elec       q    Type
REMARK                         _______ _______ _______ _____ _____    ______ ____
ROOT
ATOM      1  C   LIG    1      -18.837  85.446  12.917  0.00  0.00    +0.100 A 
ATOM      2  C   LIG    1      -19.096  84.130  13.278  0.00  0.00    +0.170 A 
ATOM      3  N   LIG    1      -20.049  83.556  14.079  0.00  0.00    -0.212 NA
ATOM      4  C   LIG    1      -20.014  82.249  14.251  0.00  0.00    +0.126 A 
ATOM      5  C   LIG    1      -18.973  81.383  13.576  0.00  0.00    +0.063 A 
ATOM      6  C   LIG    1      -18.081  81.992  12.789  0.00  0.00    +0.118 A 
ATOM      7  N   LIG    1      -18.124  83.363  12.625  0.00  0.00    -0.221 N 
ATOM      8  N   LIG    1      -17.307  84.112  11.851  0.00  0.00    -0.173 NA
ATOM      9  C   LIG    1      -17.741  85.355  12.032  0.00  0.00    +0.150 A 
ENDROOT
BRANCH   4  10
ATOM     10  N   LIG    1      -20.975  81.633  15.041  0.00  0.00    -0.308 N 
ATOM     11  C   LIG    1      -22.254  82.271  15.414  0.00  0.00    +0.108 C 
ATOM     12  C   LIG    1      -22.570  81.638  16.783  0.00  0.00    +0.029 C 
ATOM     13  C   LIG    1      -21.975  80.246  16.682  0.00  0.00    +0.021 C 
ATOM     14  C   LIG    1      -20.695  80.482  15.898  0.00  0.00    +0.107 C 
BRANCH  11  15
ATOM     15  C   LIG    1      -23.347  82.020  14.383  0.00  0.00    +0.011 A 
ATOM     16  C   LIG    1      -23.535  82.919  13.320  0.00  0.00    +0.129 A 
ATOM     17  F   LIG    1      -22.758  84.008  13.220  0.00  0.00    -0.205 F 
ATOM     18  C   LIG    1      -24.519  82.721  12.347  0.00  0.00    +0.041 A 
ATOM     19  C   LIG    1      -25.333  81.593  12.411  0.00  0.00    +0.041 A 
ATOM     20  C   LIG    1      -25.151  80.685  13.446  0.00  0.00    +0.124 A 
ATOM     21  F   LIG    1      -25.926  79.595  13.513  0.00  0.00    -0.205 F 
ATOM     22  C   LIG    1      -24.178  80.888  14.419  0.00  0.00    +0.046 A 
ENDBRANCH  11  15
ENDBRANCH   4  10
BRANCH   1  25
ATOM     23  N   LIG    1      -20.871  86.613  13.395  0.00  0.00    -0.303 N 
ATOM     24  H   LIG    1      -21.320  85.712  13.239  0.00  0.00    +0.150 HD
ATOM     25  C   LIG    1      -19.503  86.670  13.295  0.00  0.00    +0.250 C 
ATOM     26  O   LIG    1      -18.868  87.725  13.423  0.00  0.00    -0.270 OA
BRANCH  23  27
ATOM     27  C   LIG    1      -21.698  87.778  13.656  0.00  0.00    +0.058 C 
ATOM     28  C   LIG    1      -21.593  88.966  12.720  0.00  0.00    +0.030 C 
ATOM     29  C   LIG    1      -22.794  88.077  12.652  0.00  0.00    +0.030 C 
BRANCH  27  30
ATOM     30  C   LIG    1      -22.013  88.092  15.120  0.00  0.00    +0.181 C 
BRANCH  30  31
ATOM     31  O   LIG    1      -21.726  86.969  15.949  0.00  0.00    -0.393 OA
ATOM     32  H   LIG    1      -22.594  86.591  16.171  0.00  0.00    +0.209 HD
ENDBRANCH  30  31
ENDBRANCH  27  30
ENDBRANCH  23  27
ENDBRANCH   1  25
TORSDOF 6
ENDMDL
