MODEL 1
REMARK VINA RESULT:      -6.0      0.000      0.000
REMARK  Name = pdb/CHEMBL3671449.pdb
REMARK                            x       y       z     vdW  Elec       q    Type
REMARK                         _______ _______ _______ _____ _____    ______ ____
ROOT
ATOM      1  C   LIG    1      -20.634  77.015  30.671  0.00  0.00    +0.042 A 
ATOM      2  C   LIG    1      -20.838  77.827  31.810  0.00  0.00    +0.038 A 
ATOM      3  C   LIG    1      -19.730  78.306  32.533  0.00  0.00    +0.052 A 
ATOM      4  C   LIG    1      -18.470  77.896  32.091  0.00  0.00    +0.134 A 
ATOM      5  N   LIG    1      -18.243  77.171  30.969  0.00  0.00    -0.261 NA
ATOM      6  C   LIG    1      -19.328  76.790  30.268  0.00  0.00    +0.122 A 
ENDROOT
BRANCH   3   7
ATOM      7  N   LIG    1      -19.932  79.185  33.634  0.00  0.00    -0.283 N 
ATOM      8  H   LIG    1      -20.028  80.178  33.425  0.00  0.00    +0.155 HD
ATOM      9  C   LIG    1      -19.837  78.832  34.978  0.00  0.00    +0.239 C 
ATOM     10  O   LIG    1      -19.689  77.684  35.397  0.00  0.00    -0.273 OA
BRANCH   9  11
ATOM     11  C   LIG    1      -19.993  79.962  35.974  0.00  0.00    +0.239 C 
BRANCH  11  12
ATOM     12  N   LIG    1      -21.324  80.528  35.948  0.00  0.00    -0.262 N 
ATOM     13  N   LIG    1      -22.282  79.927  35.208  0.00  0.00    -0.179 NA
ATOM     14  C   LIG    1      -23.355  80.706  35.393  0.00  0.00    +0.138 A 
ATOM     15  C   LIG    1      -23.077  81.787  36.247  0.00  0.00    -0.007 A 
ATOM     16  C   LIG    1      -21.763  81.636  36.613  0.00  0.00    +0.112 A 
BRANCH  15  17
ATOM     17  C   LIG    1      -24.022  82.895  36.650  0.00  0.00    +0.022 C 
ATOM     18  C   LIG    1      -24.455  82.953  38.104  0.00  0.00    +0.009 C 
ATOM     19  C   LIG    1      -25.439  82.554  37.060  0.00  0.00    +0.009 C 
ENDBRANCH  15  17
ENDBRANCH  11  12
ENDBRANCH   9  11
ENDBRANCH   3   7
BRANCH   1  20
ATOM     20  C   LIG    1      -21.769  76.426  29.894  0.00  0.00    +0.197 C 
ATOM     21  O   LIG    1      -21.729  76.421  28.678  0.00  0.00    -0.287 OA
BRANCH  20  29
ATOM     22  N   LIG    1      -24.138  74.443  31.909  0.00  0.00    -0.326 N 
ATOM     23  C   LIG    1      -24.947  75.506  31.587  0.00  0.00    +0.147 A 
ATOM     24  N   LIG    1      -26.243  75.629  31.904  0.00  0.00    -0.197 NA
ATOM     25  C   LIG    1      -26.793  76.779  31.530  0.00  0.00    +0.214 A 
ATOM     26  N   LIG    1      -26.162  77.783  30.908  0.00  0.00    -0.222 NA
ATOM     27  C   LIG    1      -24.847  77.639  30.600  0.00  0.00    +0.126 A 
ATOM     28  C   LIG    1      -24.189  76.445  30.896  0.00  0.00    +0.048 A 
ATOM     29  C   LIG    1      -22.904  75.865  30.651  0.00  0.00    +0.051 A 
ATOM     30  C   LIG    1      -22.920  74.632  31.286  0.00  0.00    +0.100 A 
BRANCH  22  32
ATOM     31  C   LIG    1      -23.108  72.539  33.061  0.00  0.00    +0.034 C 
ATOM     32  C   LIG    1      -24.414  73.341  32.859  0.00  0.00    +0.039 C 
ATOM     33  C   LIG    1      -24.898  73.816  34.245  0.00  0.00    +0.034 C 
ATOM     34  C   LIG    1      -25.498  72.394  32.305  0.00  0.00    +0.034 C 
ENDBRANCH  22  32
BRANCH  25  35
ATOM     35  N   LIG    1      -28.153  76.899  31.746  0.00  0.00    -0.327 N 
ATOM     36  H   LIG    1      -28.299  77.403  32.612  0.00  0.00    +0.145 HD
ATOM     37  H   LIG    1      -28.587  75.990  31.672  0.00  0.00    +0.145 HD
ENDBRANCH  25  35
ENDBRANCH  20  29
ENDBRANCH   1  20
TORSDOF 8
ENDMDL
MODEL 2
REMARK VINA RESULT:      -5.9     11.083     16.232
REMARK  Name = pdb/CHEMBL3671449.pdb
REMARK                            x       y       z     vdW  Elec       q    Type
REMARK                         _______ _______ _______ _____ _____    ______ ____
ROOT
ATOM      1  C   LIG    1      -34.102  71.013  28.052  0.00  0.00    +0.042 A 
ATOM      2  C   LIG    1      -35.083  71.443  27.131  0.00  0.00    +0.038 A 
ATOM      3  C   LIG    1      -35.299  70.711  25.949  0.00  0.00    +0.052 A 
ATOM      4  C   LIG    1      -34.474  69.604  25.739  0.00  0.00    +0.134 A 
ATOM      5  N   LIG    1      -33.570  69.134  26.631  0.00  0.00    -0.261 NA
ATOM      6  C   LIG    1      -33.442  69.826  27.780  0.00  0.00    +0.122 A 
ENDROOT
BRANCH   3   7
ATOM      7  N   LIG    1      -36.339  71.100  25.058  0.00  0.00    -0.283 N 
ATOM      8  H   LIG    1      -36.079  71.694  24.271  0.00  0.00    +0.155 HD
ATOM      9  C   LIG    1      -37.700  70.886  25.260  0.00  0.00    +0.239 C 
ATOM     10  O   LIG    1      -38.180  70.221  26.178  0.00  0.00    -0.273 OA
BRANCH   9  11
ATOM     11  C   LIG    1      -38.628  71.481  24.222  0.00  0.00    +0.239 C 
BRANCH  11  12
ATOM     12  N   LIG    1      -38.830  72.899  24.423  0.00  0.00    -0.262 N 
ATOM     13  N   LIG    1      -37.859  73.625  25.020  0.00  0.00    -0.179 NA
ATOM     14  C   LIG    1      -38.373  74.861  25.062  0.00  0.00    +0.138 A 
ATOM     15  C   LIG    1      -39.656  74.914  24.491  0.00  0.00    -0.007 A 
ATOM     16  C   LIG    1      -39.920  73.637  24.062  0.00  0.00    +0.112 A 
BRANCH  15  17
ATOM     17  C   LIG    1      -40.563  76.120  24.398  0.00  0.00    +0.022 C 
ATOM     18  C   LIG    1      -41.426  76.254  23.156  0.00  0.00    +0.009 C 
ATOM     19  C   LIG    1      -40.281  77.185  23.358  0.00  0.00    +0.009 C 
ENDBRANCH  15  17
ENDBRANCH  11  12
ENDBRANCH   9  11
ENDBRANCH   3   7
BRANCH   1  20
ATOM     20  C   LIG    1      -33.782  71.778  29.297  0.00  0.00    +0.197 C 
ATOM     21  O   LIG    1      -33.822  71.219  30.377  0.00  0.00    -0.287 OA
BRANCH  20  29
ATOM     22  N   LIG    1      -33.457  75.354  28.454  0.00  0.00    -0.326 N 
ATOM     23  C   LIG    1      -32.391  75.225  29.312  0.00  0.00    +0.147 A 
ATOM     24  N   LIG    1      -31.505  76.184  29.611  0.00  0.00    -0.197 NA
ATOM     25  C   LIG    1      -30.598  75.830  30.515  0.00  0.00    +0.214 A 
ATOM     26  N   LIG    1      -30.529  74.645  31.134  0.00  0.00    -0.222 NA
ATOM     27  C   LIG    1      -31.441  73.688  30.819  0.00  0.00    +0.126 A 
ATOM     28  C   LIG    1      -32.401  73.937  29.838  0.00  0.00    +0.048 A 
ATOM     29  C   LIG    1      -33.422  73.202  29.157  0.00  0.00    +0.051 A 
ATOM     30  C   LIG    1      -34.041  74.111  28.311  0.00  0.00    +0.100 A 
BRANCH  22  32
ATOM     31  C   LIG    1      -32.970  77.179  26.891  0.00  0.00    +0.034 C 
ATOM     32  C   LIG    1      -34.013  76.596  27.872  0.00  0.00    +0.039 C 
ATOM     33  C   LIG    1      -35.331  76.388  27.094  0.00  0.00    +0.034 C 
ATOM     34  C   LIG    1      -34.301  77.640  28.970  0.00  0.00    +0.034 C 
ENDBRANCH  22  32
BRANCH  25  35
ATOM     35  N   LIG    1      -29.604  76.757  30.771  0.00  0.00    -0.327 N 
ATOM     36  H   LIG    1      -29.936  77.672  30.494  0.00  0.00    +0.145 HD
ATOM     37  H   LIG    1      -28.737  76.445  30.356  0.00  0.00    +0.145 HD
ENDBRANCH  25  35
ENDBRANCH  20  29
ENDBRANCH   1  20
TORSDOF 8
ENDMDL
MODEL 3
REMARK VINA RESULT:      -5.7      3.457      9.432
REMARK  Name = pdb/CHEMBL3671449.pdb
REMARK                            x       y       z     vdW  Elec       q    Type
REMARK                         _______ _______ _______ _____ _____    ______ ____
ROOT
ATOM      1  C   LIG    1      -25.441  76.056  31.516  0.00  0.00    +0.042 A 
ATOM      2  C   LIG    1      -24.793  74.894  31.040  0.00  0.00    +0.038 A 
ATOM      3  C   LIG    1      -25.319  73.626  31.345  0.00  0.00    +0.052 A 
ATOM      4  C   LIG    1      -26.453  73.598  32.159  0.00  0.00    +0.134 A 
ATOM      5  N   LIG    1      -27.131  74.695  32.578  0.00  0.00    -0.261 NA
ATOM      6  C   LIG    1      -26.631  75.889  32.206  0.00  0.00    +0.122 A 
ENDROOT
BRANCH   3   7
ATOM      7  N   LIG    1      -24.709  72.459  30.803  0.00  0.00    -0.283 N 
ATOM      8  H   LIG    1      -25.171  72.020  30.007  0.00  0.00    +0.155 HD
ATOM      9  C   LIG    1      -23.640  71.769  31.369  0.00  0.00    +0.239 C 
ATOM     10  O   LIG    1      -22.997  72.146  32.348  0.00  0.00    -0.273 OA
BRANCH   9  11
ATOM     11  C   LIG    1      -23.226  70.494  30.665  0.00  0.00    +0.239 C 
BRANCH  11  12
ATOM     12  N   LIG    1      -24.019  70.246  29.481  0.00  0.00    -0.262 N 
ATOM     13  N   LIG    1      -25.304  69.848  29.619  0.00  0.00    -0.179 NA
ATOM     14  C   LIG    1      -25.722  69.696  28.356  0.00  0.00    +0.138 A 
ATOM     15  C   LIG    1      -24.710  70.000  27.429  0.00  0.00    -0.007 A 
ATOM     16  C   LIG    1      -23.625  70.377  28.181  0.00  0.00    +0.112 A 
BRANCH  15  17
ATOM     17  C   LIG    1      -24.795  69.901  25.923  0.00  0.00    +0.022 C 
ATOM     18  C   LIG    1      -24.731  71.195  25.131  0.00  0.00    +0.009 C 
ATOM     19  C   LIG    1      -26.015  70.445  25.209  0.00  0.00    +0.009 C 
ENDBRANCH  15  17
ENDBRANCH  11  12
ENDBRANCH   9  11
ENDBRANCH   3   7
BRANCH   1  20
ATOM     20  C   LIG    1      -24.901  77.430  31.277  0.00  0.00    +0.197 C 
ATOM     21  O   LIG    1      -25.406  78.138  30.426  0.00  0.00    -0.287 OA
BRANCH  20  29
ATOM     22  N   LIG    1      -22.586  78.846  33.776  0.00  0.00    -0.326 N 
ATOM     23  C   LIG    1      -21.675  78.319  32.893  0.00  0.00    +0.147 A 
ATOM     24  N   LIG    1      -20.342  78.429  32.982  0.00  0.00    -0.197 NA
ATOM     25  C   LIG    1      -19.672  77.780  32.036  0.00  0.00    +0.214 A 
ATOM     26  N   LIG    1      -20.214  77.040  31.061  0.00  0.00    -0.222 NA
ATOM     27  C   LIG    1      -21.567  76.937  30.992  0.00  0.00    +0.126 A 
ATOM     28  C   LIG    1      -22.366  77.629  31.902  0.00  0.00    +0.048 A 
ATOM     29  C   LIG    1      -23.761  77.874  32.101  0.00  0.00    +0.051 A 
ATOM     30  C   LIG    1      -23.849  78.632  33.260  0.00  0.00    +0.100 A 
BRANCH  22  32
ATOM     31  C   LIG    1      -23.606  80.168  35.571  0.00  0.00    +0.034 C 
ATOM     32  C   LIG    1      -22.331  79.421  35.115  0.00  0.00    +0.039 C 
ATOM     33  C   LIG    1      -21.987  78.371  36.193  0.00  0.00    +0.034 C 
ATOM     34  C   LIG    1      -21.158  80.421  35.072  0.00  0.00    +0.034 C 
ENDBRANCH  22  32
BRANCH  25  35
ATOM     35  N   LIG    1      -18.301  77.958  32.035  0.00  0.00    -0.327 N 
ATOM     36  H   LIG    1      -17.858  77.053  32.128  0.00  0.00    +0.145 HD
ATOM     37  H   LIG    1      -18.051  78.658  32.719  0.00  0.00    +0.145 HD
ENDBRANCH  25  35
ENDBRANCH  20  29
ENDBRANCH   1  20
TORSDOF 8
ENDMDL
MODEL 4
REMARK VINA RESULT:      -5.7     19.446     22.674
REMARK  Name = pdb/CHEMBL3671449.pdb
REMARK                            x       y       z     vdW  Elec       q    Type
REMARK                         _______ _______ _______ _____ _____    ______ ____
ROOT
ATOM      1  C   LIG    1      -24.636  86.300  10.704  0.00  0.00    +0.042 A 
ATOM      2  C   LIG    1      -24.632  85.023  11.309  0.00  0.00    +0.038 A 
ATOM      3  C   LIG    1      -25.849  84.348  11.522  0.00  0.00    +0.052 A 
ATOM      4  C   LIG    1      -27.013  85.026  11.154  0.00  0.00    +0.134 A 
ATOM      5  N   LIG    1      -27.043  86.221  10.518  0.00  0.00    -0.261 NA
ATOM      6  C   LIG    1      -25.852  86.802  10.271  0.00  0.00    +0.122 A 
ENDROOT
BRANCH   3   7
ATOM      7  N   LIG    1      -25.840  83.031  12.061  0.00  0.00    -0.283 N 
ATOM      8  H   LIG    1      -25.615  82.935  13.051  0.00  0.00    +0.155 HD
ATOM      9  C   LIG    1      -25.940  81.854  11.323  0.00  0.00    +0.239 C 
ATOM     10  O   LIG    1      -26.175  81.797  10.116  0.00  0.00    -0.273 OA
BRANCH   9  11
ATOM     11  C   LIG    1      -25.804  80.565  12.106  0.00  0.00    +0.239 C 
BRANCH  11  12
ATOM     12  N   LIG    1      -24.686  80.603  13.024  0.00  0.00    -0.262 N 
ATOM     13  N   LIG    1      -23.444  80.825  12.541  0.00  0.00    -0.179 NA
ATOM     14  C   LIG    1      -22.670  80.777  13.633  0.00  0.00    +0.138 A 
ATOM     15  C   LIG    1      -23.421  80.532  14.796  0.00  0.00    -0.007 A 
ATOM     16  C   LIG    1      -24.725  80.447  14.379  0.00  0.00    +0.112 A 
BRANCH  15  17
ATOM     17  C   LIG    1      -22.893  80.366  16.202  0.00  0.00    +0.022 C 
ATOM     18  C   LIG    1      -22.347  81.602  16.896  0.00  0.00    +0.009 C 
ATOM     19  C   LIG    1      -21.410  80.528  16.465  0.00  0.00    +0.009 C 
ENDBRANCH  15  17
ENDBRANCH  11  12
ENDBRANCH   9  11
ENDBRANCH   3   7
BRANCH   1  20
ATOM     20  C   LIG    1      -23.385  87.094  10.503  0.00  0.00    +0.197 C 
ATOM     21  O   LIG    1      -23.318  87.895   9.589  0.00  0.00    -0.287 OA
BRANCH  20  29
ATOM     22  N   LIG    1      -20.265  86.194  12.254  0.00  0.00    -0.326 N 
ATOM     23  C   LIG    1      -20.955  86.767  13.296  0.00  0.00    +0.147 A 
ATOM     24  N   LIG    1      -20.537  86.839  14.567  0.00  0.00    -0.197 NA
ATOM     25  C   LIG    1      -21.358  87.496  15.379  0.00  0.00    +0.214 A 
ATOM     26  N   LIG    1      -22.509  88.080  15.023  0.00  0.00    -0.222 NA
ATOM     27  C   LIG    1      -22.912  87.998  13.729  0.00  0.00    +0.126 A 
ATOM     28  C   LIG    1      -22.151  87.280  12.806  0.00  0.00    +0.048 A 
ATOM     29  C   LIG    1      -22.268  86.870  11.441  0.00  0.00    +0.051 A 
ATOM     30  C   LIG    1      -21.089  86.199  11.146  0.00  0.00    +0.100 A 
BRANCH  22  32
ATOM     31  C   LIG    1      -18.553  85.175  10.826  0.00  0.00    +0.034 C 
ATOM     32  C   LIG    1      -18.850  85.763  12.225  0.00  0.00    +0.039 C 
ATOM     33  C   LIG    1      -17.842  86.904  12.482  0.00  0.00    +0.034 C 
ATOM     34  C   LIG    1      -18.581  84.679  13.288  0.00  0.00    +0.034 C 
ENDBRANCH  22  32
BRANCH  25  35
ATOM     35  N   LIG    1      -21.011  87.500  16.718  0.00  0.00    -0.327 N 
ATOM     36  H   LIG    1      -20.549  88.375  16.928  0.00  0.00    +0.145 HD
ATOM     37  H   LIG    1      -20.504  86.655  16.937  0.00  0.00    +0.145 HD
ENDBRANCH  25  35
ENDBRANCH  20  29
ENDBRANCH   1  20
TORSDOF 8
ENDMDL
MODEL 5
REMARK VINA RESULT:      -5.6     16.088     18.767
REMARK  Name = pdb/CHEMBL3671449.pdb
REMARK                            x       y       z     vdW  Elec       q    Type
REMARK                         _______ _______ _______ _____ _____    ______ ____
ROOT
ATOM      1  C   LIG    1      -20.727  81.019  16.033  0.00  0.00    +0.042 A 
ATOM      2  C   LIG    1      -20.282  79.818  16.629  0.00  0.00    +0.038 A 
ATOM      3  C   LIG    1      -18.991  79.335  16.346  0.00  0.00    +0.052 A 
ATOM      4  C   LIG    1      -18.233  80.072  15.433  0.00  0.00    +0.134 A 
ATOM      5  N   LIG    1      -18.610  81.257  14.895  0.00  0.00    -0.261 NA
ATOM      6  C   LIG    1      -19.826  81.718  15.246  0.00  0.00    +0.122 A 
ENDROOT
BRANCH   3   7
ATOM      7  N   LIG    1      -18.514  78.166  17.004  0.00  0.00    -0.283 N 
ATOM      8  H   LIG    1      -18.713  78.080  18.001  0.00  0.00    +0.155 HD
ATOM      9  C   LIG    1      -17.656  77.219  16.450  0.00  0.00    +0.239 C 
ATOM     10  O   LIG    1      -17.294  77.199  15.274  0.00  0.00    -0.273 OA
BRANCH   9  11
ATOM     11  C   LIG    1      -17.203  76.111  17.377  0.00  0.00    +0.239 C 
BRANCH  11  12
ATOM     12  N   LIG    1      -18.224  75.100  17.553  0.00  0.00    -0.262 N 
ATOM     13  N   LIG    1      -19.235  75.022  16.661  0.00  0.00    -0.179 NA
ATOM     14  C   LIG    1      -19.987  74.017  17.127  0.00  0.00    +0.138 A 
ATOM     15  C   LIG    1      -19.450  73.463  18.303  0.00  0.00    -0.007 A 
ATOM     16  C   LIG    1      -18.296  74.165  18.544  0.00  0.00    +0.112 A 
BRANCH  15  17
ATOM     17  C   LIG    1      -20.041  72.349  19.136  0.00  0.00    +0.022 C 
ATOM     18  C   LIG    1      -20.413  71.061  18.424  0.00  0.00    +0.009 C 
ATOM     19  C   LIG    1      -21.489  71.954  18.934  0.00  0.00    +0.009 C 
ENDBRANCH  15  17
ENDBRANCH  11  12
ENDBRANCH   9  11
ENDBRANCH   3   7
BRANCH   1  20
ATOM     20  C   LIG    1      -22.107  81.555  16.246  0.00  0.00    +0.197 C 
ATOM     21  O   LIG    1      -22.369  82.159  17.269  0.00  0.00    -0.287 OA
BRANCH  20  29
ATOM     22  N   LIG    1      -24.318  81.616  13.294  0.00  0.00    -0.326 N 
ATOM     23  C   LIG    1      -24.823  80.510  13.935  0.00  0.00    +0.147 A 
ATOM     24  N   LIG    1      -25.882  79.790  13.539  0.00  0.00    -0.197 NA
ATOM     25  C   LIG    1      -26.138  78.728  14.296  0.00  0.00    +0.214 A 
ATOM     26  N   LIG    1      -25.428  78.337  15.362  0.00  0.00    -0.222 NA
ATOM     27  C   LIG    1      -24.356  79.079  15.743  0.00  0.00    +0.126 A 
ATOM     28  C   LIG    1      -24.036  80.247  15.050  0.00  0.00    +0.048 A 
ATOM     29  C   LIG    1      -23.106  81.326  15.185  0.00  0.00    +0.051 A 
ATOM     30  C   LIG    1      -23.320  82.147  14.087  0.00  0.00    +0.100 A 
BRANCH  22  32
ATOM     31  C   LIG    1      -23.517  83.071  11.491  0.00  0.00    +0.034 C 
ATOM     32  C   LIG    1      -24.644  82.113  11.938  0.00  0.00    +0.039 C 
ATOM     33  C   LIG    1      -24.769  80.999  10.877  0.00  0.00    +0.034 C 
ATOM     34  C   LIG    1      -25.980  82.884  11.940  0.00  0.00    +0.034 C 
ENDBRANCH  22  32
BRANCH  25  35
ATOM     35  N   LIG    1      -27.284  78.022  13.981  0.00  0.00    -0.327 N 
ATOM     36  H   LIG    1      -27.379  77.253  14.632  0.00  0.00    +0.145 HD
ATOM     37  H   LIG    1      -27.274  77.786  12.999  0.00  0.00    +0.145 HD
ENDBRANCH  25  35
ENDBRANCH  20  29
ENDBRANCH   1  20
TORSDOF 8
ENDMDL
MODEL 6
REMARK VINA RESULT:      -5.6     12.408     16.695
REMARK  Name = pdb/CHEMBL3671449.pdb
REMARK                            x       y       z     vdW  Elec       q    Type
REMARK                         _______ _______ _______ _____ _____    ______ ____
ROOT
ATOM      1  C   LIG    1      -39.084  73.789  24.514  0.00  0.00    +0.042 A 
ATOM      2  C   LIG    1      -37.897  74.354  25.030  0.00  0.00    +0.038 A 
ATOM      3  C   LIG    1      -37.757  75.753  25.089  0.00  0.00    +0.052 A 
ATOM      4  C   LIG    1      -38.813  76.509  24.574  0.00  0.00    +0.134 A 
ATOM      5  N   LIG    1      -39.986  75.997  24.130  0.00  0.00    -0.261 NA
ATOM      6  C   LIG    1      -40.105  74.655  24.155  0.00  0.00    +0.122 A 
ENDROOT
BRANCH   3   7
ATOM      7  N   LIG    1      -36.594  76.323  25.678  0.00  0.00    -0.283 N 
ATOM      8  H   LIG    1      -35.811  76.529  25.058  0.00  0.00    +0.155 HD
ATOM      9  C   LIG    1      -36.365  76.461  27.045  0.00  0.00    +0.239 C 
ATOM     10  O   LIG    1      -37.192  76.225  27.926  0.00  0.00    -0.273 OA
BRANCH   9  11
ATOM     11  C   LIG    1      -35.008  77.004  27.440  0.00  0.00    +0.239 C 
BRANCH  11  12
ATOM     12  N   LIG    1      -34.239  76.041  28.199  0.00  0.00    -0.262 N 
ATOM     13  N   LIG    1      -33.630  76.435  29.339  0.00  0.00    -0.179 NA
ATOM     14  C   LIG    1      -33.008  75.327  29.761  0.00  0.00    +0.138 A 
ATOM     15  C   LIG    1      -33.229  74.241  28.896  0.00  0.00    -0.007 A 
ATOM     16  C   LIG    1      -34.048  74.722  27.906  0.00  0.00    +0.112 A 
BRANCH  15  17
ATOM     17  C   LIG    1      -32.656  72.848  29.020  0.00  0.00    +0.022 C 
ATOM     18  C   LIG    1      -32.653  72.211  30.398  0.00  0.00    +0.009 C 
ATOM     19  C   LIG    1      -31.365  72.638  29.783  0.00  0.00    +0.009 C 
ENDBRANCH  15  17
ENDBRANCH  11  12
ENDBRANCH   9  11
ENDBRANCH   3   7
BRANCH   1  20
ATOM     20  C   LIG    1      -39.272  72.312  24.370  0.00  0.00    +0.197 C 
ATOM     21  O   LIG    1      -40.310  71.877  23.906  0.00  0.00    -0.287 OA
BRANCH  20  29
ATOM     22  N   LIG    1      -36.552  70.513  26.095  0.00  0.00    -0.326 N 
ATOM     23  C   LIG    1      -36.508  69.880  24.875  0.00  0.00    +0.147 A 
ATOM     24  N   LIG    1      -35.621  68.945  24.510  0.00  0.00    -0.197 NA
ATOM     25  C   LIG    1      -35.823  68.440  23.298  0.00  0.00    +0.214 A 
ATOM     26  N   LIG    1      -36.820  68.771  22.468  0.00  0.00    -0.222 NA
ATOM     27  C   LIG    1      -37.711  69.719  22.860  0.00  0.00    +0.126 A 
ATOM     28  C   LIG    1      -37.554  70.355  24.092  0.00  0.00    +0.048 A 
ATOM     29  C   LIG    1      -38.169  71.433  24.803  0.00  0.00    +0.051 A 
ATOM     30  C   LIG    1      -37.517  71.499  26.026  0.00  0.00    +0.100 A 
BRANCH  22  32
ATOM     31  C   LIG    1      -36.355  68.791  27.828  0.00  0.00    +0.034 C 
ATOM     32  C   LIG    1      -35.827  70.157  27.334  0.00  0.00    +0.039 C 
ATOM     33  C   LIG    1      -34.298  70.037  27.153  0.00  0.00    +0.034 C 
ATOM     34  C   LIG    1      -36.066  71.210  28.436  0.00  0.00    +0.034 C 
ENDBRANCH  22  32
BRANCH  25  35
ATOM     35  N   LIG    1      -34.866  67.549  22.845  0.00  0.00    -0.327 N 
ATOM     36  H   LIG    1      -35.251  67.032  22.066  0.00  0.00    +0.145 HD
ATOM     37  H   LIG    1      -34.518  67.007  23.622  0.00  0.00    +0.145 HD
ENDBRANCH  25  35
ENDBRANCH  20  29
ENDBRANCH   1  20
TORSDOF 8
ENDMDL
MODEL 7
REMARK VINA RESULT:      -5.6     12.409     18.010
REMARK  Name = pdb/CHEMBL3671449.pdb
REMARK                            x       y       z     vdW  Elec       q    Type
REMARK                         _______ _______ _______ _____ _____    ______ ____
ROOT
ATOM      1  C   LIG    1      -34.555  71.448  28.218  0.00  0.00    +0.042 A 
ATOM      2  C   LIG    1      -35.128  71.196  26.951  0.00  0.00    +0.038 A 
ATOM      3  C   LIG    1      -34.697  70.087  26.199  0.00  0.00    +0.052 A 
ATOM      4  C   LIG    1      -33.671  69.318  26.750  0.00  0.00    +0.134 A 
ATOM      5  N   LIG    1      -33.147  69.499  27.986  0.00  0.00    -0.261 NA
ATOM      6  C   LIG    1      -33.636  70.531  28.701  0.00  0.00    +0.122 A 
ENDROOT
BRANCH   3   7
ATOM      7  N   LIG    1      -35.326  69.790  24.957  0.00  0.00    -0.283 N 
ATOM      8  H   LIG    1      -35.064  70.361  24.154  0.00  0.00    +0.155 HD
ATOM      9  C   LIG    1      -36.389  68.907  24.780  0.00  0.00    +0.239 C 
ATOM     10  O   LIG    1      -36.846  68.171  25.654  0.00  0.00    -0.273 OA
BRANCH   9  11
ATOM     11  C   LIG    1      -36.962  68.828  23.381  0.00  0.00    +0.239 C 
BRANCH  11  12
ATOM     12  N   LIG    1      -36.146  68.014  22.506  0.00  0.00    -0.262 N 
ATOM     13  N   LIG    1      -34.876  67.728  22.867  0.00  0.00    -0.179 NA
ATOM     14  C   LIG    1      -34.418  66.993  21.845  0.00  0.00    +0.138 A 
ATOM     15  C   LIG    1      -35.395  66.813  20.850  0.00  0.00    -0.007 A 
ATOM     16  C   LIG    1      -36.512  67.463  21.313  0.00  0.00    +0.112 A 
BRANCH  15  17
ATOM     17  C   LIG    1      -35.234  66.083  19.537  0.00  0.00    +0.022 C 
ATOM     18  C   LIG    1      -34.765  66.890  18.339  0.00  0.00    +0.009 C 
ATOM     19  C   LIG    1      -36.170  66.399  18.389  0.00  0.00    +0.009 C 
ENDBRANCH  15  17
ENDBRANCH  11  12
ENDBRANCH   9  11
ENDBRANCH   3   7
BRANCH   1  20
ATOM     20  C   LIG    1      -34.926  72.640  29.041  0.00  0.00    +0.197 C 
ATOM     21  O   LIG    1      -34.957  72.551  30.255  0.00  0.00    -0.287 OA
BRANCH  20  29
ATOM     22  N   LIG    1      -36.393  75.463  27.173  0.00  0.00    -0.326 N 
ATOM     23  C   LIG    1      -35.113  75.937  27.336  0.00  0.00    +0.147 A 
ATOM     24  N   LIG    1      -34.632  77.083  26.834  0.00  0.00    -0.197 NA
ATOM     25  C   LIG    1      -33.378  77.351  27.182  0.00  0.00    +0.214 A 
ATOM     26  N   LIG    1      -32.609  76.600  27.980  0.00  0.00    -0.222 NA
ATOM     27  C   LIG    1      -33.119  75.445  28.481  0.00  0.00    +0.126 A 
ATOM     28  C   LIG    1      -34.407  75.041  28.130  0.00  0.00    +0.048 A 
ATOM     29  C   LIG    1      -35.240  73.896  28.333  0.00  0.00    +0.051 A 
ATOM     30  C   LIG    1      -36.449  74.197  27.721  0.00  0.00    +0.100 A 
BRANCH  22  32
ATOM     31  C   LIG    1      -38.839  75.386  27.030  0.00  0.00    +0.034 C 
ATOM     32  C   LIG    1      -37.572  76.183  26.644  0.00  0.00    +0.039 C 
ATOM     33  C   LIG    1      -37.729  77.617  27.194  0.00  0.00    +0.034 C 
ATOM     34  C   LIG    1      -37.506  76.297  25.107  0.00  0.00    +0.034 C 
ENDBRANCH  22  32
BRANCH  25  35
ATOM     35  N   LIG    1      -32.814  78.471  26.598  0.00  0.00    -0.327 N 
ATOM     36  H   LIG    1      -33.197  79.295  27.044  0.00  0.00    +0.145 HD
ATOM     37  H   LIG    1      -32.910  78.412  25.594  0.00  0.00    +0.145 HD
ENDBRANCH  25  35
ENDBRANCH  20  29
ENDBRANCH   1  20
TORSDOF 8
ENDMDL
MODEL 8
REMARK VINA RESULT:      -5.5     15.369     17.671
REMARK  Name = pdb/CHEMBL3671449.pdb
REMARK                            x       y       z     vdW  Elec       q    Type
REMARK                         _______ _______ _______ _____ _____    ______ ____
ROOT
ATOM      1  C   LIG    1      -19.549  77.115  15.598  0.00  0.00    +0.042 A 
ATOM      2  C   LIG    1      -20.497  77.972  14.996  0.00  0.00    +0.038 A 
ATOM      3  C   LIG    1      -20.569  79.320  15.391  0.00  0.00    +0.052 A 
ATOM      4  C   LIG    1      -19.707  79.719  16.414  0.00  0.00    +0.134 A 
ATOM      5  N   LIG    1      -18.748  78.937  16.966  0.00  0.00    -0.261 NA
ATOM      6  C   LIG    1      -18.667  77.672  16.510  0.00  0.00    +0.122 A 
ENDROOT
BRANCH   3   7
ATOM      7  N   LIG    1      -21.472  80.202  14.731  0.00  0.00    -0.283 N 
ATOM      8  H   LIG    1      -21.073  80.864  14.067  0.00  0.00    +0.155 HD
ATOM      9  C   LIG    1      -22.821  80.357  15.039  0.00  0.00    +0.239 C 
ATOM     10  O   LIG    1      -23.445  79.662  15.840  0.00  0.00    -0.273 OA
BRANCH   9  11
ATOM     11  C   LIG    1      -23.559  81.430  14.268  0.00  0.00    +0.239 C 
BRANCH  11  12
ATOM     12  N   LIG    1      -23.109  82.759  14.621  0.00  0.00    -0.262 N 
ATOM     13  N   LIG    1      -22.892  83.058  15.921  0.00  0.00    -0.179 NA
ATOM     14  C   LIG    1      -22.512  84.341  15.888  0.00  0.00    +0.138 A 
ATOM     15  C   LIG    1      -22.486  84.847  14.577  0.00  0.00    -0.007 A 
ATOM     16  C   LIG    1      -22.852  83.796  13.772  0.00  0.00    +0.112 A 
BRANCH  15  17
ATOM     17  C   LIG    1      -22.153  86.258  14.151  0.00  0.00    +0.022 C 
ATOM     18  C   LIG    1      -20.704  86.700  14.261  0.00  0.00    +0.009 C 
ATOM     19  C   LIG    1      -21.718  87.267  15.193  0.00  0.00    +0.009 C 
ENDBRANCH  15  17
ENDBRANCH  11  12
ENDBRANCH   9  11
ENDBRANCH   3   7
BRANCH   1  20
ATOM     20  C   LIG    1      -19.459  75.659  15.266  0.00  0.00    +0.197 C 
ATOM     21  O   LIG    1      -19.009  75.311  14.190  0.00  0.00    -0.287 OA
BRANCH  20  29
ATOM     22  N   LIG    1      -21.291  73.299  17.430  0.00  0.00    -0.326 N 
ATOM     23  C   LIG    1      -20.076  73.301  18.072  0.00  0.00    +0.147 A 
ATOM     24  N   LIG    1      -19.788  72.651  19.207  0.00  0.00    -0.197 NA
ATOM     25  C   LIG    1      -18.523  72.760  19.598  0.00  0.00    +0.214 A 
ATOM     26  N   LIG    1      -17.559  73.426  18.950  0.00  0.00    -0.222 NA
ATOM     27  C   LIG    1      -17.871  74.074  17.798  0.00  0.00    +0.126 A 
ATOM     28  C   LIG    1      -19.186  74.071  17.331  0.00  0.00    +0.048 A 
ATOM     29  C   LIG    1      -19.928  74.692  16.277  0.00  0.00    +0.051 A 
ATOM     30  C   LIG    1      -21.218  74.194  16.381  0.00  0.00    +0.100 A 
BRANCH  22  32
ATOM     31  C   LIG    1      -22.863  72.570  19.165  0.00  0.00    +0.034 C 
ATOM     32  C   LIG    1      -22.455  72.419  17.682  0.00  0.00    +0.039 C 
ATOM     33  C   LIG    1      -23.689  72.749  16.814  0.00  0.00    +0.034 C 
ATOM     34  C   LIG    1      -22.098  70.943  17.412  0.00  0.00    +0.034 C 
ENDBRANCH  22  32
BRANCH  25  35
ATOM     35  N   LIG    1      -18.215  72.191  20.820  0.00  0.00    -0.327 N 
ATOM     36  H   LIG    1      -18.941  71.529  21.060  0.00  0.00    +0.145 HD
ATOM     37  H   LIG    1      -18.025  72.920  21.493  0.00  0.00    +0.145 HD
ENDBRANCH  25  35
ENDBRANCH  20  29
ENDBRANCH   1  20
TORSDOF 8
ENDMDL
MODEL 9
REMARK VINA RESULT:      -5.5     16.867     20.592
REMARK  Name = pdb/CHEMBL3671449.pdb
REMARK                            x       y       z     vdW  Elec       q    Type
REMARK                         _______ _______ _______ _____ _____    ______ ____
ROOT
ATOM      1  C   LIG    1      -22.765  82.091  14.576  0.00  0.00    +0.042 A 
ATOM      2  C   LIG    1      -22.467  80.745  14.265  0.00  0.00    +0.038 A 
ATOM      3  C   LIG    1      -22.096  79.857  15.292  0.00  0.00    +0.052 A 
ATOM      4  C   LIG    1      -21.999  80.393  16.578  0.00  0.00    +0.134 A 
ATOM      5  N   LIG    1      -22.337  81.661  16.914  0.00  0.00    -0.261 NA
ATOM      6  C   LIG    1      -22.753  82.459  15.912  0.00  0.00    +0.122 A 
ENDROOT
BRANCH   3   7
ATOM      7  N   LIG    1      -21.870  78.485  14.991  0.00  0.00    -0.283 N 
ATOM      8  H   LIG    1      -20.985  78.246  14.543  0.00  0.00    +0.155 HD
ATOM      9  C   LIG    1      -22.816  77.468  15.093  0.00  0.00    +0.239 C 
ATOM     10  O   LIG    1      -23.940  77.597  15.578  0.00  0.00    -0.273 OA
BRANCH   9  11
ATOM     11  C   LIG    1      -22.374  76.099  14.619  0.00  0.00    +0.239 C 
BRANCH  11  12
ATOM     12  N   LIG    1      -22.269  75.155  15.711  0.00  0.00    -0.262 N 
ATOM     13  N   LIG    1      -23.395  74.731  16.326  0.00  0.00    -0.179 NA
ATOM     14  C   LIG    1      -22.941  73.903  17.275  0.00  0.00    +0.138 A 
ATOM     15  C   LIG    1      -21.539  73.802  17.254  0.00  0.00    -0.007 A 
ATOM     16  C   LIG    1      -21.129  74.602  16.217  0.00  0.00    +0.112 A 
BRANCH  15  17
ATOM     17  C   LIG    1      -20.670  73.002  18.197  0.00  0.00    +0.022 C 
ATOM     18  C   LIG    1      -20.701  71.489  18.066  0.00  0.00    +0.009 C 
ATOM     19  C   LIG    1      -21.320  72.136  19.256  0.00  0.00    +0.009 C 
ENDBRANCH  15  17
ENDBRANCH  11  12
ENDBRANCH   9  11
ENDBRANCH   3   7
BRANCH   1  20
ATOM     20  C   LIG    1      -23.108  83.099  13.526  0.00  0.00    +0.197 C 
ATOM     21  O   LIG    1      -24.029  82.883  12.759  0.00  0.00    -0.287 OA
BRANCH  20  29
ATOM     22  N   LIG    1      -21.766  86.531  13.368  0.00  0.00    -0.326 N 
ATOM     23  C   LIG    1      -20.588  85.823  13.322  0.00  0.00    +0.147 A 
ATOM     24  N   LIG    1      -19.364  86.347  13.174  0.00  0.00    -0.197 NA
ATOM     25  C   LIG    1      -18.377  85.459  13.220  0.00  0.00    +0.214 A 
ATOM     26  N   LIG    1      -18.518  84.142  13.418  0.00  0.00    -0.222 NA
ATOM     27  C   LIG    1      -19.768  83.633  13.570  0.00  0.00    +0.126 A 
ATOM     28  C   LIG    1      -20.878  84.472  13.479  0.00  0.00    +0.048 A 
ATOM     29  C   LIG    1      -22.302  84.333  13.466  0.00  0.00    +0.051 A 
ATOM     30  C   LIG    1      -22.806  85.624  13.389  0.00  0.00    +0.100 A 
BRANCH  22  32
ATOM     31  C   LIG    1      -22.973  88.461  12.457  0.00  0.00    +0.034 C 
ATOM     32  C   LIG    1      -21.946  87.993  13.514  0.00  0.00    +0.039 C 
ATOM     33  C   LIG    1      -22.465  88.425  14.902  0.00  0.00    +0.034 C 
ATOM     34  C   LIG    1      -20.617  88.739  13.279  0.00  0.00    +0.034 C 
ENDBRANCH  22  32
BRANCH  25  35
ATOM     35  N   LIG    1      -17.109  85.948  12.966  0.00  0.00    -0.327 N 
ATOM     36  H   LIG    1      -17.130  86.956  13.048  0.00  0.00    +0.145 HD
ATOM     37  H   LIG    1      -16.771  85.570  12.093  0.00  0.00    +0.145 HD
ENDBRANCH  25  35
ENDBRANCH  20  29
ENDBRANCH   1  20
TORSDOF 8
ENDMDL
