MODEL 1
REMARK VINA RESULT:      -6.7      0.000      0.000
REMARK  Name = pdb/CHEMBL3935148.pdb
REMARK                            x       y       z     vdW  Elec       q    Type
REMARK                         _______ _______ _______ _____ _____    ______ ____
ROOT
ATOM      1  C   LIG    1      -31.335  86.956  30.745  0.00  0.00    +0.149 A 
ATOM      2  N   LIG    1      -32.248  87.801  30.240  0.00  0.00    -0.160 NA
ATOM      3  N   LIG    1      -33.290  87.018  29.859  0.00  0.00    -0.218 N 
ATOM      4  C   LIG    1      -32.964  85.656  29.936  0.00  0.00    +0.129 A 
ATOM      5  C   LIG    1      -31.750  85.614  30.581  0.00  0.00    +0.078 A 
ENDROOT
BRANCH   3   6
ATOM      6  C   LIG    1      -34.506  87.626  29.425  0.00  0.00    +0.067 A 
ATOM      7  C   LIG    1      -35.691  87.389  30.142  0.00  0.00    +0.028 A 
ATOM      8  C   LIG    1      -36.893  87.981  29.741  0.00  0.00    +0.002 A 
ATOM      9  C   LIG    1      -36.925  88.808  28.620  0.00  0.00    +0.000 A 
ATOM     10  C   LIG    1      -35.761  89.020  27.883  0.00  0.00    +0.002 A 
ATOM     11  C   LIG    1      -34.558  88.417  28.271  0.00  0.00    +0.028 A 
ENDBRANCH   3   6
BRANCH   4  12
ATOM     12  N   LIG    1      -33.663  84.560  29.412  0.00  0.00    -0.266 N 
ATOM     13  H   LIG    1      -33.433  84.288  28.457  0.00  0.00    +0.157 HD
ATOM     14  C   LIG    1      -34.599  83.757  30.159  0.00  0.00    +0.251 C 
ATOM     15  O   LIG    1      -34.823  84.001  31.342  0.00  0.00    -0.270 OA
BRANCH  14  16
ATOM     16  C   LIG    1      -35.295  82.620  29.482  0.00  0.00    +0.056 A 
ATOM     17  C   LIG    1      -36.678  82.485  29.339  0.00  0.00    +0.054 A 
ATOM     18 CL   LIG    1      -37.833  83.653  29.854  0.00  0.00    -0.083 Cl
ATOM     19  C   LIG    1      -37.206  81.346  28.729  0.00  0.00    +0.041 A 
ATOM     20  C   LIG    1      -36.382  80.324  28.237  0.00  0.00    +0.052 A 
ATOM     21 CL   LIG    1      -37.229  79.049  27.431  0.00  0.00    -0.083 Cl
ATOM     22  C   LIG    1      -34.984  80.399  28.368  0.00  0.00    +0.019 A 
ATOM     23  C   LIG    1      -34.479  81.575  28.987  0.00  0.00    +0.026 A 
BRANCH  22  24
ATOM     24  C   LIG    1      -34.012  79.356  27.933  0.00  0.00    +0.072 A 
ATOM     25  N   LIG    1      -33.353  79.639  26.778  0.00  0.00    -0.255 NA
ATOM     26  C   LIG    1      -32.385  78.788  26.361  0.00  0.00    +0.111 A 
ATOM     27  C   LIG    1      -32.029  77.637  27.037  0.00  0.00    +0.020 A 
ATOM     28  C   LIG    1      -32.708  77.341  28.206  0.00  0.00    +0.004 A 
ATOM     29  C   LIG    1      -33.696  78.211  28.665  0.00  0.00    +0.028 A 
ENDBRANCH  22  24
ENDBRANCH  14  16
ENDBRANCH   4  12
BRANCH   1  31
ATOM     30  N   LIG    1      -29.953  87.383  32.620  0.00  0.00    -0.246 NA
ATOM     31  C   LIG    1      -30.067  87.383  31.343  0.00  0.00    +0.236 C 
BRANCH  30  35
ATOM     32  C   LIG    1      -27.578  88.309  36.005  0.00  0.00    +0.115 C 
ATOM     33  C   LIG    1      -27.877  89.449  35.033  0.00  0.00    +0.033 C 
ATOM     34  C   LIG    1      -29.014  89.087  34.083  0.00  0.00    +0.029 C 
ATOM     35  C   LIG    1      -28.746  87.777  33.332  0.00  0.00    +0.109 C 
ATOM     36  C   LIG    1      -28.399  86.640  34.307  0.00  0.00    +0.029 C 
ATOM     37  C   LIG    1      -27.263  87.019  35.253  0.00  0.00    +0.033 C 
BRANCH  32  38
ATOM     38  O   LIG    1      -26.482  88.663  36.837  0.00  0.00    -0.392 OA
ATOM     39  H   LIG    1      -26.527  89.616  37.021  0.00  0.00    +0.210 HD
ENDBRANCH  32  38
ENDBRANCH  30  35
BRANCH  31  40
ATOM     40  O   LIG    1      -29.102  87.755  30.481  0.00  0.00    -0.491 OA
ATOM     41  H   LIG    1      -28.675  86.996  30.070  0.00  0.00    +0.294 HD
ENDBRANCH  31  40
ENDBRANCH   1  31
TORSDOF 8
ENDMDL
MODEL 2
REMARK VINA RESULT:      -6.7     18.445     20.110
REMARK  Name = pdb/CHEMBL3935148.pdb
REMARK                            x       y       z     vdW  Elec       q    Type
REMARK                         _______ _______ _______ _____ _____    ______ ____
ROOT
ATOM      1  C   LIG    1      -22.816  82.622  15.454  0.00  0.00    +0.149 A 
ATOM      2  N   LIG    1      -23.825  82.081  14.752  0.00  0.00    -0.160 NA
ATOM      3  N   LIG    1      -23.718  80.740  14.942  0.00  0.00    -0.218 N 
ATOM      4  C   LIG    1      -22.526  80.410  15.603  0.00  0.00    +0.129 A 
ATOM      5  C   LIG    1      -21.993  81.612  16.005  0.00  0.00    +0.078 A 
ENDROOT
BRANCH   3   6
ATOM      6  C   LIG    1      -24.745  79.876  14.457  0.00  0.00    +0.067 A 
ATOM      7  C   LIG    1      -25.121  79.943  13.105  0.00  0.00    +0.028 A 
ATOM      8  C   LIG    1      -26.119  79.100  12.605  0.00  0.00    +0.002 A 
ATOM      9  C   LIG    1      -26.753  78.190  13.447  0.00  0.00    +0.000 A 
ATOM     10  C   LIG    1      -26.410  78.142  14.797  0.00  0.00    +0.002 A 
ATOM     11  C   LIG    1      -25.422  78.994  15.308  0.00  0.00    +0.028 A 
ENDBRANCH   3   6
BRANCH   4  12
ATOM     12  N   LIG    1      -21.941  79.147  15.767  0.00  0.00    -0.266 N 
ATOM     13  H   LIG    1      -21.938  78.766  16.713  0.00  0.00    +0.157 HD
ATOM     14  C   LIG    1      -21.438  78.335  14.688  0.00  0.00    +0.251 C 
ATOM     15  O   LIG    1      -21.517  78.725  13.525  0.00  0.00    -0.270 OA
BRANCH  14  16
ATOM     16  C   LIG    1      -20.820  77.007  14.993  0.00  0.00    +0.056 A 
ATOM     17  C   LIG    1      -19.509  76.633  14.688  0.00  0.00    +0.054 A 
ATOM     18 CL   LIG    1      -18.338  77.670  13.968  0.00  0.00    -0.083 Cl
ATOM     19  C   LIG    1      -19.069  75.342  14.982  0.00  0.00    +0.041 A 
ATOM     20  C   LIG    1      -19.906  74.398  15.592  0.00  0.00    +0.052 A 
ATOM     21 CL   LIG    1      -19.138  72.892  15.958  0.00  0.00    -0.083 Cl
ATOM     22  C   LIG    1      -21.240  74.714  15.907  0.00  0.00    +0.019 A 
ATOM     23  C   LIG    1      -21.654  76.040  15.602  0.00  0.00    +0.026 A 
BRANCH  22  24
ATOM     24  C   LIG    1      -22.237  73.782  16.507  0.00  0.00    +0.072 A 
ATOM     25  N   LIG    1      -23.159  73.297  15.633  0.00  0.00    -0.255 NA
ATOM     26  C   LIG    1      -24.045  72.373  16.076  0.00  0.00    +0.111 A 
ATOM     27  C   LIG    1      -24.075  71.894  17.371  0.00  0.00    +0.020 A 
ATOM     28  C   LIG    1      -23.145  72.397  18.265  0.00  0.00    +0.004 A 
ATOM     29  C   LIG    1      -22.211  73.336  17.828  0.00  0.00    +0.028 A 
ENDBRANCH  22  24
ENDBRANCH  14  16
ENDBRANCH   4  12
BRANCH   1  31
ATOM     30  N   LIG    1      -22.121  84.712  14.587  0.00  0.00    -0.246 NA
ATOM     31  C   LIG    1      -22.592  84.063  15.587  0.00  0.00    +0.236 C 
BRANCH  30  35
ATOM     32  C   LIG    1      -21.222  88.494  12.899  0.00  0.00    +0.115 C 
ATOM     33  C   LIG    1      -20.174  87.879  13.825  0.00  0.00    +0.033 C 
ATOM     34  C   LIG    1      -20.443  86.398  14.065  0.00  0.00    +0.029 C 
ATOM     35  C   LIG    1      -21.862  86.145  14.592  0.00  0.00    +0.109 C 
ATOM     36  C   LIG    1      -22.915  86.803  13.685  0.00  0.00    +0.029 C 
ATOM     37  C   LIG    1      -22.629  88.284  13.451  0.00  0.00    +0.033 C 
BRANCH  32  38
ATOM     38  O   LIG    1      -20.968  89.883  12.741  0.00  0.00    -0.392 OA
ATOM     39  H   LIG    1      -20.008  90.016  12.666  0.00  0.00    +0.210 HD
ENDBRANCH  32  38
ENDBRANCH  30  35
BRANCH  31  40
ATOM     40  O   LIG    1      -22.903  84.602  16.781  0.00  0.00    -0.491 OA
ATOM     41  H   LIG    1      -22.889  85.565  16.755  0.00  0.00    +0.294 HD
ENDBRANCH  31  40
ENDBRANCH   1  31
TORSDOF 8
ENDMDL
MODEL 3
REMARK VINA RESULT:      -6.7      6.317     10.736
REMARK  Name = pdb/CHEMBL3935148.pdb
REMARK                            x       y       z     vdW  Elec       q    Type
REMARK                         _______ _______ _______ _____ _____    ______ ____
ROOT
ATOM      1  C   LIG    1      -37.294  79.897  27.662  0.00  0.00    +0.149 A 
ATOM      2  N   LIG    1      -36.365  79.056  28.144  0.00  0.00    -0.160 NA
ATOM      3  N   LIG    1      -36.610  77.864  27.539  0.00  0.00    -0.218 N 
ATOM      4  C   LIG    1      -37.814  77.891  26.823  0.00  0.00    +0.129 A 
ATOM      5  C   LIG    1      -38.207  79.209  26.829  0.00  0.00    +0.078 A 
ENDROOT
BRANCH   3   6
ATOM      6  C   LIG    1      -35.692  76.785  27.713  0.00  0.00    +0.067 A 
ATOM      7  C   LIG    1      -34.354  76.946  27.313  0.00  0.00    +0.028 A 
ATOM      8  C   LIG    1      -33.435  75.905  27.481  0.00  0.00    +0.002 A 
ATOM      9  C   LIG    1      -33.841  74.697  28.043  0.00  0.00    +0.000 A 
ATOM     10  C   LIG    1      -35.174  74.518  28.410  0.00  0.00    +0.002 A 
ATOM     11  C   LIG    1      -36.103  75.550  28.229  0.00  0.00    +0.028 A 
ENDBRANCH   3   6
BRANCH   4  12
ATOM     12  N   LIG    1      -38.527  76.816  26.274  0.00  0.00    -0.266 N 
ATOM     13  H   LIG    1      -39.390  76.553  26.748  0.00  0.00    +0.157 HD
ATOM     14  C   LIG    1      -38.167  76.137  25.054  0.00  0.00    +0.251 C 
ATOM     15  O   LIG    1      -37.186  76.495  24.408  0.00  0.00    -0.270 OA
BRANCH  14  16
ATOM     16  C   LIG    1      -39.001  74.990  24.579  0.00  0.00    +0.056 A 
ATOM     17  C   LIG    1      -40.267  75.094  23.996  0.00  0.00    +0.054 A 
ATOM     18 CL   LIG    1      -41.064  76.579  23.648  0.00  0.00    -0.083 Cl
ATOM     19  C   LIG    1      -40.965  73.939  23.640  0.00  0.00    +0.041 A 
ATOM     20  C   LIG    1      -40.427  72.661  23.841  0.00  0.00    +0.052 A 
ATOM     21 CL   LIG    1      -41.410  71.369  23.243  0.00  0.00    -0.083 Cl
ATOM     22  C   LIG    1      -39.165  72.495  24.439  0.00  0.00    +0.019 A 
ATOM     23  C   LIG    1      -38.477  73.692  24.781  0.00  0.00    +0.026 A 
BRANCH  22  24
ATOM     24  C   LIG    1      -38.514  71.191  24.751  0.00  0.00    +0.072 A 
ATOM     25  N   LIG    1      -38.598  70.811  26.054  0.00  0.00    -0.255 NA
ATOM     26  C   LIG    1      -38.113  69.595  26.404  0.00  0.00    +0.111 A 
ATOM     27  C   LIG    1      -37.526  68.715  25.516  0.00  0.00    +0.020 A 
ATOM     28  C   LIG    1      -37.428  69.107  24.192  0.00  0.00    +0.004 A 
ATOM     29  C   LIG    1      -37.937  70.345  23.803  0.00  0.00    +0.028 A 
ENDBRANCH  22  24
ENDBRANCH  14  16
ENDBRANCH   4  12
BRANCH   1  31
ATOM     30  N   LIG    1      -36.532  82.127  27.442  0.00  0.00    -0.246 NA
ATOM     31  C   LIG    1      -37.360  81.322  27.996  0.00  0.00    +0.236 C 
BRANCH  30  35
ATOM     32  C   LIG    1      -34.814  85.998  27.596  0.00  0.00    +0.115 C 
ATOM     33  C   LIG    1      -35.209  85.360  28.927  0.00  0.00    +0.033 C 
ATOM     34  C   LIG    1      -35.464  83.864  28.772  0.00  0.00    +0.029 C 
ATOM     35  C   LIG    1      -36.503  83.563  27.685  0.00  0.00    +0.109 C 
ATOM     36  C   LIG    1      -36.130  84.244  26.358  0.00  0.00    +0.029 C 
ATOM     37  C   LIG    1      -35.874  85.738  26.529  0.00  0.00    +0.033 C 
BRANCH  32  38
ATOM     38  O   LIG    1      -34.635  87.397  27.769  0.00  0.00    -0.392 OA
ATOM     39  H   LIG    1      -35.355  87.861  27.309  0.00  0.00    +0.210 HD
ENDBRANCH  32  38
ENDBRANCH  30  35
BRANCH  31  40
ATOM     40  O   LIG    1      -38.308  81.677  28.884  0.00  0.00    -0.491 OA
ATOM     41  H   LIG    1      -38.671  80.914  29.347  0.00  0.00    +0.294 HD
ENDBRANCH  31  40
ENDBRANCH   1  31
TORSDOF 8
ENDMDL
MODEL 4
REMARK VINA RESULT:      -6.6     18.670     20.004
REMARK  Name = pdb/CHEMBL3935148.pdb
REMARK                            x       y       z     vdW  Elec       q    Type
REMARK                         _______ _______ _______ _____ _____    ______ ____
ROOT
ATOM      1  C   LIG    1      -22.863  81.950  14.911  0.00  0.00    +0.149 A 
ATOM      2  N   LIG    1      -22.239  80.866  15.399  0.00  0.00    -0.160 NA
ATOM      3  N   LIG    1      -22.774  79.811  14.731  0.00  0.00    -0.218 N 
ATOM      4  C   LIG    1      -23.878  80.200  13.959  0.00  0.00    +0.129 A 
ATOM      5  C   LIG    1      -23.882  81.575  14.006  0.00  0.00    +0.078 A 
ENDROOT
BRANCH   3   6
ATOM      6  C   LIG    1      -22.210  78.511  14.900  0.00  0.00    +0.067 A 
ATOM      7  C   LIG    1      -20.834  78.323  14.688  0.00  0.00    +0.028 A 
ATOM      8  C   LIG    1      -20.257  77.060  14.857  0.00  0.00    +0.002 A 
ATOM      9  C   LIG    1      -21.047  75.975  15.230  0.00  0.00    +0.000 A 
ATOM     10  C   LIG    1      -22.419  76.146  15.407  0.00  0.00    +0.002 A 
ATOM     11  C   LIG    1      -23.005  77.405  15.225  0.00  0.00    +0.028 A 
ENDBRANCH   3   6
BRANCH   4  12
ATOM     12  N   LIG    1      -24.832  79.389  13.329  0.00  0.00    -0.266 N 
ATOM     13  H   LIG    1      -24.664  79.168  12.348  0.00  0.00    +0.157 HD
ATOM     14  C   LIG    1      -25.959  78.787  13.996  0.00  0.00    +0.251 C 
ATOM     15  O   LIG    1      -26.133  78.956  15.201  0.00  0.00    -0.270 OA
BRANCH  14  16
ATOM     16  C   LIG    1      -26.918  77.952  13.209  0.00  0.00    +0.056 A 
ATOM     17  C   LIG    1      -26.838  76.567  13.038  0.00  0.00    +0.054 A 
ATOM     18 CL   LIG    1      -25.652  75.559  13.775  0.00  0.00    -0.083 Cl
ATOM     19  C   LIG    1      -27.770  75.911  12.235  0.00  0.00    +0.041 A 
ATOM     20  C   LIG    1      -28.807  76.602  11.593  0.00  0.00    +0.052 A 
ATOM     21 CL   LIG    1      -29.910  75.590  10.726  0.00  0.00    -0.083 Cl
ATOM     22  C   LIG    1      -28.928  77.998  11.715  0.00  0.00    +0.019 A 
ATOM     23  C   LIG    1      -27.966  78.634  12.548  0.00  0.00    +0.026 A 
BRANCH  22  24
ATOM     24  C   LIG    1      -29.952  78.846  11.042  0.00  0.00    +0.072 A 
ATOM     25  N   LIG    1      -31.022  79.168  11.817  0.00  0.00    -0.255 NA
ATOM     26  C   LIG    1      -31.954  80.011  11.312  0.00  0.00    +0.111 A 
ATOM     27  C   LIG    1      -31.889  80.563  10.047  0.00  0.00    +0.020 A 
ATOM     28  C   LIG    1      -30.807  80.226   9.253  0.00  0.00    +0.004 A 
ATOM     29  C   LIG    1      -29.825  79.373   9.757  0.00  0.00    +0.028 A 
ENDBRANCH  22  24
ENDBRANCH  14  16
ENDBRANCH   4  12
BRANCH   1  31
ATOM     30  N   LIG    1      -22.251  84.178  14.396  0.00  0.00    -0.246 NA
ATOM     31  C   LIG    1      -22.544  83.324  15.305  0.00  0.00    +0.236 C 
BRANCH  30  35
ATOM     32  C   LIG    1      -21.151  88.152  13.418  0.00  0.00    +0.115 C 
ATOM     33  C   LIG    1      -20.146  87.331  14.223  0.00  0.00    +0.033 C 
ATOM     34  C   LIG    1      -20.489  85.845  14.193  0.00  0.00    +0.029 C 
ATOM     35  C   LIG    1      -21.925  85.573  14.658  0.00  0.00    +0.109 C 
ATOM     36  C   LIG    1      -22.933  86.433  13.879  0.00  0.00    +0.029 C 
ATOM     37  C   LIG    1      -22.574  87.916  13.915  0.00  0.00    +0.033 C 
BRANCH  32  38
ATOM     38  O   LIG    1      -20.829  89.533  13.512  0.00  0.00    -0.392 OA
ATOM     39  H   LIG    1      -20.886  89.801  14.444  0.00  0.00    +0.210 HD
ENDBRANCH  32  38
ENDBRANCH  30  35
BRANCH  31  40
ATOM     40  O   LIG    1      -22.581  83.585  16.626  0.00  0.00    -0.491 OA
ATOM     41  H   LIG    1      -23.376  84.066  16.875  0.00  0.00    +0.294 HD
ENDBRANCH  31  40
ENDBRANCH   1  31
TORSDOF 8
ENDMDL
MODEL 5
REMARK VINA RESULT:      -6.6      8.604     13.415
REMARK  Name = pdb/CHEMBL3935148.pdb
REMARK                            x       y       z     vdW  Elec       q    Type
REMARK                         _______ _______ _______ _____ _____    ______ ____
ROOT
ATOM      1  C   LIG    1      -38.200  76.870  25.988  0.00  0.00    +0.149 A 
ATOM      2  N   LIG    1      -39.247  76.620  25.187  0.00  0.00    -0.160 NA
ATOM      3  N   LIG    1      -39.172  75.295  24.899  0.00  0.00    -0.218 N 
ATOM      4  C   LIG    1      -37.967  74.739  25.353  0.00  0.00    +0.129 A 
ATOM      5  C   LIG    1      -37.387  75.721  26.121  0.00  0.00    +0.078 A 
ENDROOT
BRANCH   3   6
ATOM      6  C   LIG    1      -40.240  74.666  24.190  0.00  0.00    +0.067 A 
ATOM      7  C   LIG    1      -41.319  75.444  23.736  0.00  0.00    +0.028 A 
ATOM      8  C   LIG    1      -42.372  74.852  23.032  0.00  0.00    +0.002 A 
ATOM      9  C   LIG    1      -42.363  73.482  22.782  0.00  0.00    +0.000 A 
ATOM     10  C   LIG    1      -41.314  72.698  23.260  0.00  0.00    +0.002 A 
ATOM     11  C   LIG    1      -40.264  73.282  23.979  0.00  0.00    +0.028 A 
ENDBRANCH   3   6
BRANCH   4  12
ATOM     12  N   LIG    1      -37.413  73.489  25.046  0.00  0.00    -0.266 N 
ATOM     13  H   LIG    1      -36.882  73.428  24.177  0.00  0.00    +0.157 HD
ATOM     14  C   LIG    1      -37.469  72.337  25.910  0.00  0.00    +0.251 C 
ATOM     15  O   LIG    1      -38.018  72.408  27.007  0.00  0.00    -0.270 OA
BRANCH  14  16
ATOM     16  C   LIG    1      -36.851  71.051  25.462  0.00  0.00    +0.056 A 
ATOM     17  C   LIG    1      -35.704  70.469  26.006  0.00  0.00    +0.054 A 
ATOM     18 CL   LIG    1      -34.835  71.095  27.354  0.00  0.00    -0.083 Cl
ATOM     19  C   LIG    1      -35.199  69.288  25.462  0.00  0.00    +0.041 A 
ATOM     20  C   LIG    1      -35.818  68.651  24.378  0.00  0.00    +0.052 A 
ATOM     21 CL   LIG    1      -35.090  67.151  23.918  0.00  0.00    -0.083 Cl
ATOM     22  C   LIG    1      -36.966  69.200  23.778  0.00  0.00    +0.019 A 
ATOM     23  C   LIG    1      -37.459  70.399  24.363  0.00  0.00    +0.026 A 
BRANCH  22  24
ATOM     24  C   LIG    1      -37.680  68.646  22.593  0.00  0.00    +0.072 A 
ATOM     25  N   LIG    1      -38.862  68.035  22.877  0.00  0.00    -0.255 NA
ATOM     26  C   LIG    1      -39.619  67.585  21.848  0.00  0.00    +0.111 A 
ATOM     27  C   LIG    1      -39.259  67.701  20.519  0.00  0.00    +0.020 A 
ATOM     28  C   LIG    1      -38.051  68.311  20.230  0.00  0.00    +0.004 A 
ATOM     29  C   LIG    1      -37.262  68.799  21.272  0.00  0.00    +0.028 A 
ENDBRANCH  22  24
ENDBRANCH  14  16
ENDBRANCH   4  12
BRANCH   1  31
ATOM     30  N   LIG    1      -36.887  78.311  27.332  0.00  0.00    -0.246 NA
ATOM     31  C   LIG    1      -37.930  78.174  26.600  0.00  0.00    +0.236 C 
BRANCH  30  35
ATOM     32  C   LIG    1      -35.012  80.734  30.259  0.00  0.00    +0.115 C 
ATOM     33  C   LIG    1      -36.539  80.727  30.238  0.00  0.00    +0.033 C 
ATOM     34  C   LIG    1      -37.079  79.566  29.409  0.00  0.00    +0.029 C 
ATOM     35  C   LIG    1      -36.506  79.555  27.986  0.00  0.00    +0.109 C 
ATOM     36  C   LIG    1      -34.969  79.609  28.007  0.00  0.00    +0.029 C 
ATOM     37  C   LIG    1      -34.446  80.773  28.843  0.00  0.00    +0.033 C 
BRANCH  32  38
ATOM     38  O   LIG    1      -34.547  81.857  30.996  0.00  0.00    -0.392 OA
ATOM     39  H   LIG    1      -35.305  82.432  31.196  0.00  0.00    +0.210 HD
ENDBRANCH  32  38
ENDBRANCH  30  35
BRANCH  31  40
ATOM     40  O   LIG    1      -38.825  79.145  26.340  0.00  0.00    -0.491 OA
ATOM     41  H   LIG    1      -39.699  78.929  26.682  0.00  0.00    +0.294 HD
ENDBRANCH  31  40
ENDBRANCH   1  31
TORSDOF 8
ENDMDL
MODEL 6
REMARK VINA RESULT:      -6.5      9.183     14.940
REMARK  Name = pdb/CHEMBL3935148.pdb
REMARK                            x       y       z     vdW  Elec       q    Type
REMARK                         _______ _______ _______ _____ _____    ______ ____
ROOT
ATOM      1  C   LIG    1      -29.288  75.753  31.612  0.00  0.00    +0.149 A 
ATOM      2  N   LIG    1      -28.821  74.495  31.573  0.00  0.00    -0.160 NA
ATOM      3  N   LIG    1      -27.556  74.565  32.063  0.00  0.00    -0.218 N 
ATOM      4  C   LIG    1      -27.144  75.895  32.230  0.00  0.00    +0.129 A 
ATOM      5  C   LIG    1      -28.276  76.650  32.025  0.00  0.00    +0.078 A 
ENDROOT
BRANCH   3   6
ATOM      6  C   LIG    1      -26.829  73.362  32.309  0.00  0.00    +0.067 A 
ATOM      7  C   LIG    1      -25.849  72.949  31.390  0.00  0.00    +0.028 A 
ATOM      8  C   LIG    1      -25.118  71.778  31.615  0.00  0.00    +0.002 A 
ATOM      9  C   LIG    1      -25.360  71.008  32.749  0.00  0.00    +0.000 A 
ATOM     10  C   LIG    1      -26.355  71.392  33.647  0.00  0.00    +0.002 A 
ATOM     11  C   LIG    1      -27.102  72.556  33.420  0.00  0.00    +0.028 A 
ENDBRANCH   3   6
BRANCH   4  12
ATOM     12  N   LIG    1      -25.854  76.384  32.476  0.00  0.00    -0.266 N 
ATOM     13  H   LIG    1      -25.531  76.348  33.442  0.00  0.00    +0.157 HD
ATOM     14  C   LIG    1      -24.945  76.838  31.454  0.00  0.00    +0.251 C 
ATOM     15  O   LIG    1      -25.271  76.801  30.269  0.00  0.00    -0.270 OA
BRANCH  14  16
ATOM     16  C   LIG    1      -23.597  77.353  31.845  0.00  0.00    +0.056 A 
ATOM     17  C   LIG    1      -22.404  77.110  31.159  0.00  0.00    +0.054 A 
ATOM     18 CL   LIG    1      -22.287  76.230  29.684  0.00  0.00    -0.083 Cl
ATOM     19  C   LIG    1      -21.201  77.609  31.659  0.00  0.00    +0.041 A 
ATOM     20  C   LIG    1      -21.149  78.365  32.838  0.00  0.00    +0.052 A 
ATOM     21 CL   LIG    1      -19.576  78.969  33.231  0.00  0.00    -0.083 Cl
ATOM     22  C   LIG    1      -22.314  78.627  33.579  0.00  0.00    +0.019 A 
ATOM     23  C   LIG    1      -23.525  78.112  33.038  0.00  0.00    +0.026 A 
BRANCH  22  24
ATOM     24  C   LIG    1      -22.378  79.371  34.869  0.00  0.00    +0.072 A 
ATOM     25  N   LIG    1      -21.816  78.725  35.926  0.00  0.00    -0.255 NA
ATOM     26  C   LIG    1      -21.749  79.370  37.115  0.00  0.00    +0.111 A 
ATOM     27  C   LIG    1      -22.225  80.650  37.325  0.00  0.00    +0.020 A 
ATOM     28  C   LIG    1      -22.809  81.303  36.253  0.00  0.00    +0.004 A 
ATOM     29  C   LIG    1      -22.873  80.666  35.014  0.00  0.00    +0.028 A 
ENDBRANCH  22  24
ENDBRANCH  14  16
ENDBRANCH   4  12
BRANCH   1  31
ATOM     30  N   LIG    1      -31.028  75.973  30.022  0.00  0.00    -0.246 NA
ATOM     31  C   LIG    1      -30.653  76.132  31.236  0.00  0.00    +0.236 C 
BRANCH  30  35
ATOM     32  C   LIG    1      -34.162  76.191  27.177  0.00  0.00    +0.115 C 
ATOM     33  C   LIG    1      -33.551  77.512  27.641  0.00  0.00    +0.033 C 
ATOM     34  C   LIG    1      -32.225  77.290  28.361  0.00  0.00    +0.029 C 
ATOM     35  C   LIG    1      -32.358  76.303  29.527  0.00  0.00    +0.109 C 
ATOM     36  C   LIG    1      -33.015  74.990  29.070  0.00  0.00    +0.029 C 
ATOM     37  C   LIG    1      -34.338  75.229  28.349  0.00  0.00    +0.033 C 
BRANCH  32  38
ATOM     38  O   LIG    1      -35.418  76.433  26.559  0.00  0.00    -0.392 OA
ATOM     39  H   LIG    1      -35.316  77.162  25.924  0.00  0.00    +0.210 HD
ENDBRANCH  32  38
ENDBRANCH  30  35
BRANCH  31  40
ATOM     40  O   LIG    1      -31.419  76.636  32.222  0.00  0.00    -0.491 OA
ATOM     41  H   LIG    1      -31.622  75.975  32.893  0.00  0.00    +0.294 HD
ENDBRANCH  31  40
ENDBRANCH   1  31
TORSDOF 8
ENDMDL
MODEL 7
REMARK VINA RESULT:      -6.5     12.753     18.962
REMARK  Name = pdb/CHEMBL3935148.pdb
REMARK                            x       y       z     vdW  Elec       q    Type
REMARK                         _______ _______ _______ _____ _____    ______ ____
ROOT
ATOM      1  C   LIG    1      -35.164  67.459  22.956  0.00  0.00    +0.149 A 
ATOM      2  N   LIG    1      -34.712  67.950  24.120  0.00  0.00    -0.160 NA
ATOM      3  N   LIG    1      -35.626  68.882  24.497  0.00  0.00    -0.218 N 
ATOM      4  C   LIG    1      -36.557  69.128  23.478  0.00  0.00    +0.129 A 
ATOM      5  C   LIG    1      -36.315  68.161  22.530  0.00  0.00    +0.078 A 
ENDROOT
BRANCH   3   6
ATOM      6  C   LIG    1      -35.526  69.485  25.787  0.00  0.00    +0.067 A 
ATOM      7  C   LIG    1      -36.367  69.042  26.823  0.00  0.00    +0.028 A 
ATOM      8  C   LIG    1      -36.281  69.612  28.097  0.00  0.00    +0.002 A 
ATOM      9  C   LIG    1      -35.364  70.630  28.347  0.00  0.00    +0.000 A 
ATOM     10  C   LIG    1      -34.552  71.099  27.316  0.00  0.00    +0.002 A 
ATOM     11  C   LIG    1      -34.643  70.543  26.034  0.00  0.00    +0.028 A 
ENDBRANCH   3   6
BRANCH   4  12
ATOM     12  N   LIG    1      -37.491  70.169  23.382  0.00  0.00    -0.266 N 
ATOM     13  H   LIG    1      -37.244  70.946  22.771  0.00  0.00    +0.157 HD
ATOM     14  C   LIG    1      -38.789  70.160  24.008  0.00  0.00    +0.251 C 
ATOM     15  O   LIG    1      -39.155  69.192  24.671  0.00  0.00    -0.270 OA
BRANCH  14  16
ATOM     16  C   LIG    1      -39.692  71.341  23.843  0.00  0.00    +0.056 A 
ATOM     17  C   LIG    1      -40.904  71.346  23.148  0.00  0.00    +0.054 A 
ATOM     18 CL   LIG    1      -41.616  69.960  22.416  0.00  0.00    -0.083 Cl
ATOM     19  C   LIG    1      -41.629  72.531  23.024  0.00  0.00    +0.041 A 
ATOM     20  C   LIG    1      -41.183  73.732  23.592  0.00  0.00    +0.052 A 
ATOM     21 CL   LIG    1      -42.276  75.059  23.407  0.00  0.00    -0.083 Cl
ATOM     22  C   LIG    1      -39.963  73.791  24.289  0.00  0.00    +0.019 A 
ATOM     23  C   LIG    1      -39.253  72.564  24.403  0.00  0.00    +0.026 A 
BRANCH  22  24
ATOM     24  C   LIG    1      -39.361  75.015  24.889  0.00  0.00    +0.072 A 
ATOM     25  N   LIG    1      -40.165  75.671  25.768  0.00  0.00    -0.255 NA
ATOM     26  C   LIG    1      -39.662  76.742  26.428  0.00  0.00    +0.111 A 
ATOM     27  C   LIG    1      -38.376  77.217  26.258  0.00  0.00    +0.020 A 
ATOM     28  C   LIG    1      -37.561  76.557  25.354  0.00  0.00    +0.004 A 
ATOM     29  C   LIG    1      -38.051  75.441  24.676  0.00  0.00    +0.028 A 
ENDBRANCH  22  24
ENDBRANCH  14  16
ENDBRANCH   4  12
BRANCH   1  31
ATOM     30  N   LIG    1      -33.897  66.640  21.131  0.00  0.00    -0.246 NA
ATOM     31  C   LIG    1      -34.516  66.370  22.220  0.00  0.00    +0.236 C 
BRANCH  30  35
ATOM     32  C   LIG    1      -32.238  65.012  17.588  0.00  0.00    +0.115 C 
ATOM     33  C   LIG    1      -33.447  64.292  18.184  0.00  0.00    +0.033 C 
ATOM     34  C   LIG    1      -34.158  65.161  19.215  0.00  0.00    +0.029 C 
ATOM     35  C   LIG    1      -33.208  65.649  20.316  0.00  0.00    +0.109 C 
ATOM     36  C   LIG    1      -31.969  66.332  19.715  0.00  0.00    +0.029 C 
ATOM     37  C   LIG    1      -31.270  65.453  18.682  0.00  0.00    +0.033 C 
BRANCH  32  38
ATOM     38  O   LIG    1      -31.572  64.154  16.671  0.00  0.00    -0.392 OA
ATOM     39  H   LIG    1      -31.075  64.701  16.040  0.00  0.00    +0.210 HD
ENDBRANCH  32  38
ENDBRANCH  30  35
BRANCH  31  40
ATOM     40  O   LIG    1      -34.632  65.141  22.759  0.00  0.00    -0.491 OA
ATOM     41  H   LIG    1      -33.839  64.884  23.241  0.00  0.00    +0.294 HD
ENDBRANCH  31  40
ENDBRANCH   1  31
TORSDOF 8
ENDMDL
MODEL 8
REMARK VINA RESULT:      -6.5     19.125     20.227
REMARK  Name = pdb/CHEMBL3935148.pdb
REMARK                            x       y       z     vdW  Elec       q    Type
REMARK                         _______ _______ _______ _____ _____    ______ ____
ROOT
ATOM      1  C   LIG    1      -23.006  82.015  14.488  0.00  0.00    +0.149 A 
ATOM      2  N   LIG    1      -23.939  81.857  13.535  0.00  0.00    -0.160 NA
ATOM      3  N   LIG    1      -24.117  80.515  13.424  0.00  0.00    -0.218 N 
ATOM      4  C   LIG    1      -23.158  79.808  14.163  0.00  0.00    +0.129 A 
ATOM      5  C   LIG    1      -22.505  80.762  14.908  0.00  0.00    +0.078 A 
ENDROOT
BRANCH   3   6
ATOM      6  C   LIG    1      -25.169  80.010  12.602  0.00  0.00    +0.067 A 
ATOM      7  C   LIG    1      -26.167  79.204  13.176  0.00  0.00    +0.028 A 
ATOM      8  C   LIG    1      -27.212  78.705  12.392  0.00  0.00    +0.002 A 
ATOM      9  C   LIG    1      -27.268  78.999  11.032  0.00  0.00    +0.000 A 
ATOM     10  C   LIG    1      -26.263  79.768  10.448  0.00  0.00    +0.002 A 
ATOM     11  C   LIG    1      -25.205  80.258  11.225  0.00  0.00    +0.028 A 
ENDBRANCH   3   6
BRANCH   4  12
ATOM     12  N   LIG    1      -22.855  78.441  14.117  0.00  0.00    -0.266 N 
ATOM     13  H   LIG    1      -22.104  78.162  13.487  0.00  0.00    +0.157 HD
ATOM     14  C   LIG    1      -23.467  77.441  14.957  0.00  0.00    +0.251 C 
ATOM     15  O   LIG    1      -24.306  77.761  15.796  0.00  0.00    -0.270 OA
BRANCH  14  16
ATOM     16  C   LIG    1      -23.069  76.008  14.802  0.00  0.00    +0.056 A 
ATOM     17  C   LIG    1      -23.552  75.133  13.825  0.00  0.00    +0.054 A 
ATOM     18 CL   LIG    1      -24.641  75.576  12.567  0.00  0.00    -0.083 Cl
ATOM     19  C   LIG    1      -23.138  73.801  13.820  0.00  0.00    +0.041 A 
ATOM     20  C   LIG    1      -22.233  73.306  14.769  0.00  0.00    +0.052 A 
ATOM     21 CL   LIG    1      -21.776  71.655  14.527  0.00  0.00    -0.083 Cl
ATOM     22  C   LIG    1      -21.728  74.136  15.785  0.00  0.00    +0.019 A 
ATOM     23  C   LIG    1      -22.163  75.489  15.757  0.00  0.00    +0.026 A 
BRANCH  22  24
ATOM     24  C   LIG    1      -20.805  73.713  16.877  0.00  0.00    +0.072 A 
ATOM     25  N   LIG    1      -19.579  74.302  16.845  0.00  0.00    -0.255 NA
ATOM     26  C   LIG    1      -18.712  74.043  17.853  0.00  0.00    +0.111 A 
ATOM     27  C   LIG    1      -18.994  73.206  18.915  0.00  0.00    +0.020 A 
ATOM     28  C   LIG    1      -20.236  72.597  18.942  0.00  0.00    +0.004 A 
ATOM     29  C   LIG    1      -21.153  72.861  17.925  0.00  0.00    +0.028 A 
ENDBRANCH  22  24
ENDBRANCH  14  16
ENDBRANCH   4  12
BRANCH   1  31
ATOM     30  N   LIG    1      -22.312  84.252  14.139  0.00  0.00    -0.246 NA
ATOM     31  C   LIG    1      -22.554  83.318  14.983  0.00  0.00    +0.236 C 
BRANCH  30  35
ATOM     32  C   LIG    1      -21.077  88.248  13.461  0.00  0.00    +0.115 C 
ATOM     33  C   LIG    1      -20.040  87.290  14.043  0.00  0.00    +0.033 C 
ATOM     34  C   LIG    1      -20.480  85.837  13.897  0.00  0.00    +0.029 C 
ATOM     35  C   LIG    1      -21.866  85.589  14.506  0.00  0.00    +0.109 C 
ATOM     36  C   LIG    1      -22.901  86.583  13.955  0.00  0.00    +0.029 C 
ATOM     37  C   LIG    1      -22.444  88.031  14.104  0.00  0.00    +0.033 C 
BRANCH  32  38
ATOM     38  O   LIG    1      -20.656  89.591  13.661  0.00  0.00    -0.392 OA
ATOM     39  H   LIG    1      -21.374  90.079  14.097  0.00  0.00    +0.210 HD
ENDBRANCH  32  38
ENDBRANCH  30  35
BRANCH  31  40
ATOM     40  O   LIG    1      -22.421  83.429  16.318  0.00  0.00    -0.491 OA
ATOM     41  H   LIG    1      -21.903  84.202  16.565  0.00  0.00    +0.294 HD
ENDBRANCH  31  40
ENDBRANCH   1  31
TORSDOF 8
ENDMDL
MODEL 9
REMARK VINA RESULT:      -6.4     12.046     16.207
REMARK  Name = pdb/CHEMBL3935148.pdb
REMARK                            x       y       z     vdW  Elec       q    Type
REMARK                         _______ _______ _______ _____ _____    ______ ____
ROOT
ATOM      1  C   LIG    1      -36.489  71.895  26.702  0.00  0.00    +0.149 A 
ATOM      2  N   LIG    1      -37.480  72.704  26.293  0.00  0.00    -0.160 NA
ATOM      3  N   LIG    1      -37.955  72.144  25.151  0.00  0.00    -0.218 N 
ATOM      4  C   LIG    1      -37.139  71.087  24.721  0.00  0.00    +0.129 A 
ATOM      5  C   LIG    1      -36.256  70.873  25.753  0.00  0.00    +0.078 A 
ENDROOT
BRANCH   3   6
ATOM      6  C   LIG    1      -39.131  72.675  24.542  0.00  0.00    +0.067 A 
ATOM      7  C   LIG    1      -39.322  74.067  24.508  0.00  0.00    +0.028 A 
ATOM      8  C   LIG    1      -40.463  74.611  23.909  0.00  0.00    +0.002 A 
ATOM      9  C   LIG    1      -41.424  73.774  23.347  0.00  0.00    +0.000 A 
ATOM     10  C   LIG    1      -41.259  72.392  23.409  0.00  0.00    +0.002 A 
ATOM     11  C   LIG    1      -40.126  71.840  24.020  0.00  0.00    +0.028 A 
ENDBRANCH   3   6
BRANCH   4  12
ATOM     12  N   LIG    1      -37.149  70.424  23.486  0.00  0.00    -0.266 N 
ATOM     13  H   LIG    1      -36.841  70.964  22.678  0.00  0.00    +0.157 HD
ATOM     14  C   LIG    1      -37.472  69.031  23.311  0.00  0.00    +0.251 C 
ATOM     15  O   LIG    1      -37.752  68.329  24.280  0.00  0.00    -0.270 OA
BRANCH  14  16
ATOM     16  C   LIG    1      -37.462  68.442  21.936  0.00  0.00    +0.056 A 
ATOM     17  C   LIG    1      -38.503  68.527  21.008  0.00  0.00    +0.054 A 
ATOM     18 CL   LIG    1      -39.966  69.401  21.258  0.00  0.00    -0.083 Cl
ATOM     19  C   LIG    1      -38.388  67.888  19.774  0.00  0.00    +0.041 A 
ATOM     20  C   LIG    1      -37.242  67.161  19.423  0.00  0.00    +0.052 A 
ATOM     21 CL   LIG    1      -37.261  66.530  17.812  0.00  0.00    -0.083 Cl
ATOM     22  C   LIG    1      -36.170  67.027  20.323  0.00  0.00    +0.019 A 
ATOM     23  C   LIG    1      -36.315  67.698  21.568  0.00  0.00    +0.026 A 
BRANCH  22  24
ATOM     24  C   LIG    1      -34.926  66.240  20.085  0.00  0.00    +0.072 A 
ATOM     25  N   LIG    1      -35.133  64.943  19.733  0.00  0.00    -0.255 NA
ATOM     26  C   LIG    1      -34.060  64.183  19.410  0.00  0.00    +0.111 A 
ATOM     27  C   LIG    1      -32.758  64.644  19.421  0.00  0.00    +0.020 A 
ATOM     28  C   LIG    1      -32.545  65.961  19.791  0.00  0.00    +0.004 A 
ATOM     29  C   LIG    1      -33.636  66.768  20.111  0.00  0.00    +0.028 A 
ENDBRANCH  22  24
ENDBRANCH  14  16
ENDBRANCH   4  12
BRANCH   1  31
ATOM     30  N   LIG    1      -34.646  72.756  27.912  0.00  0.00    -0.246 NA
ATOM     31  C   LIG    1      -35.737  72.085  27.944  0.00  0.00    +0.236 C 
BRANCH  30  35
ATOM     32  C   LIG    1      -31.048  73.539  30.010  0.00  0.00    +0.115 C 
ATOM     33  C   LIG    1      -31.735  72.203  30.284  0.00  0.00    +0.033 C 
ATOM     34  C   LIG    1      -32.787  71.891  29.225  0.00  0.00    +0.029 C 
ATOM     35  C   LIG    1      -33.814  73.021  29.078  0.00  0.00    +0.109 C 
ATOM     36  C   LIG    1      -33.121  74.374  28.849  0.00  0.00    +0.029 C 
ATOM     37  C   LIG    1      -32.069  74.670  29.914  0.00  0.00    +0.033 C 
BRANCH  32  38
ATOM     38  O   LIG    1      -30.114  73.820  31.043  0.00  0.00    -0.392 OA
ATOM     39  H   LIG    1      -30.406  74.616  31.518  0.00  0.00    +0.210 HD
ENDBRANCH  32  38
ENDBRANCH  30  35
BRANCH  31  40
ATOM     40  O   LIG    1      -36.264  71.519  29.047  0.00  0.00    -0.491 OA
ATOM     41  H   LIG    1      -36.154  70.563  29.048  0.00  0.00    +0.294 HD
ENDBRANCH  31  40
ENDBRANCH   1  31
TORSDOF 8
ENDMDL
