MODEL 1
REMARK VINA RESULT:      -6.1      0.000      0.000
REMARK  Name = pdb/CHEMBL3671431.pdb
REMARK                            x       y       z     vdW  Elec       q    Type
REMARK                         _______ _______ _______ _____ _____    ______ ____
ROOT
ATOM      1  C   LIG    1      -19.222  78.204  32.436  0.00  0.00    +0.052 A 
ATOM      2  C   LIG    1      -20.387  77.713  31.837  0.00  0.00    +0.038 A 
ATOM      3  C   LIG    1      -20.304  76.927  30.684  0.00  0.00    +0.042 A 
ATOM      4  C   LIG    1      -19.042  76.570  30.230  0.00  0.00    +0.122 A 
ATOM      5  N   LIG    1      -17.892  77.021  30.788  0.00  0.00    -0.261 NA
ATOM      6  C   LIG    1      -18.005  77.844  31.863  0.00  0.00    +0.134 A 
ENDROOT
BRANCH   1   8
ATOM      7  C   LIG    1      -19.495  78.649  34.883  0.00  0.00    +0.222 C 
ATOM      8  N   LIG    1      -19.385  79.039  33.561  0.00  0.00    -0.284 N 
ATOM      9  H   LIG    1      -19.365  80.037  33.385  0.00  0.00    +0.155 HD
ATOM     10  O   LIG    1      -19.514  77.492  35.290  0.00  0.00    -0.275 OA
BRANCH   7  11
ATOM     11  C   LIG    1      -19.653  79.824  35.839  0.00  0.00    +0.131 C 
BRANCH  11  15
ATOM     12  C   LIG    1      -23.757  81.064  36.376  0.00  0.00    +0.051 A 
ATOM     13  C   LIG    1      -23.276  79.899  36.980  0.00  0.00    +0.025 A 
ATOM     14  C   LIG    1      -21.957  79.496  36.802  0.00  0.00    +0.006 A 
ATOM     15  C   LIG    1      -21.086  80.266  36.026  0.00  0.00    -0.039 A 
ATOM     16  C   LIG    1      -21.559  81.453  35.444  0.00  0.00    +0.006 A 
ATOM     17  C   LIG    1      -22.891  81.852  35.619  0.00  0.00    +0.025 A 
BRANCH  12  19
ATOM     18  C   LIG    1      -26.027  80.433  37.120  0.00  0.00    +0.157 C 
ATOM     19  N   LIG    1      -25.119  81.476  36.596  0.00  0.00    -0.211 N 
BRANCH  19  20
ATOM     20  S   LIG    1      -25.346  83.024  37.291  0.00  0.00    +0.042 S 
ATOM     21  C   LIG    1      -26.838  82.793  38.245  0.00  0.00    +0.218 C 
ATOM     22  O   LIG    1      -25.648  83.947  36.227  0.00  0.00    -0.155 OA
ATOM     23  O   LIG    1      -24.259  83.291  38.225  0.00  0.00    -0.155 OA
ENDBRANCH  19  20
ENDBRANCH  12  19
ENDBRANCH  11  15
ENDBRANCH   7  11
ENDBRANCH   1   8
BRANCH   3  24
ATOM     24  C   LIG    1      -21.496  76.456  29.940  0.00  0.00    +0.197 C 
ATOM     25  O   LIG    1      -21.513  76.590  28.720  0.00  0.00    -0.287 OA
BRANCH  24  26
ATOM     26  C   LIG    1      -22.641  75.893  30.659  0.00  0.00    +0.051 A 
ATOM     27  C   LIG    1      -23.936  76.473  30.800  0.00  0.00    +0.048 A 
ATOM     28  C   LIG    1      -24.579  77.619  30.334  0.00  0.00    +0.126 A 
ATOM     29  N   LIG    1      -25.876  77.841  30.650  0.00  0.00    -0.222 NA
ATOM     30  C   LIG    1      -26.510  76.945  31.416  0.00  0.00    +0.214 A 
ATOM     31  N   LIG    1      -25.975  75.847  31.953  0.00  0.00    -0.197 NA
ATOM     32  C   LIG    1      -24.695  75.639  31.611  0.00  0.00    +0.147 A 
ATOM     33  N   LIG    1      -23.907  74.573  32.001  0.00  0.00    -0.323 N 
ATOM     34  C   LIG    1      -22.670  74.718  31.394  0.00  0.00    +0.100 A 
BRANCH  30  35
ATOM     35  N   LIG    1      -27.835  77.196  31.719  0.00  0.00    -0.327 N 
ATOM     36  H   LIG    1      -28.355  77.334  30.864  0.00  0.00    +0.145 HD
ATOM     37  H   LIG    1      -27.885  77.930  32.411  0.00  0.00    +0.145 HD
ENDBRANCH  30  35
BRANCH  33  38
ATOM     38  C   LIG    1      -24.279  73.477  32.931  0.00  0.00    +0.064 C 
ATOM     39  C   LIG    1      -23.129  72.469  33.163  0.00  0.00    +0.036 C 
ATOM     40  C   LIG    1      -25.480  72.686  32.366  0.00  0.00    +0.036 C 
BRANCH  38  41
ATOM     41  C   LIG    1      -24.697  74.039  34.325  0.00  0.00    +0.183 C 
BRANCH  41  42
ATOM     42  O   LIG    1      -26.113  74.138  34.473  0.00  0.00    -0.393 OA
ATOM     43  H   LIG    1      -26.405  73.390  35.020  0.00  0.00    +0.209 HD
ENDBRANCH  41  42
ENDBRANCH  38  41
ENDBRANCH  33  38
ENDBRANCH  24  26
ENDBRANCH   3  24
TORSDOF 11
ENDMDL
MODEL 2
REMARK VINA RESULT:      -5.9     12.079     17.034
REMARK  Name = pdb/CHEMBL3671431.pdb
REMARK                            x       y       z     vdW  Elec       q    Type
REMARK                         _______ _______ _______ _____ _____    ______ ____
ROOT
ATOM      1  C   LIG    1      -37.080  77.167  26.938  0.00  0.00    +0.052 A 
ATOM      2  C   LIG    1      -35.845  76.510  26.940  0.00  0.00    +0.038 A 
ATOM      3  C   LIG    1      -34.744  77.091  27.575  0.00  0.00    +0.042 A 
ATOM      4  C   LIG    1      -34.948  78.268  28.282  0.00  0.00    +0.122 A 
ATOM      5  N   LIG    1      -36.130  78.929  28.307  0.00  0.00    -0.261 NA
ATOM      6  C   LIG    1      -37.165  78.378  27.619  0.00  0.00    +0.134 A 
ENDROOT
BRANCH   1   8
ATOM      7  C   LIG    1      -38.237  76.396  24.857  0.00  0.00    +0.222 C 
ATOM      8  N   LIG    1      -38.131  76.550  26.227  0.00  0.00    -0.284 N 
ATOM      9  H   LIG    1      -38.863  76.127  26.787  0.00  0.00    +0.155 HD
ATOM     10  O   LIG    1      -37.441  76.817  24.024  0.00  0.00    -0.275 OA
BRANCH   7  11
ATOM     11  C   LIG    1      -39.510  75.672  24.436  0.00  0.00    +0.131 C 
BRANCH  11  15
ATOM     12  C   LIG    1      -39.074  71.376  24.297  0.00  0.00    +0.051 A 
ATOM     13  C   LIG    1      -38.067  72.180  24.839  0.00  0.00    +0.025 A 
ATOM     14  C   LIG    1      -38.205  73.563  24.877  0.00  0.00    +0.006 A 
ATOM     15  C   LIG    1      -39.366  74.169  24.388  0.00  0.00    -0.039 A 
ATOM     16  C   LIG    1      -40.391  73.360  23.872  0.00  0.00    +0.006 A 
ATOM     17  C   LIG    1      -40.246  71.967  23.827  0.00  0.00    +0.025 A 
BRANCH  12  19
ATOM     18  C   LIG    1      -40.048  69.177  24.865  0.00  0.00    +0.157 C 
ATOM     19  N   LIG    1      -38.921  69.944  24.291  0.00  0.00    -0.211 N 
BRANCH  19  20
ATOM     20  S   LIG    1      -38.246  69.254  22.877  0.00  0.00    +0.042 S 
ATOM     21  C   LIG    1      -38.010  67.552  23.364  0.00  0.00    +0.218 C 
ATOM     22  O   LIG    1      -36.941  69.835  22.681  0.00  0.00    -0.155 OA
ATOM     23  O   LIG    1      -39.242  69.278  21.812  0.00  0.00    -0.155 OA
ENDBRANCH  19  20
ENDBRANCH  12  19
ENDBRANCH  11  15
ENDBRANCH   7  11
ENDBRANCH   1   8
BRANCH   3  24
ATOM     24  C   LIG    1      -33.384  76.503  27.533  0.00  0.00    +0.197 C 
ATOM     25  O   LIG    1      -32.572  76.968  26.738  0.00  0.00    -0.287 OA
BRANCH  24  26
ATOM     26  C   LIG    1      -33.046  75.363  28.387  0.00  0.00    +0.051 A 
ATOM     27  C   LIG    1      -32.007  75.300  29.362  0.00  0.00    +0.048 A 
ATOM     28  C   LIG    1      -31.057  76.181  29.876  0.00  0.00    +0.126 A 
ATOM     29  N   LIG    1      -30.221  75.775  30.859  0.00  0.00    -0.222 NA
ATOM     30  C   LIG    1      -30.327  74.519  31.311  0.00  0.00    +0.214 A 
ATOM     31  N   LIG    1      -31.164  73.585  30.856  0.00  0.00    -0.197 NA
ATOM     32  C   LIG    1      -31.995  74.017  29.894  0.00  0.00    +0.147 A 
ATOM     33  N   LIG    1      -32.973  73.272  29.265  0.00  0.00    -0.323 N 
ATOM     34  C   LIG    1      -33.629  74.105  28.373  0.00  0.00    +0.100 A 
BRANCH  30  35
ATOM     35  N   LIG    1      -29.463  74.133  32.318  0.00  0.00    -0.327 N 
ATOM     36  H   LIG    1      -29.871  73.367  32.835  0.00  0.00    +0.145 HD
ATOM     37  H   LIG    1      -29.183  74.947  32.847  0.00  0.00    +0.145 HD
ENDBRANCH  30  35
BRANCH  33  38
ATOM     38  C   LIG    1      -33.267  71.830  29.461  0.00  0.00    +0.064 C 
ATOM     39  C   LIG    1      -33.971  71.538  30.807  0.00  0.00    +0.036 C 
ATOM     40  C   LIG    1      -31.956  71.013  29.437  0.00  0.00    +0.036 C 
BRANCH  38  41
ATOM     41  C   LIG    1      -34.186  71.284  28.324  0.00  0.00    +0.183 C 
BRANCH  41  42
ATOM     42  O   LIG    1      -35.532  71.086  28.756  0.00  0.00    -0.393 OA
ATOM     43  H   LIG    1      -35.603  71.425  29.663  0.00  0.00    +0.209 HD
ENDBRANCH  41  42
ENDBRANCH  38  41
ENDBRANCH  33  38
ENDBRANCH  24  26
ENDBRANCH   3  24
TORSDOF 11
ENDMDL
MODEL 3
REMARK VINA RESULT:      -5.7     13.002     17.670
REMARK  Name = pdb/CHEMBL3671431.pdb
REMARK                            x       y       z     vdW  Elec       q    Type
REMARK                         _______ _______ _______ _____ _____    ______ ____
ROOT
ATOM      1  C   LIG    1      -36.219  70.732  26.844  0.00  0.00    +0.052 A 
ATOM      2  C   LIG    1      -36.003  71.877  27.618  0.00  0.00    +0.038 A 
ATOM      3  C   LIG    1      -34.887  71.956  28.456  0.00  0.00    +0.042 A 
ATOM      4  C   LIG    1      -33.963  70.922  28.407  0.00  0.00    +0.122 A 
ATOM      5  N   LIG    1      -34.135  69.801  27.665  0.00  0.00    -0.261 NA
ATOM      6  C   LIG    1      -35.266  69.719  26.917  0.00  0.00    +0.134 A 
ENDROOT
BRANCH   1   8
ATOM      7  C   LIG    1      -37.504  70.894  24.702  0.00  0.00    +0.222 C 
ATOM      8  N   LIG    1      -37.396  70.697  26.068  0.00  0.00    -0.284 N 
ATOM      9  H   LIG    1      -38.248  70.448  26.556  0.00  0.00    +0.155 HD
ATOM     10  O   LIG    1      -36.583  71.180  23.944  0.00  0.00    -0.275 OA
BRANCH   7  11
ATOM     11  C   LIG    1      -38.936  70.777  24.196  0.00  0.00    +0.131 C 
BRANCH  11  15
ATOM     12  C   LIG    1      -40.936  74.586  23.802  0.00  0.00    +0.051 A 
ATOM     13  C   LIG    1      -39.663  74.501  24.373  0.00  0.00    +0.025 A 
ATOM     14  C   LIG    1      -39.023  73.275  24.506  0.00  0.00    +0.006 A 
ATOM     15  C   LIG    1      -39.640  72.106  24.052  0.00  0.00    -0.039 A 
ATOM     16  C   LIG    1      -40.906  72.193  23.450  0.00  0.00    +0.006 A 
ATOM     17  C   LIG    1      -41.552  73.430  23.325  0.00  0.00    +0.025 A 
BRANCH  12  19
ATOM     18  C   LIG    1      -42.743  75.903  22.752  0.00  0.00    +0.157 C 
ATOM     19  N   LIG    1      -41.571  75.870  23.651  0.00  0.00    -0.211 N 
BRANCH  19  20
ATOM     20  S   LIG    1      -41.745  76.807  25.073  0.00  0.00    +0.042 S 
ATOM     21  C   LIG    1      -43.095  77.895  24.644  0.00  0.00    +0.218 C 
ATOM     22  O   LIG    1      -40.563  77.618  25.217  0.00  0.00    -0.155 OA
ATOM     23  O   LIG    1      -42.197  75.946  26.160  0.00  0.00    -0.155 OA
ENDBRANCH  19  20
ENDBRANCH  12  19
ENDBRANCH  11  15
ENDBRANCH   7  11
ENDBRANCH   1   8
BRANCH   3  24
ATOM     24  C   LIG    1      -34.648  73.092  29.377  0.00  0.00    +0.197 C 
ATOM     25  O   LIG    1      -34.577  72.863  30.581  0.00  0.00    -0.287 OA
BRANCH  24  26
ATOM     26  C   LIG    1      -34.549  74.457  28.856  0.00  0.00    +0.051 A 
ATOM     27  C   LIG    1      -35.580  75.209  28.220  0.00  0.00    +0.048 A 
ATOM     28  C   LIG    1      -36.928  75.013  27.922  0.00  0.00    +0.126 A 
ATOM     29  N   LIG    1      -37.635  75.997  27.318  0.00  0.00    -0.222 NA
ATOM     30  C   LIG    1      -37.010  77.140  27.014  0.00  0.00    +0.214 A 
ATOM     31  N   LIG    1      -35.718  77.409  27.209  0.00  0.00    -0.197 NA
ATOM     32  C   LIG    1      -35.042  76.428  27.826  0.00  0.00    +0.147 A 
ATOM     33  N   LIG    1      -33.705  76.448  28.171  0.00  0.00    -0.323 N 
ATOM     34  C   LIG    1      -33.420  75.261  28.826  0.00  0.00    +0.100 A 
BRANCH  30  35
ATOM     35  N   LIG    1      -37.759  78.128  26.401  0.00  0.00    -0.327 N 
ATOM     36  H   LIG    1      -37.525  78.164  25.418  0.00  0.00    +0.145 HD
ATOM     37  H   LIG    1      -37.673  78.986  26.926  0.00  0.00    +0.145 HD
ENDBRANCH  30  35
BRANCH  33  38
ATOM     38  C   LIG    1      -32.720  77.519  27.877  0.00  0.00    +0.064 C 
ATOM     39  C   LIG    1      -31.430  77.397  28.721  0.00  0.00    +0.036 C 
ATOM     40  C   LIG    1      -33.336  78.905  28.172  0.00  0.00    +0.036 C 
BRANCH  38  41
ATOM     41  C   LIG    1      -32.300  77.499  26.375  0.00  0.00    +0.183 C 
BRANCH  41  42
ATOM     42  O   LIG    1      -32.416  78.780  25.756  0.00  0.00    -0.393 OA
ATOM     43  H   LIG    1      -31.520  79.145  25.665  0.00  0.00    +0.209 HD
ENDBRANCH  41  42
ENDBRANCH  38  41
ENDBRANCH  33  38
ENDBRANCH  24  26
ENDBRANCH   3  24
TORSDOF 11
ENDMDL
MODEL 4
REMARK VINA RESULT:      -5.7      2.531      6.762
REMARK  Name = pdb/CHEMBL3671431.pdb
REMARK                            x       y       z     vdW  Elec       q    Type
REMARK                         _______ _______ _______ _____ _____    ______ ____
ROOT
ATOM      1  C   LIG    1      -19.095  78.315  32.424  0.00  0.00    +0.052 A 
ATOM      2  C   LIG    1      -19.616  78.807  33.626  0.00  0.00    +0.038 A 
ATOM      3  C   LIG    1      -18.776  78.994  34.728  0.00  0.00    +0.042 A 
ATOM      4  C   LIG    1      -17.417  78.782  34.553  0.00  0.00    +0.122 A 
ATOM      5  N   LIG    1      -16.875  78.312  33.403  0.00  0.00    -0.261 NA
ATOM      6  C   LIG    1      -17.725  78.068  32.371  0.00  0.00    +0.134 A 
ENDROOT
BRANCH   1   8
ATOM      7  C   LIG    1      -20.096  76.977  30.561  0.00  0.00    +0.222 C 
ATOM      8  N   LIG    1      -20.009  78.094  31.373  0.00  0.00    -0.284 N 
ATOM      9  H   LIG    1      -20.714  78.810  31.234  0.00  0.00    +0.155 HD
ATOM     10  O   LIG    1      -19.351  76.005  30.596  0.00  0.00    -0.275 OA
BRANCH   7  11
ATOM     11  C   LIG    1      -21.213  77.078  29.530  0.00  0.00    +0.131 C 
BRANCH  11  15
ATOM     12  C   LIG    1      -25.113  76.055  31.084  0.00  0.00    +0.051 A 
ATOM     13  C   LIG    1      -24.899  77.272  30.430  0.00  0.00    +0.025 A 
ATOM     14  C   LIG    1      -23.642  77.604  29.936  0.00  0.00    +0.006 A 
ATOM     15  C   LIG    1      -22.575  76.712  30.072  0.00  0.00    -0.039 A 
ATOM     16  C   LIG    1      -22.795  75.476  30.701  0.00  0.00    +0.006 A 
ATOM     17  C   LIG    1      -24.061  75.148  31.205  0.00  0.00    +0.025 A 
BRANCH  12  19
ATOM     18  C   LIG    1      -26.571  74.373  32.155  0.00  0.00    +0.157 C 
ATOM     19  N   LIG    1      -26.428  75.721  31.565  0.00  0.00    -0.211 N 
BRANCH  19  20
ATOM     20  S   LIG    1      -27.269  76.953  32.406  0.00  0.00    +0.042 S 
ATOM     21  C   LIG    1      -28.354  76.011  33.467  0.00  0.00    +0.218 C 
ATOM     22  O   LIG    1      -28.093  77.655  31.456  0.00  0.00    -0.155 OA
ATOM     23  O   LIG    1      -26.331  77.674  33.258  0.00  0.00    -0.155 OA
ENDBRANCH  19  20
ENDBRANCH  12  19
ENDBRANCH  11  15
ENDBRANCH   7  11
ENDBRANCH   1   8
BRANCH   3  24
ATOM     24  C   LIG    1      -19.274  79.416  36.058  0.00  0.00    +0.197 C 
ATOM     25  O   LIG    1      -18.453  79.701  36.926  0.00  0.00    -0.287 OA
BRANCH  24  26
ATOM     26  C   LIG    1      -20.712  79.441  36.335  0.00  0.00    +0.051 A 
ATOM     27  C   LIG    1      -21.556  80.589  36.388  0.00  0.00    +0.048 A 
ATOM     28  C   LIG    1      -21.403  81.958  36.175  0.00  0.00    +0.126 A 
ATOM     29  N   LIG    1      -22.473  82.781  36.283  0.00  0.00    -0.222 NA
ATOM     30  C   LIG    1      -23.659  82.251  36.603  0.00  0.00    +0.214 A 
ATOM     31  N   LIG    1      -23.901  80.968  36.875  0.00  0.00    -0.197 NA
ATOM     32  C   LIG    1      -22.831  80.169  36.744  0.00  0.00    +0.147 A 
ATOM     33  N   LIG    1      -22.803  78.802  36.940  0.00  0.00    -0.323 N 
ATOM     34  C   LIG    1      -21.520  78.361  36.659  0.00  0.00    +0.100 A 
BRANCH  30  35
ATOM     35  N   LIG    1      -24.733  83.115  36.702  0.00  0.00    -0.327 N 
ATOM     36  H   LIG    1      -24.417  84.001  37.073  0.00  0.00    +0.145 HD
ATOM     37  H   LIG    1      -25.487  82.655  37.191  0.00  0.00    +0.145 HD
ENDBRANCH  30  35
BRANCH  33  38
ATOM     38  C   LIG    1      -23.919  77.939  37.402  0.00  0.00    +0.064 C 
ATOM     39  C   LIG    1      -24.697  78.548  38.592  0.00  0.00    +0.036 C 
ATOM     40  C   LIG    1      -23.376  76.567  37.859  0.00  0.00    +0.036 C 
BRANCH  38  41
ATOM     41  C   LIG    1      -24.945  77.684  36.255  0.00  0.00    +0.183 C 
BRANCH  41  42
ATOM     42  O   LIG    1      -25.703  78.849  35.928  0.00  0.00    -0.393 OA
ATOM     43  H   LIG    1      -26.164  78.674  35.091  0.00  0.00    +0.209 HD
ENDBRANCH  41  42
ENDBRANCH  38  41
ENDBRANCH  33  38
ENDBRANCH  24  26
ENDBRANCH   3  24
TORSDOF 11
ENDMDL
MODEL 5
REMARK VINA RESULT:      -5.7     12.184     16.313
REMARK  Name = pdb/CHEMBL3671431.pdb
REMARK                            x       y       z     vdW  Elec       q    Type
REMARK                         _______ _______ _______ _____ _____    ______ ____
ROOT
ATOM      1  C   LIG    1      -36.106  71.692  27.163  0.00  0.00    +0.052 A 
ATOM      2  C   LIG    1      -35.246  72.712  27.584  0.00  0.00    +0.038 A 
ATOM      3  C   LIG    1      -34.131  72.407  28.371  0.00  0.00    +0.042 A 
ATOM      4  C   LIG    1      -33.856  71.070  28.619  0.00  0.00    +0.122 A 
ATOM      5  N   LIG    1      -34.662  70.055  28.222  0.00  0.00    -0.261 NA
ATOM      6  C   LIG    1      -35.779  70.386  27.522  0.00  0.00    +0.134 A 
ENDROOT
BRANCH   1   8
ATOM      7  C   LIG    1      -37.450  71.922  25.064  0.00  0.00    +0.222 C 
ATOM      8  N   LIG    1      -37.243  72.078  26.423  0.00  0.00    -0.284 N 
ATOM      9  H   LIG    1      -38.015  72.465  26.955  0.00  0.00    +0.155 HD
ATOM     10  O   LIG    1      -36.645  71.454  24.265  0.00  0.00    -0.275 OA
BRANCH   7  11
ATOM     11  C   LIG    1      -38.802  72.451  24.604  0.00  0.00    +0.131 C 
BRANCH  11  15
ATOM     12  C   LIG    1      -39.096  76.762  24.614  0.00  0.00    +0.051 A 
ATOM     13  C   LIG    1      -40.194  75.970  24.265  0.00  0.00    +0.025 A 
ATOM     14  C   LIG    1      -40.097  74.583  24.255  0.00  0.00    +0.006 A 
ATOM     15  C   LIG    1      -38.899  73.959  24.614  0.00  0.00    -0.039 A 
ATOM     16  C   LIG    1      -37.804  74.752  24.995  0.00  0.00    +0.006 A 
ATOM     17  C   LIG    1      -37.903  76.150  24.996  0.00  0.00    +0.025 A 
BRANCH  12  19
ATOM     18  C   LIG    1      -39.901  78.801  23.476  0.00  0.00    +0.157 C 
ATOM     19  N   LIG    1      -39.226  78.196  24.643  0.00  0.00    -0.211 N 
BRANCH  19  20
ATOM     20  S   LIG    1      -39.656  78.893  26.147  0.00  0.00    +0.042 S 
ATOM     21  C   LIG    1      -41.296  79.519  25.816  0.00  0.00    +0.218 C 
ATOM     22  O   LIG    1      -38.795  80.026  26.372  0.00  0.00    -0.155 OA
ATOM     23  O   LIG    1      -39.777  77.837  27.145  0.00  0.00    -0.155 OA
ENDBRANCH  19  20
ENDBRANCH  12  19
ENDBRANCH  11  15
ENDBRANCH   7  11
ENDBRANCH   1   8
BRANCH   3  24
ATOM     24  C   LIG    1      -33.235  73.444  28.935  0.00  0.00    +0.197 C 
ATOM     25  O   LIG    1      -32.048  73.170  29.086  0.00  0.00    -0.287 OA
BRANCH  24  26
ATOM     26  C   LIG    1      -33.774  74.742  29.346  0.00  0.00    +0.051 A 
ATOM     27  C   LIG    1      -33.723  75.963  28.612  0.00  0.00    +0.048 A 
ATOM     28  C   LIG    1      -33.262  76.363  27.359  0.00  0.00    +0.126 A 
ATOM     29  N   LIG    1      -33.417  77.648  26.961  0.00  0.00    -0.222 NA
ATOM     30  C   LIG    1      -34.011  78.509  27.796  0.00  0.00    +0.214 A 
ATOM     31  N   LIG    1      -34.442  78.242  29.030  0.00  0.00    -0.197 NA
ATOM     32  C   LIG    1      -34.294  76.959  29.395  0.00  0.00    +0.147 A 
ATOM     33  N   LIG    1      -34.673  76.404  30.601  0.00  0.00    -0.323 N 
ATOM     34  C   LIG    1      -34.384  75.050  30.553  0.00  0.00    +0.100 A 
BRANCH  30  35
ATOM     35  N   LIG    1      -34.159  79.813  27.360  0.00  0.00    -0.327 N 
ATOM     36  H   LIG    1      -33.637  79.942  26.504  0.00  0.00    +0.145 HD
ATOM     37  H   LIG    1      -33.956  80.443  28.122  0.00  0.00    +0.145 HD
ENDBRANCH  30  35
BRANCH  33  38
ATOM     38  C   LIG    1      -35.255  77.111  31.770  0.00  0.00    +0.064 C 
ATOM     39  C   LIG    1      -35.700  76.148  32.895  0.00  0.00    +0.036 C 
ATOM     40  C   LIG    1      -36.498  77.921  31.336  0.00  0.00    +0.036 C 
BRANCH  38  41
ATOM     41  C   LIG    1      -34.231  78.112  32.388  0.00  0.00    +0.183 C 
BRANCH  41  42
ATOM     42  O   LIG    1      -34.347  79.425  31.838  0.00  0.00    -0.393 OA
ATOM     43  H   LIG    1      -33.573  79.576  31.271  0.00  0.00    +0.209 HD
ENDBRANCH  41  42
ENDBRANCH  38  41
ENDBRANCH  33  38
ENDBRANCH  24  26
ENDBRANCH   3  24
TORSDOF 11
ENDMDL
MODEL 6
REMARK VINA RESULT:      -5.7     20.876     23.294
REMARK  Name = pdb/CHEMBL3671431.pdb
REMARK                            x       y       z     vdW  Elec       q    Type
REMARK                         _______ _______ _______ _____ _____    ______ ____
ROOT
ATOM      1  C   LIG    1      -20.707  88.667  12.575  0.00  0.00    +0.052 A 
ATOM      2  C   LIG    1      -21.586  87.972  13.414  0.00  0.00    +0.038 A 
ATOM      3  C   LIG    1      -21.130  86.877  14.154  0.00  0.00    +0.042 A 
ATOM      4  C   LIG    1      -19.775  86.582  14.109  0.00  0.00    +0.122 A 
ATOM      5  N   LIG    1      -18.893  87.235  13.314  0.00  0.00    -0.261 NA
ATOM      6  C   LIG    1      -19.379  88.248  12.549  0.00  0.00    +0.134 A 
ENDROOT
BRANCH   1   8
ATOM      7  C   LIG    1      -21.867  89.632  10.579  0.00  0.00    +0.222 C 
ATOM      8  N   LIG    1      -21.250  89.723  11.814  0.00  0.00    -0.284 N 
ATOM      9  H   LIG    1      -21.233  90.641  12.244  0.00  0.00    +0.155 HD
ATOM     10  O   LIG    1      -22.003  88.608   9.918  0.00  0.00    -0.275 OA
BRANCH   7  11
ATOM     11  C   LIG    1      -22.341  90.980  10.051  0.00  0.00    +0.131 C 
BRANCH  11  15
ATOM     12  C   LIG    1      -25.918  92.454  11.976  0.00  0.00    +0.051 A 
ATOM     13  C   LIG    1      -25.042  93.328  11.326  0.00  0.00    +0.025 A 
ATOM     14  C   LIG    1      -23.888  92.855  10.713  0.00  0.00    +0.006 A 
ATOM     15  C   LIG    1      -23.596  91.488  10.723  0.00  0.00    -0.039 A 
ATOM     16  C   LIG    1      -24.491  90.604  11.348  0.00  0.00    +0.006 A 
ATOM     17  C   LIG    1      -25.649  91.086  11.972  0.00  0.00    +0.025 A 
BRANCH  12  19
ATOM     18  C   LIG    1      -26.961  94.185  13.397  0.00  0.00    +0.157 C 
ATOM     19  N   LIG    1      -27.121  92.962  12.582  0.00  0.00    -0.211 N 
BRANCH  19  20
ATOM     20  S   LIG    1      -28.532  92.942  11.612  0.00  0.00    +0.042 S 
ATOM     21  C   LIG    1      -29.718  93.776  12.654  0.00  0.00    +0.218 C 
ATOM     22  O   LIG    1      -28.959  91.572  11.479  0.00  0.00    -0.155 OA
ATOM     23  O   LIG    1      -28.313  93.773  10.434  0.00  0.00    -0.155 OA
ENDBRANCH  19  20
ENDBRANCH  12  19
ENDBRANCH  11  15
ENDBRANCH   7  11
ENDBRANCH   1   8
BRANCH   3  24
ATOM     24  C   LIG    1      -22.023  86.035  14.984  0.00  0.00    +0.197 C 
ATOM     25  O   LIG    1      -22.452  86.500  16.036  0.00  0.00    -0.287 OA
BRANCH  24  26
ATOM     26  C   LIG    1      -22.340  84.666  14.572  0.00  0.00    +0.051 A 
ATOM     27  C   LIG    1      -22.866  84.248  13.314  0.00  0.00    +0.048 A 
ATOM     28  C   LIG    1      -23.195  84.865  12.109  0.00  0.00    +0.126 A 
ATOM     29  N   LIG    1      -23.654  84.123  11.073  0.00  0.00    -0.222 NA
ATOM     30  C   LIG    1      -23.785  82.802  11.243  0.00  0.00    +0.214 A 
ATOM     31  N   LIG    1      -23.546  82.122  12.366  0.00  0.00    -0.197 NA
ATOM     32  C   LIG    1      -23.076  82.876  13.371  0.00  0.00    +0.147 A 
ATOM     33  N   LIG    1      -22.724  82.431  14.630  0.00  0.00    -0.323 N 
ATOM     34  C   LIG    1      -22.248  83.518  15.344  0.00  0.00    +0.100 A 
BRANCH  30  35
ATOM     35  N   LIG    1      -24.252  82.069  10.167  0.00  0.00    -0.327 N 
ATOM     36  H   LIG    1      -25.226  82.289  10.009  0.00  0.00    +0.145 HD
ATOM     37  H   LIG    1      -24.015  81.096  10.299  0.00  0.00    +0.145 HD
ENDBRANCH  30  35
BRANCH  33  38
ATOM     38  C   LIG    1      -22.855  81.051  15.163  0.00  0.00    +0.064 C 
ATOM     39  C   LIG    1      -24.312  80.534  15.139  0.00  0.00    +0.036 C 
ATOM     40  C   LIG    1      -22.369  80.999  16.629  0.00  0.00    +0.036 C 
BRANCH  38  41
ATOM     41  C   LIG    1      -21.988  80.047  14.342  0.00  0.00    +0.183 C 
BRANCH  41  42
ATOM     42  O   LIG    1      -22.766  79.271  13.430  0.00  0.00    -0.393 OA
ATOM     43  H   LIG    1      -22.149  78.790  12.854  0.00  0.00    +0.209 HD
ENDBRANCH  41  42
ENDBRANCH  38  41
ENDBRANCH  33  38
ENDBRANCH  24  26
ENDBRANCH   3  24
TORSDOF 11
ENDMDL
MODEL 7
REMARK VINA RESULT:      -5.6     11.749     16.780
REMARK  Name = pdb/CHEMBL3671431.pdb
REMARK                            x       y       z     vdW  Elec       q    Type
REMARK                         _______ _______ _______ _____ _____    ______ ____
ROOT
ATOM      1  C   LIG    1      -37.012  77.015  27.003  0.00  0.00    +0.052 A 
ATOM      2  C   LIG    1      -35.712  76.500  26.949  0.00  0.00    +0.038 A 
ATOM      3  C   LIG    1      -34.668  77.162  27.603  0.00  0.00    +0.042 A 
ATOM      4  C   LIG    1      -34.986  78.264  28.382  0.00  0.00    +0.122 A 
ATOM      5  N   LIG    1      -36.233  78.788  28.464  0.00  0.00    -0.261 NA
ATOM      6  C   LIG    1      -37.214  78.168  27.758  0.00  0.00    +0.134 A 
ENDROOT
BRANCH   1   8
ATOM      7  C   LIG    1      -38.110  76.232  24.895  0.00  0.00    +0.222 C 
ATOM      8  N   LIG    1      -38.003  76.329  26.271  0.00  0.00    -0.284 N 
ATOM      9  H   LIG    1      -38.680  75.806  26.815  0.00  0.00    +0.155 HD
ATOM     10  O   LIG    1      -37.373  76.775  24.079  0.00  0.00    -0.275 OA
BRANCH   7  11
ATOM     11  C   LIG    1      -39.307  75.403  24.449  0.00  0.00    +0.131 C 
BRANCH  11  15
ATOM     12  C   LIG    1      -38.678  71.135  24.697  0.00  0.00    +0.051 A 
ATOM     13  C   LIG    1      -39.820  71.656  24.081  0.00  0.00    +0.025 A 
ATOM     14  C   LIG    1      -40.026  73.030  24.008  0.00  0.00    +0.006 A 
ATOM     15  C   LIG    1      -39.079  73.912  24.536  0.00  0.00    -0.039 A 
ATOM     16  C   LIG    1      -37.916  73.391  25.127  0.00  0.00    +0.006 A 
ATOM     17  C   LIG    1      -37.716  72.006  25.207  0.00  0.00    +0.025 A 
BRANCH  12  19
ATOM     18  C   LIG    1      -39.614  68.913  25.237  0.00  0.00    +0.157 C 
ATOM     19  N   LIG    1      -38.473  69.711  24.739  0.00  0.00    -0.211 N 
BRANCH  19  20
ATOM     20  S   LIG    1      -37.659  69.018  23.402  0.00  0.00    +0.042 S 
ATOM     21  C   LIG    1      -39.015  68.489  22.367  0.00  0.00    +0.218 C 
ATOM     22  O   LIG    1      -36.978  67.834  23.863  0.00  0.00    -0.155 OA
ATOM     23  O   LIG    1      -36.937  70.064  22.688  0.00  0.00    -0.155 OA
ENDBRANCH  19  20
ENDBRANCH  12  19
ENDBRANCH  11  15
ENDBRANCH   7  11
ENDBRANCH   1   8
BRANCH   3  24
ATOM     24  C   LIG    1      -33.254  76.731  27.506  0.00  0.00    +0.197 C 
ATOM     25  O   LIG    1      -32.595  77.104  26.539  0.00  0.00    -0.287 OA
BRANCH  24  26
ATOM     26  C   LIG    1      -32.681  75.842  28.519  0.00  0.00    +0.051 A 
ATOM     27  C   LIG    1      -33.034  74.483  28.765  0.00  0.00    +0.048 A 
ATOM     28  C   LIG    1      -33.899  73.550  28.195  0.00  0.00    +0.126 A 
ATOM     29  N   LIG    1      -33.952  72.289  28.685  0.00  0.00    -0.222 NA
ATOM     30  C   LIG    1      -33.166  71.973  29.720  0.00  0.00    +0.214 A 
ATOM     31  N   LIG    1      -32.343  72.799  30.368  0.00  0.00    -0.197 NA
ATOM     32  C   LIG    1      -32.294  74.037  29.853  0.00  0.00    +0.147 A 
ATOM     33  N   LIG    1      -31.514  75.082  30.309  0.00  0.00    -0.323 N 
ATOM     34  C   LIG    1      -31.730  76.166  29.474  0.00  0.00    +0.100 A 
BRANCH  30  35
ATOM     35  N   LIG    1      -33.238  70.677  30.197  0.00  0.00    -0.327 N 
ATOM     36  H   LIG    1      -32.599  70.569  30.973  0.00  0.00    +0.145 HD
ATOM     37  H   LIG    1      -33.138  70.032  29.426  0.00  0.00    +0.145 HD
ENDBRANCH  30  35
BRANCH  33  38
ATOM     38  C   LIG    1      -30.623  75.083  31.497  0.00  0.00    +0.064 C 
ATOM     39  C   LIG    1      -29.783  73.790  31.620  0.00  0.00    +0.036 C 
ATOM     40  C   LIG    1      -31.460  75.216  32.789  0.00  0.00    +0.036 C 
BRANCH  38  41
ATOM     41  C   LIG    1      -29.629  76.284  31.452  0.00  0.00    +0.183 C 
BRANCH  41  42
ATOM     42  O   LIG    1      -29.960  77.305  32.394  0.00  0.00    -0.393 OA
ATOM     43  H   LIG    1      -29.270  77.987  32.344  0.00  0.00    +0.209 HD
ENDBRANCH  41  42
ENDBRANCH  38  41
ENDBRANCH  33  38
ENDBRANCH  24  26
ENDBRANCH   3  24
TORSDOF 11
ENDMDL
MODEL 8
REMARK VINA RESULT:      -5.6     12.407     16.487
REMARK  Name = pdb/CHEMBL3671431.pdb
REMARK                            x       y       z     vdW  Elec       q    Type
REMARK                         _______ _______ _______ _____ _____    ______ ____
ROOT
ATOM      1  C   LIG    1      -38.275  75.065  24.894  0.00  0.00    +0.052 A 
ATOM      2  C   LIG    1      -38.225  73.670  24.801  0.00  0.00    +0.038 A 
ATOM      3  C   LIG    1      -39.354  72.954  24.393  0.00  0.00    +0.042 A 
ATOM      4  C   LIG    1      -40.468  73.674  23.987  0.00  0.00    +0.122 A 
ATOM      5  N   LIG    1      -40.552  75.025  24.056  0.00  0.00    -0.261 NA
ATOM      6  C   LIG    1      -39.464  75.691  24.527  0.00  0.00    +0.134 A 
ENDROOT
BRANCH   1   8
ATOM      7  C   LIG    1      -36.737  75.888  26.688  0.00  0.00    +0.222 C 
ATOM      8  N   LIG    1      -37.118  75.717  25.369  0.00  0.00    -0.284 N 
ATOM      9  H   LIG    1      -36.469  76.049  24.665  0.00  0.00    +0.155 HD
ATOM     10  O   LIG    1      -37.377  75.534  27.672  0.00  0.00    -0.275 OA
BRANCH   7  11
ATOM     11  C   LIG    1      -35.418  76.637  26.833  0.00  0.00    +0.131 C 
BRANCH  11  15
ATOM     12  C   LIG    1      -32.904  75.098  29.992  0.00  0.00    +0.051 A 
ATOM     13  C   LIG    1      -33.080  74.383  28.804  0.00  0.00    +0.025 A 
ATOM     14  C   LIG    1      -33.895  74.875  27.790  0.00  0.00    +0.006 A 
ATOM     15  C   LIG    1      -34.537  76.107  27.940  0.00  0.00    -0.039 A 
ATOM     16  C   LIG    1      -34.337  76.842  29.120  0.00  0.00    +0.006 A 
ATOM     17  C   LIG    1      -33.522  76.339  30.143  0.00  0.00    +0.025 A 
BRANCH  12  19
ATOM     18  C   LIG    1      -31.703  73.146  30.913  0.00  0.00    +0.157 C 
ATOM     19  N   LIG    1      -32.036  74.582  31.018  0.00  0.00    -0.211 N 
BRANCH  19  20
ATOM     20  S   LIG    1      -30.722  75.579  31.478  0.00  0.00    +0.042 S 
ATOM     21  C   LIG    1      -29.502  74.380  31.992  0.00  0.00    +0.218 C 
ATOM     22  O   LIG    1      -31.119  76.323  32.647  0.00  0.00    -0.155 OA
ATOM     23  O   LIG    1      -30.205  76.262  30.298  0.00  0.00    -0.155 OA
ENDBRANCH  19  20
ENDBRANCH  12  19
ENDBRANCH  11  15
ENDBRANCH   7  11
ENDBRANCH   1   8
BRANCH   3  24
ATOM     24  C   LIG    1      -39.405  71.473  24.368  0.00  0.00    +0.197 C 
ATOM     25  O   LIG    1      -40.500  70.929  24.259  0.00  0.00    -0.287 OA
BRANCH  24  26
ATOM     26  C   LIG    1      -38.178  70.689  24.521  0.00  0.00    +0.051 A 
ATOM     27  C   LIG    1      -37.642  69.745  23.596  0.00  0.00    +0.048 A 
ATOM     28  C   LIG    1      -37.979  69.283  22.325  0.00  0.00    +0.126 A 
ATOM     29  N   LIG    1      -37.191  68.372  21.707  0.00  0.00    -0.222 NA
ATOM     30  C   LIG    1      -36.101  67.930  22.347  0.00  0.00    +0.214 A 
ATOM     31  N   LIG    1      -35.718  68.269  23.579  0.00  0.00    -0.197 NA
ATOM     32  C   LIG    1      -36.504  69.187  24.163  0.00  0.00    +0.147 A 
ATOM     33  N   LIG    1      -36.328  69.732  25.420  0.00  0.00    -0.323 N 
ATOM     34  C   LIG    1      -37.330  70.667  25.618  0.00  0.00    +0.100 A 
BRANCH  30  35
ATOM     35  N   LIG    1      -35.314  67.003  21.690  0.00  0.00    -0.327 N 
ATOM     36  H   LIG    1      -34.797  66.461  22.369  0.00  0.00    +0.145 HD
ATOM     37  H   LIG    1      -34.779  67.469  20.971  0.00  0.00    +0.145 HD
ENDBRANCH  30  35
BRANCH  33  38
ATOM     38  C   LIG    1      -35.286  69.374  26.414  0.00  0.00    +0.064 C 
ATOM     39  C   LIG    1      -35.326  67.881  26.817  0.00  0.00    +0.036 C 
ATOM     40  C   LIG    1      -35.474  70.206  27.703  0.00  0.00    +0.036 C 
BRANCH  38  41
ATOM     41  C   LIG    1      -33.857  69.672  25.864  0.00  0.00    +0.183 C 
BRANCH  41  42
ATOM     42  O   LIG    1      -33.798  70.891  25.124  0.00  0.00    -0.393 OA
ATOM     43  H   LIG    1      -34.666  71.322  25.197  0.00  0.00    +0.209 HD
ENDBRANCH  41  42
ENDBRANCH  38  41
ENDBRANCH  33  38
ENDBRANCH  24  26
ENDBRANCH   3  24
TORSDOF 11
ENDMDL
MODEL 9
REMARK VINA RESULT:      -5.6     12.373     16.672
REMARK  Name = pdb/CHEMBL3671431.pdb
REMARK                            x       y       z     vdW  Elec       q    Type
REMARK                         _______ _______ _______ _____ _____    ______ ____
ROOT
ATOM      1  C   LIG    1      -38.089  74.908  25.037  0.00  0.00    +0.052 A 
ATOM      2  C   LIG    1      -38.039  73.514  24.928  0.00  0.00    +0.038 A 
ATOM      3  C   LIG    1      -39.140  72.811  24.430  0.00  0.00    +0.042 A 
ATOM      4  C   LIG    1      -40.219  73.543  23.956  0.00  0.00    +0.122 A 
ATOM      5  N   LIG    1      -40.300  74.893  24.039  0.00  0.00    -0.261 NA
ATOM      6  C   LIG    1      -39.246  75.546  24.596  0.00  0.00    +0.134 A 
ENDROOT
BRANCH   1   8
ATOM      7  C   LIG    1      -36.736  75.801  26.943  0.00  0.00    +0.222 C 
ATOM      8  N   LIG    1      -36.966  75.546  25.603  0.00  0.00    -0.284 N 
ATOM      9  H   LIG    1      -36.222  75.797  24.962  0.00  0.00    +0.155 HD
ATOM     10  O   LIG    1      -37.506  75.549  27.864  0.00  0.00    -0.275 OA
BRANCH   7  11
ATOM     11  C   LIG    1      -35.408  76.505  27.195  0.00  0.00    +0.131 C 
BRANCH  11  15
ATOM     12  C   LIG    1      -32.502  74.083  29.282  0.00  0.00    +0.051 A 
ATOM     13  C   LIG    1      -32.575  75.462  29.500  0.00  0.00    +0.025 A 
ATOM     14  C   LIG    1      -33.505  76.242  28.824  0.00  0.00    +0.006 A 
ATOM     15  C   LIG    1      -34.397  75.651  27.924  0.00  0.00    -0.039 A 
ATOM     16  C   LIG    1      -34.347  74.262  27.727  0.00  0.00    +0.006 A 
ATOM     17  C   LIG    1      -33.402  73.479  28.404  0.00  0.00    +0.025 A 
BRANCH  12  19
ATOM     18  C   LIG    1      -30.655  74.039  30.922  0.00  0.00    +0.157 C 
ATOM     19  N   LIG    1      -31.548  73.290  30.013  0.00  0.00    -0.211 N 
BRANCH  19  20
ATOM     20  S   LIG    1      -32.116  71.805  30.648  0.00  0.00    +0.042 S 
ATOM     21  C   LIG    1      -30.938  71.476  31.948  0.00  0.00    +0.218 C 
ATOM     22  O   LIG    1      -31.939  70.794  29.636  0.00  0.00    -0.155 OA
ATOM     23  O   LIG    1      -33.417  72.019  31.270  0.00  0.00    -0.155 OA
ENDBRANCH  19  20
ENDBRANCH  12  19
ENDBRANCH  11  15
ENDBRANCH   7  11
ENDBRANCH   1   8
BRANCH   3  24
ATOM     24  C   LIG    1      -39.196  71.331  24.380  0.00  0.00    +0.197 C 
ATOM     25  O   LIG    1      -40.261  70.797  24.083  0.00  0.00    -0.287 OA
BRANCH  24  26
ATOM     26  C   LIG    1      -38.017  70.535  24.726  0.00  0.00    +0.051 A 
ATOM     27  C   LIG    1      -37.294  69.654  23.868  0.00  0.00    +0.048 A 
ATOM     28  C   LIG    1      -37.359  69.281  22.527  0.00  0.00    +0.126 A 
ATOM     29  N   LIG    1      -36.451  68.412  22.023  0.00  0.00    -0.222 NA
ATOM     30  C   LIG    1      -35.510  67.925  22.840  0.00  0.00    +0.214 A 
ATOM     31  N   LIG    1      -35.390  68.178  24.144  0.00  0.00    -0.197 NA
ATOM     32  C   LIG    1      -36.288  69.055  24.617  0.00  0.00    +0.147 A 
ATOM     33  N   LIG    1      -36.379  69.512  25.917  0.00  0.00    -0.323 N 
ATOM     34  C   LIG    1      -37.411  70.435  25.969  0.00  0.00    +0.100 A 
BRANCH  30  35
ATOM     35  N   LIG    1      -34.595  67.043  22.297  0.00  0.00    -0.327 N 
ATOM     36  H   LIG    1      -34.296  67.384  21.393  0.00  0.00    +0.145 HD
ATOM     37  H   LIG    1      -34.972  66.107  22.333  0.00  0.00    +0.145 HD
ENDBRANCH  30  35
BRANCH  33  38
ATOM     38  C   LIG    1      -35.557  69.084  27.077  0.00  0.00    +0.064 C 
ATOM     39  C   LIG    1      -34.048  69.361  26.880  0.00  0.00    +0.036 C 
ATOM     40  C   LIG    1      -35.721  67.566  27.313  0.00  0.00    +0.036 C 
BRANCH  38  41
ATOM     41  C   LIG    1      -36.000  69.816  28.381  0.00  0.00    +0.183 C 
BRANCH  41  42
ATOM     42  O   LIG    1      -34.894  70.324  29.127  0.00  0.00    -0.393 OA
ATOM     43  H   LIG    1      -34.178  69.671  29.073  0.00  0.00    +0.209 HD
ENDBRANCH  41  42
ENDBRANCH  38  41
ENDBRANCH  33  38
ENDBRANCH  24  26
ENDBRANCH   3  24
TORSDOF 11
ENDMDL
