MODEL 1
REMARK VINA RESULT:      -6.3      0.000      0.000
REMARK  Name = pdb/CHEMBL3930935.pdb
REMARK                            x       y       z     vdW  Elec       q    Type
REMARK                         _______ _______ _______ _____ _____    ______ ____
ROOT
ATOM      1  N   LIG    1      -34.542  74.415  27.648  0.00  0.00    -0.266 N 
ATOM      2  H   LIG    1      -34.358  74.095  26.706  0.00  0.00    +0.157 HD
ATOM      3  C   LIG    1      -35.911  74.553  28.078  0.00  0.00    +0.251 C 
ATOM      4  O   LIG    1      -36.175  74.839  29.228  0.00  0.00    -0.270 OA
ENDROOT
BRANCH   3   5
ATOM      5  C   LIG    1      -37.002  74.322  27.081  0.00  0.00    +0.056 A 
ATOM      6  C   LIG    1      -37.390  73.078  26.598  0.00  0.00    +0.054 A 
ATOM      7 CL   LIG    1      -36.722  71.566  27.082  0.00  0.00    -0.083 Cl
ATOM      8  C   LIG    1      -38.388  72.989  25.631  0.00  0.00    +0.041 A 
ATOM      9  C   LIG    1      -39.014  74.130  25.117  0.00  0.00    +0.052 A 
ATOM     10 CL   LIG    1      -40.090  73.809  23.802  0.00  0.00    -0.083 Cl
ATOM     11  C   LIG    1      -38.694  75.414  25.598  0.00  0.00    +0.022 A 
ATOM     12  C   LIG    1      -37.663  75.473  26.580  0.00  0.00    +0.026 A 
BRANCH  11  13
ATOM     13  C   LIG    1      -39.312  76.683  25.124  0.00  0.00    +0.107 A 
ATOM     14  C   LIG    1      -38.771  77.520  24.144  0.00  0.00    +0.149 A 
ATOM     15  F   LIG    1      -37.666  77.196  23.461  0.00  0.00    -0.203 F 
ATOM     16  C   LIG    1      -39.409  78.709  23.807  0.00  0.00    +0.042 A 
ATOM     17  C   LIG    1      -40.621  79.021  24.404  0.00  0.00    +0.023 A 
ATOM     18  C   LIG    1      -41.138  78.125  25.323  0.00  0.00    +0.111 A 
ATOM     19  N   LIG    1      -40.513  76.981  25.701  0.00  0.00    -0.252 NA
ENDBRANCH  11  13
ENDBRANCH   3   5
BRANCH   1  23
ATOM     20  C   LIG    1      -31.628  74.242  29.731  0.00  0.00    +0.149 A 
ATOM     21  N   LIG    1      -31.524  75.515  29.320  0.00  0.00    -0.160 NA
ATOM     22  N   LIG    1      -32.678  75.768  28.655  0.00  0.00    -0.218 N 
ATOM     23  C   LIG    1      -33.429  74.602  28.473  0.00  0.00    +0.129 A 
ATOM     24  C   LIG    1      -32.792  73.636  29.214  0.00  0.00    +0.078 A 
BRANCH  22  25
ATOM     25  C   LIG    1      -32.946  77.089  28.196  0.00  0.00    +0.067 A 
ATOM     26  C   LIG    1      -32.255  77.643  27.112  0.00  0.00    +0.028 A 
ATOM     27  C   LIG    1      -32.512  78.959  26.714  0.00  0.00    +0.002 A 
ATOM     28  C   LIG    1      -33.477  79.718  27.375  0.00  0.00    +0.000 A 
ATOM     29  C   LIG    1      -34.202  79.156  28.424  0.00  0.00    +0.002 A 
ATOM     30  C   LIG    1      -33.949  77.842  28.827  0.00  0.00    +0.028 A 
ENDBRANCH  22  25
BRANCH  20  32
ATOM     31  N   LIG    1      -30.201  72.431  30.244  0.00  0.00    -0.249 NA
ATOM     32  C   LIG    1      -30.634  73.591  30.573  0.00  0.00    +0.236 C 
BRANCH  31  34
ATOM     33  C   LIG    1      -28.989  70.331  30.489  0.00  0.00    +0.029 C 
ATOM     34  C   LIG    1      -29.194  71.735  31.029  0.00  0.00    +0.142 C 
ENDBRANCH  31  34
BRANCH  32  35
ATOM     35  O   LIG    1      -30.240  74.296  31.652  0.00  0.00    -0.491 OA
ATOM     36  H   LIG    1      -30.673  73.994  32.458  0.00  0.00    +0.294 HD
ENDBRANCH  32  35
ENDBRANCH  20  32
ENDBRANCH   1  23
TORSDOF 7
ENDMDL
MODEL 2
REMARK VINA RESULT:      -6.2     11.185     15.542
REMARK  Name = pdb/CHEMBL3930935.pdb
REMARK                            x       y       z     vdW  Elec       q    Type
REMARK                         _______ _______ _______ _____ _____    ______ ____
ROOT
ATOM      1  N   LIG    1      -24.407  78.626  33.316  0.00  0.00    -0.266 N 
ATOM      2  H   LIG    1      -24.575  79.550  32.940  0.00  0.00    +0.157 HD
ATOM      3  C   LIG    1      -23.577  78.494  34.486  0.00  0.00    +0.251 C 
ATOM      4  O   LIG    1      -23.429  77.417  35.026  0.00  0.00    -0.270 OA
ENDROOT
BRANCH   3   5
ATOM      5  C   LIG    1      -22.909  79.717  35.032  0.00  0.00    +0.056 A 
ATOM      6  C   LIG    1      -21.574  80.052  34.834  0.00  0.00    +0.054 A 
ATOM      7 CL   LIG    1      -20.448  79.149  33.894  0.00  0.00    -0.083 Cl
ATOM      8  C   LIG    1      -21.048  81.193  35.434  0.00  0.00    +0.041 A 
ATOM      9  C   LIG    1      -21.830  82.019  36.248  0.00  0.00    +0.052 A 
ATOM     10 CL   LIG    1      -20.939  83.274  37.036  0.00  0.00    -0.083 Cl
ATOM     11  C   LIG    1      -23.198  81.755  36.451  0.00  0.00    +0.022 A 
ATOM     12  C   LIG    1      -23.704  80.577  35.832  0.00  0.00    +0.026 A 
BRANCH  11  13
ATOM     13  C   LIG    1      -24.112  82.580  37.287  0.00  0.00    +0.107 A 
ATOM     14  C   LIG    1      -24.021  82.722  38.675  0.00  0.00    +0.149 A 
ATOM     15  F   LIG    1      -23.016  82.186  39.380  0.00  0.00    -0.203 F 
ATOM     16  C   LIG    1      -24.956  83.483  39.367  0.00  0.00    +0.042 A 
ATOM     17  C   LIG    1      -25.940  84.155  38.658  0.00  0.00    +0.023 A 
ATOM     18  C   LIG    1      -25.947  84.026  37.281  0.00  0.00    +0.111 A 
ATOM     19  N   LIG    1      -25.071  83.254  36.587  0.00  0.00    -0.252 NA
ENDBRANCH  11  13
ENDBRANCH   3   5
BRANCH   1  23
ATOM     20  C   LIG    1      -26.693  76.227  31.943  0.00  0.00    +0.149 A 
ATOM     21  N   LIG    1      -25.625  75.972  31.173  0.00  0.00    -0.160 NA
ATOM     22  N   LIG    1      -24.616  76.700  31.714  0.00  0.00    -0.218 N 
ATOM     23  C   LIG    1      -25.088  77.569  32.704  0.00  0.00    +0.129 A 
ATOM     24  C   LIG    1      -26.403  77.225  32.899  0.00  0.00    +0.078 A 
BRANCH  22  25
ATOM     25  C   LIG    1      -23.295  76.553  31.203  0.00  0.00    +0.067 A 
ATOM     26  C   LIG    1      -22.945  77.015  29.929  0.00  0.00    +0.028 A 
ATOM     27  C   LIG    1      -21.650  76.815  29.441  0.00  0.00    +0.002 A 
ATOM     28  C   LIG    1      -20.692  76.180  30.230  0.00  0.00    +0.000 A 
ATOM     29  C   LIG    1      -21.020  75.761  31.517  0.00  0.00    +0.002 A 
ATOM     30  C   LIG    1      -22.313  75.957  32.010  0.00  0.00    +0.028 A 
ENDBRANCH  22  25
BRANCH  20  32
ATOM     31  N   LIG    1      -28.979  76.250  31.348  0.00  0.00    -0.249 NA
ATOM     32  C   LIG    1      -27.980  75.567  31.769  0.00  0.00    +0.236 C 
BRANCH  31  34
ATOM     33  C   LIG    1      -30.865  76.119  29.811  0.00  0.00    +0.029 C 
ATOM     34  C   LIG    1      -30.285  75.648  31.132  0.00  0.00    +0.142 C 
ENDBRANCH  31  34
BRANCH  32  35
ATOM     35  O   LIG    1      -27.999  74.253  32.066  0.00  0.00    -0.491 OA
ATOM     36  H   LIG    1      -28.874  73.869  31.943  0.00  0.00    +0.294 HD
ENDBRANCH  32  35
ENDBRANCH  20  32
ENDBRANCH   1  23
TORSDOF 7
ENDMDL
MODEL 3
REMARK VINA RESULT:      -6.2     18.809     21.535
REMARK  Name = pdb/CHEMBL3930935.pdb
REMARK                            x       y       z     vdW  Elec       q    Type
REMARK                         _______ _______ _______ _____ _____    ______ ____
ROOT
ATOM      1  N   LIG    1      -21.499  80.995  13.902  0.00  0.00    -0.266 N 
ATOM      2  H   LIG    1      -21.197  80.931  12.938  0.00  0.00    +0.157 HD
ATOM      3  C   LIG    1      -21.028  82.096  14.703  0.00  0.00    +0.251 C 
ATOM      4  O   LIG    1      -21.442  82.265  15.832  0.00  0.00    -0.270 OA
ENDROOT
BRANCH   3   5
ATOM      5  C   LIG    1      -20.026  83.037  14.111  0.00  0.00    +0.056 A 
ATOM      6  C   LIG    1      -18.685  82.741  13.896  0.00  0.00    +0.054 A 
ATOM      7 CL   LIG    1      -17.930  81.229  14.230  0.00  0.00    -0.083 Cl
ATOM      8  C   LIG    1      -17.832  83.715  13.384  0.00  0.00    +0.041 A 
ATOM      9  C   LIG    1      -18.289  85.003  13.082  0.00  0.00    +0.052 A 
ATOM     10 CL   LIG    1      -17.035  86.104  12.631  0.00  0.00    -0.083 Cl
ATOM     11  C   LIG    1      -19.645  85.348  13.238  0.00  0.00    +0.022 A 
ATOM     12  C   LIG    1      -20.489  84.334  13.773  0.00  0.00    +0.026 A 
BRANCH  11  13
ATOM     13  C   LIG    1      -20.227  86.685  12.934  0.00  0.00    +0.107 A 
ATOM     14  C   LIG    1      -20.378  87.722  13.858  0.00  0.00    +0.149 A 
ATOM     15  F   LIG    1      -19.913  87.633  15.111  0.00  0.00    -0.203 F 
ATOM     16  C   LIG    1      -20.976  88.919  13.479  0.00  0.00    +0.042 A 
ATOM     17  C   LIG    1      -21.359  89.096  12.158  0.00  0.00    +0.023 A 
ATOM     18  C   LIG    1      -21.131  88.057  11.274  0.00  0.00    +0.111 A 
ATOM     19  N   LIG    1      -20.589  86.864  11.630  0.00  0.00    -0.252 NA
ENDBRANCH  11  13
ENDBRANCH   3   5
BRANCH   1  23
ATOM     20  C   LIG    1      -24.298  78.859  14.585  0.00  0.00    +0.149 A 
ATOM     21  N   LIG    1      -23.305  78.041  14.965  0.00  0.00    -0.160 NA
ATOM     22  N   LIG    1      -22.183  78.803  14.923  0.00  0.00    -0.218 N 
ATOM     23  C   LIG    1      -22.431  80.046  14.329  0.00  0.00    +0.129 A 
ATOM     24  C   LIG    1      -23.794  80.110  14.169  0.00  0.00    +0.078 A 
BRANCH  22  25
ATOM     25  C   LIG    1      -20.954  78.264  15.398  0.00  0.00    +0.067 A 
ATOM     26  C   LIG    1      -20.077  79.020  16.184  0.00  0.00    +0.028 A 
ATOM     27  C   LIG    1      -18.857  78.474  16.597  0.00  0.00    +0.002 A 
ATOM     28  C   LIG    1      -18.519  77.166  16.254  0.00  0.00    +0.000 A 
ATOM     29  C   LIG    1      -19.409  76.393  15.512  0.00  0.00    +0.002 A 
ATOM     30  C   LIG    1      -20.629  76.932  15.096  0.00  0.00    +0.028 A 
ENDBRANCH  22  25
BRANCH  20  32
ATOM     31  N   LIG    1      -26.209  77.979  13.511  0.00  0.00    -0.249 NA
ATOM     32  C   LIG    1      -25.701  78.466  14.581  0.00  0.00    +0.236 C 
BRANCH  31  34
ATOM     33  C   LIG    1      -27.697  76.065  13.758  0.00  0.00    +0.029 C 
ATOM     34  C   LIG    1      -27.596  77.547  13.446  0.00  0.00    +0.142 C 
ENDBRANCH  31  34
BRANCH  32  35
ATOM     35  O   LIG    1      -26.353  78.646  15.747  0.00  0.00    -0.491 OA
ATOM     36  H   LIG    1      -26.150  77.952  16.384  0.00  0.00    +0.294 HD
ENDBRANCH  32  35
ENDBRANCH  20  32
ENDBRANCH   1  23
TORSDOF 7
ENDMDL
MODEL 4
REMARK VINA RESULT:      -6.1      4.482      8.695
REMARK  Name = pdb/CHEMBL3930935.pdb
REMARK                            x       y       z     vdW  Elec       q    Type
REMARK                         _______ _______ _______ _____ _____    ______ ____
ROOT
ATOM      1  N   LIG    1      -34.875  71.767  26.526  0.00  0.00    -0.266 N 
ATOM      2  H   LIG    1      -33.990  71.855  26.043  0.00  0.00    +0.157 HD
ATOM      3  C   LIG    1      -35.099  72.558  27.711  0.00  0.00    +0.251 C 
ATOM      4  O   LIG    1      -36.180  72.556  28.264  0.00  0.00    -0.270 OA
ENDROOT
BRANCH   3   5
ATOM      5  C   LIG    1      -33.975  73.393  28.238  0.00  0.00    +0.056 A 
ATOM      6  C   LIG    1      -32.921  72.916  29.009  0.00  0.00    +0.054 A 
ATOM      7 CL   LIG    1      -32.684  71.272  29.467  0.00  0.00    -0.083 Cl
ATOM      8  C   LIG    1      -31.956  73.798  29.487  0.00  0.00    +0.041 A 
ATOM      9  C   LIG    1      -32.020  75.169  29.220  0.00  0.00    +0.052 A 
ATOM     10 CL   LIG    1      -30.830  76.104  30.057  0.00  0.00    -0.083 Cl
ATOM     11  C   LIG    1      -33.040  75.705  28.411  0.00  0.00    +0.022 A 
ATOM     12  C   LIG    1      -34.017  74.780  27.944  0.00  0.00    +0.026 A 
BRANCH  11  13
ATOM     13  C   LIG    1      -33.186  77.145  28.061  0.00  0.00    +0.107 A 
ATOM     14  C   LIG    1      -32.468  77.803  27.059  0.00  0.00    +0.149 A 
ATOM     15  F   LIG    1      -31.630  77.154  26.240  0.00  0.00    -0.203 F 
ATOM     16  C   LIG    1      -32.649  79.165  26.843  0.00  0.00    +0.042 A 
ATOM     17  C   LIG    1      -33.599  79.848  27.588  0.00  0.00    +0.023 A 
ATOM     18  C   LIG    1      -34.321  79.132  28.526  0.00  0.00    +0.111 A 
ATOM     19  N   LIG    1      -34.132  77.813  28.785  0.00  0.00    -0.252 NA
ENDBRANCH  11  13
ENDBRANCH   3   5
BRANCH   1  23
ATOM     20  C   LIG    1      -37.403  70.149  24.564  0.00  0.00    +0.149 A 
ATOM     21  N   LIG    1      -36.843  69.068  25.129  0.00  0.00    -0.160 NA
ATOM     22  N   LIG    1      -35.974  69.558  26.047  0.00  0.00    -0.218 N 
ATOM     23  C   LIG    1      -35.834  70.946  25.929  0.00  0.00    +0.129 A 
ATOM     24  C   LIG    1      -36.793  71.335  25.025  0.00  0.00    +0.078 A 
BRANCH  22  25
ATOM     25  C   LIG    1      -35.300  68.660  26.923  0.00  0.00    +0.067 A 
ATOM     26  C   LIG    1      -34.466  67.648  26.435  0.00  0.00    +0.028 A 
ATOM     27  C   LIG    1      -33.855  66.754  27.322  0.00  0.00    +0.002 A 
ATOM     28  C   LIG    1      -34.049  66.883  28.696  0.00  0.00    +0.000 A 
ATOM     29  C   LIG    1      -34.840  67.918  29.190  0.00  0.00    +0.002 A 
ATOM     30  C   LIG    1      -35.454  68.813  28.310  0.00  0.00    +0.028 A 
ENDBRANCH  22  25
BRANCH  20  32
ATOM     31  N   LIG    1      -38.331  69.314  22.558  0.00  0.00    -0.249 NA
ATOM     32  C   LIG    1      -38.475  70.072  23.581  0.00  0.00    +0.236 C 
BRANCH  31  34
ATOM     33  C   LIG    1      -39.353  67.774  20.972  0.00  0.00    +0.029 C 
ATOM     34  C   LIG    1      -39.370  69.176  21.551  0.00  0.00    +0.142 C 
ENDBRANCH  31  34
BRANCH  32  35
ATOM     35  O   LIG    1      -39.561  70.823  23.853  0.00  0.00    -0.491 OA
ATOM     36  H   LIG    1      -39.338  71.754  23.959  0.00  0.00    +0.294 HD
ENDBRANCH  32  35
ENDBRANCH  20  32
ENDBRANCH   1  23
TORSDOF 7
ENDMDL
MODEL 5
REMARK VINA RESULT:      -6.1     17.508     20.051
REMARK  Name = pdb/CHEMBL3930935.pdb
REMARK                            x       y       z     vdW  Elec       q    Type
REMARK                         _______ _______ _______ _____ _____    ______ ____
ROOT
ATOM      1  N   LIG    1      -25.344  81.103  13.520  0.00  0.00    -0.266 N 
ATOM      2  H   LIG    1      -25.915  81.798  13.983  0.00  0.00    +0.157 HD
ATOM      3  C   LIG    1      -24.370  81.540  12.552  0.00  0.00    +0.251 C 
ATOM      4  O   LIG    1      -23.598  80.751  12.046  0.00  0.00    -0.270 OA
ENDROOT
BRANCH   3   5
ATOM      5  C   LIG    1      -24.319  82.991  12.191  0.00  0.00    +0.056 A 
ATOM      6  C   LIG    1      -25.133  83.607  11.248  0.00  0.00    +0.054 A 
ATOM      7 CL   LIG    1      -26.380  82.832  10.347  0.00  0.00    -0.083 Cl
ATOM      8  C   LIG    1      -24.961  84.958  10.958  0.00  0.00    +0.041 A 
ATOM      9  C   LIG    1      -23.974  85.723  11.589  0.00  0.00    +0.052 A 
ATOM     10 CL   LIG    1      -23.813  87.323  10.954  0.00  0.00    -0.083 Cl
ATOM     11  C   LIG    1      -23.148  85.166  12.583  0.00  0.00    +0.022 A 
ATOM     12  C   LIG    1      -23.342  83.780  12.851  0.00  0.00    +0.026 A 
BRANCH  11  13
ATOM     13  C   LIG    1      -22.081  85.900  13.318  0.00  0.00    +0.107 A 
ATOM     14  C   LIG    1      -20.730  85.920  12.960  0.00  0.00    +0.149 A 
ATOM     15  F   LIG    1      -20.282  85.340  11.839  0.00  0.00    -0.203 F 
ATOM     16  C   LIG    1      -19.806  86.603  13.744  0.00  0.00    +0.042 A 
ATOM     17  C   LIG    1      -20.250  87.320  14.845  0.00  0.00    +0.023 A 
ATOM     18  C   LIG    1      -21.607  87.312  15.117  0.00  0.00    +0.111 A 
ATOM     19  N   LIG    1      -22.522  86.618  14.393  0.00  0.00    -0.252 NA
ENDBRANCH  11  13
ENDBRANCH   3   5
BRANCH   1  23
ATOM     20  C   LIG    1      -26.204  77.680  14.154  0.00  0.00    +0.149 A 
ATOM     21  N   LIG    1      -24.962  77.688  14.661  0.00  0.00    -0.160 NA
ATOM     22  N   LIG    1      -24.581  78.989  14.645  0.00  0.00    -0.218 N 
ATOM     23  C   LIG    1      -25.499  79.782  13.947  0.00  0.00    +0.129 A 
ATOM     24  C   LIG    1      -26.569  78.960  13.686  0.00  0.00    +0.078 A 
BRANCH  22  25
ATOM     25  C   LIG    1      -23.345  79.364  15.245  0.00  0.00    +0.067 A 
ATOM     26  C   LIG    1      -23.269  80.398  16.184  0.00  0.00    +0.028 A 
ATOM     27  C   LIG    1      -22.031  80.770  16.720  0.00  0.00    +0.002 A 
ATOM     28  C   LIG    1      -20.871  80.095  16.345  0.00  0.00    +0.000 A 
ATOM     29  C   LIG    1      -20.947  79.032  15.447  0.00  0.00    +0.002 A 
ATOM     30  C   LIG    1      -22.180  78.657  14.907  0.00  0.00    +0.028 A 
ENDBRANCH  22  25
BRANCH  20  32
ATOM     31  N   LIG    1      -26.462  75.333  14.079  0.00  0.00    -0.249 NA
ATOM     32  C   LIG    1      -27.029  76.482  14.078  0.00  0.00    +0.236 C 
BRANCH  31  34
ATOM     33  C   LIG    1      -26.892  73.224  15.221  0.00  0.00    +0.029 C 
ATOM     34  C   LIG    1      -27.228  74.098  14.027  0.00  0.00    +0.142 C 
ENDBRANCH  31  34
BRANCH  32  35
ATOM     35  O   LIG    1      -28.358  76.699  14.023  0.00  0.00    -0.491 OA
ATOM     36  H   LIG    1      -28.790  76.498  14.860  0.00  0.00    +0.294 HD
ENDBRANCH  32  35
ENDBRANCH  20  32
ENDBRANCH   1  23
TORSDOF 7
ENDMDL
MODEL 6
REMARK VINA RESULT:      -6.1      3.359      8.741
REMARK  Name = pdb/CHEMBL3930935.pdb
REMARK                            x       y       z     vdW  Elec       q    Type
REMARK                         _______ _______ _______ _____ _____    ______ ____
ROOT
ATOM      1  N   LIG    1      -37.889  74.059  25.343  0.00  0.00    -0.266 N 
ATOM      2  H   LIG    1      -37.048  74.243  24.811  0.00  0.00    +0.157 HD
ATOM      3  C   LIG    1      -37.806  74.024  26.782  0.00  0.00    +0.251 C 
ATOM      4  O   LIG    1      -38.805  73.904  27.460  0.00  0.00    -0.270 OA
ENDROOT
BRANCH   3   5
ATOM      5  C   LIG    1      -36.461  74.154  27.425  0.00  0.00    +0.056 A 
ATOM      6  C   LIG    1      -35.851  73.176  28.202  0.00  0.00    +0.054 A 
ATOM      7 CL   LIG    1      -36.505  71.617  28.538  0.00  0.00    -0.083 Cl
ATOM      8  C   LIG    1      -34.616  73.428  28.793  0.00  0.00    +0.041 A 
ATOM      9  C   LIG    1      -33.965  74.656  28.633  0.00  0.00    +0.052 A 
ATOM     10 CL   LIG    1      -32.538  74.823  29.594  0.00  0.00    -0.083 Cl
ATOM     11  C   LIG    1      -34.512  75.669  27.824  0.00  0.00    +0.022 A 
ATOM     12  C   LIG    1      -35.780  75.385  27.241  0.00  0.00    +0.026 A 
BRANCH  11  13
ATOM     13  C   LIG    1      -33.890  77.000  27.584  0.00  0.00    +0.107 A 
ATOM     14  C   LIG    1      -34.285  78.192  28.198  0.00  0.00    +0.149 A 
ATOM     15  F   LIG    1      -35.224  78.223  29.153  0.00  0.00    -0.203 F 
ATOM     16  C   LIG    1      -33.665  79.392  27.868  0.00  0.00    +0.042 A 
ATOM     17  C   LIG    1      -32.605  79.383  26.974  0.00  0.00    +0.023 A 
ATOM     18  C   LIG    1      -32.219  78.165  26.442  0.00  0.00    +0.111 A 
ATOM     19  N   LIG    1      -32.836  76.988  26.716  0.00  0.00    -0.252 NA
ENDBRANCH  11  13
ENDBRANCH   3   5
BRANCH   1  23
ATOM     20  C   LIG    1      -40.893  73.141  23.613  0.00  0.00    +0.149 A 
ATOM     21  N   LIG    1      -41.160  74.436  23.836  0.00  0.00    -0.160 NA
ATOM     22  N   LIG    1      -40.011  74.954  24.336  0.00  0.00    -0.218 N 
ATOM     23  C   LIG    1      -39.077  73.949  24.616  0.00  0.00    +0.129 A 
ATOM     24  C   LIG    1      -39.613  72.796  24.096  0.00  0.00    +0.078 A 
BRANCH  22  25
ATOM     25  C   LIG    1      -39.915  76.357  24.562  0.00  0.00    +0.067 A 
ATOM     26  C   LIG    1      -39.904  76.892  25.855  0.00  0.00    +0.028 A 
ATOM     27  C   LIG    1      -39.854  78.278  26.040  0.00  0.00    +0.002 A 
ATOM     28  C   LIG    1      -39.785  79.132  24.941  0.00  0.00    +0.000 A 
ATOM     29  C   LIG    1      -39.747  78.603  23.653  0.00  0.00    +0.002 A 
ATOM     30  C   LIG    1      -39.798  77.220  23.461  0.00  0.00    +0.028 A 
ENDBRANCH  22  25
BRANCH  20  32
ATOM     31  N   LIG    1      -42.506  72.625  21.965  0.00  0.00    -0.249 NA
ATOM     32  C   LIG    1      -41.837  72.227  22.983  0.00  0.00    +0.236 C 
BRANCH  31  34
ATOM     33  C   LIG    1      -42.847  71.263  19.974  0.00  0.00    +0.029 C 
ATOM     34  C   LIG    1      -43.447  71.756  21.277  0.00  0.00    +0.142 C 
ENDBRANCH  31  34
BRANCH  32  35
ATOM     35  O   LIG    1      -41.914  71.002  23.541  0.00  0.00    -0.491 OA
ATOM     36  H   LIG    1      -41.246  70.876  24.224  0.00  0.00    +0.294 HD
ENDBRANCH  32  35
ENDBRANCH  20  32
ENDBRANCH   1  23
TORSDOF 7
ENDMDL
MODEL 7
REMARK VINA RESULT:      -6.0      7.888     10.719
REMARK  Name = pdb/CHEMBL3930935.pdb
REMARK                            x       y       z     vdW  Elec       q    Type
REMARK                         _______ _______ _______ _____ _____    ______ ____
ROOT
ATOM      1  N   LIG    1      -33.880  84.583  29.084  0.00  0.00    -0.266 N 
ATOM      2  H   LIG    1      -33.654  84.307  28.137  0.00  0.00    +0.157 HD
ATOM      3  C   LIG    1      -34.767  83.749  29.856  0.00  0.00    +0.251 C 
ATOM      4  O   LIG    1      -34.987  83.991  31.026  0.00  0.00    -0.270 OA
ENDROOT
BRANCH   3   5
ATOM      5  C   LIG    1      -35.403  82.570  29.190  0.00  0.00    +0.056 A 
ATOM      6  C   LIG    1      -36.766  82.426  28.956  0.00  0.00    +0.054 A 
ATOM      7 CL   LIG    1      -37.975  83.589  29.348  0.00  0.00    -0.083 Cl
ATOM      8  C   LIG    1      -37.250  81.259  28.371  0.00  0.00    +0.041 A 
ATOM      9  C   LIG    1      -36.396  80.209  28.014  0.00  0.00    +0.052 A 
ATOM     10 CL   LIG    1      -37.220  78.788  27.474  0.00  0.00    -0.083 Cl
ATOM     11  C   LIG    1      -35.004  80.315  28.187  0.00  0.00    +0.022 A 
ATOM     12  C   LIG    1      -34.540  81.516  28.796  0.00  0.00    +0.026 A 
BRANCH  11  13
ATOM     13  C   LIG    1      -34.016  79.260  27.829  0.00  0.00    +0.107 A 
ATOM     14  C   LIG    1      -33.835  78.061  28.525  0.00  0.00    +0.149 A 
ATOM     15  F   LIG    1      -34.623  77.707  29.549  0.00  0.00    -0.203 F 
ATOM     16  C   LIG    1      -32.851  77.162  28.131  0.00  0.00    +0.042 A 
ATOM     17  C   LIG    1      -32.096  77.436  27.000  0.00  0.00    +0.023 A 
ATOM     18  C   LIG    1      -32.359  78.609  26.317  0.00  0.00    +0.111 A 
ATOM     19  N   LIG    1      -33.285  79.523  26.706  0.00  0.00    -0.252 NA
ENDBRANCH  11  13
ENDBRANCH   3   5
BRANCH   1  23
ATOM     20  C   LIG    1      -31.647  87.121  30.281  0.00  0.00    +0.149 A 
ATOM     21  N   LIG    1      -32.677  87.897  29.912  0.00  0.00    -0.160 NA
ATOM     22  N   LIG    1      -33.676  87.035  29.600  0.00  0.00    -0.218 N 
ATOM     23  C   LIG    1      -33.221  85.712  29.580  0.00  0.00    +0.129 A 
ATOM     24  C   LIG    1      -31.941  85.756  30.077  0.00  0.00    +0.078 A 
BRANCH  22  25
ATOM     25  C   LIG    1      -34.969  87.545  29.288  0.00  0.00    +0.067 A 
ATOM     26  C   LIG    1      -35.202  88.291  28.127  0.00  0.00    +0.028 A 
ATOM     27  C   LIG    1      -36.474  88.814  27.873  0.00  0.00    +0.002 A 
ATOM     28  C   LIG    1      -37.524  88.573  28.758  0.00  0.00    +0.000 A 
ATOM     29  C   LIG    1      -37.309  87.790  29.890  0.00  0.00    +0.002 A 
ATOM     30  C   LIG    1      -36.040  87.265  30.150  0.00  0.00    +0.028 A 
ENDBRANCH  22  25
BRANCH  20  32
ATOM     31  N   LIG    1      -30.152  87.594  32.048  0.00  0.00    -0.249 NA
ATOM     32  C   LIG    1      -30.389  87.651  30.791  0.00  0.00    +0.236 C 
BRANCH  31  34
ATOM     33  C   LIG    1      -29.190  89.215  33.592  0.00  0.00    +0.029 C 
ATOM     34  C   LIG    1      -28.908  88.085  32.619  0.00  0.00    +0.142 C 
ENDBRANCH  31  34
BRANCH  32  35
ATOM     35  O   LIG    1      -29.558  88.160  29.859  0.00  0.00    -0.491 OA
ATOM     36  H   LIG    1      -30.024  88.722  29.230  0.00  0.00    +0.294 HD
ENDBRANCH  32  35
ENDBRANCH  20  32
ENDBRANCH   1  23
TORSDOF 7
ENDMDL
MODEL 8
REMARK VINA RESULT:      -5.9      4.003      7.414
REMARK  Name = pdb/CHEMBL3930935.pdb
REMARK                            x       y       z     vdW  Elec       q    Type
REMARK                         _______ _______ _______ _____ _____    ______ ____
ROOT
ATOM      1  N   LIG    1      -38.296  76.544  26.362  0.00  0.00    -0.266 N 
ATOM      2  H   LIG    1      -39.045  76.139  26.908  0.00  0.00    +0.157 HD
ATOM      3  C   LIG    1      -37.950  75.936  25.102  0.00  0.00    +0.251 C 
ATOM      4  O   LIG    1      -37.125  76.446  24.371  0.00  0.00    -0.270 OA
ENDROOT
BRANCH   3   5
ATOM      5  C   LIG    1      -38.638  74.668  24.705  0.00  0.00    +0.056 A 
ATOM      6  C   LIG    1      -39.900  74.593  24.127  0.00  0.00    +0.054 A 
ATOM      7 CL   LIG    1      -40.892  75.941  23.720  0.00  0.00    -0.083 Cl
ATOM      8  C   LIG    1      -40.462  73.351  23.845  0.00  0.00    +0.041 A 
ATOM      9  C   LIG    1      -39.790  72.159  24.138  0.00  0.00    +0.052 A 
ATOM     10 CL   LIG    1      -40.738  70.737  23.877  0.00  0.00    -0.083 Cl
ATOM     11  C   LIG    1      -38.493  72.172  24.684  0.00  0.00    +0.022 A 
ATOM     12  C   LIG    1      -37.949  73.457  24.970  0.00  0.00    +0.026 A 
BRANCH  11  13
ATOM     13  C   LIG    1      -37.695  70.960  25.019  0.00  0.00    +0.107 A 
ATOM     14  C   LIG    1      -37.310  69.976  24.104  0.00  0.00    +0.149 A 
ATOM     15  F   LIG    1      -37.554  70.090  22.792  0.00  0.00    -0.203 F 
ATOM     16  C   LIG    1      -36.601  68.859  24.531  0.00  0.00    +0.042 A 
ATOM     17  C   LIG    1      -36.222  68.765  25.861  0.00  0.00    +0.023 A 
ATOM     18  C   LIG    1      -36.580  69.797  26.710  0.00  0.00    +0.111 A 
ATOM     19  N   LIG    1      -37.308  70.877  26.326  0.00  0.00    -0.252 NA
ENDBRANCH  11  13
ENDBRANCH   3   5
BRANCH   1  23
ATOM     20  C   LIG    1      -37.462  79.804  27.604  0.00  0.00    +0.149 A 
ATOM     21  N   LIG    1      -36.415  79.116  28.084  0.00  0.00    -0.160 NA
ATOM     22  N   LIG    1      -36.516  77.883  27.528  0.00  0.00    -0.218 N 
ATOM     23  C   LIG    1      -37.732  77.725  26.854  0.00  0.00    +0.129 A 
ATOM     24  C   LIG    1      -38.312  78.971  26.845  0.00  0.00    +0.078 A 
BRANCH  22  25
ATOM     25  C   LIG    1      -35.474  76.934  27.734  0.00  0.00    +0.067 A 
ATOM     26  C   LIG    1      -35.746  75.624  28.144  0.00  0.00    +0.028 A 
ATOM     27  C   LIG    1      -34.695  74.731  28.380  0.00  0.00    +0.002 A 
ATOM     28  C   LIG    1      -33.374  75.130  28.181  0.00  0.00    +0.000 A 
ATOM     29  C   LIG    1      -33.101  76.418  27.727  0.00  0.00    +0.002 A 
ATOM     30  C   LIG    1      -34.145  77.316  27.491  0.00  0.00    +0.028 A 
ENDBRANCH  22  25
BRANCH  20  32
ATOM     31  N   LIG    1      -37.419  82.077  26.964  0.00  0.00    -0.249 NA
ATOM     32  C   LIG    1      -37.682  81.217  27.877  0.00  0.00    +0.236 C 
BRANCH  31  34
ATOM     33  C   LIG    1      -36.352  84.166  27.623  0.00  0.00    +0.029 C 
ATOM     34  C   LIG    1      -37.637  83.501  27.164  0.00  0.00    +0.142 C 
ENDBRANCH  31  34
BRANCH  32  35
ATOM     35  O   LIG    1      -38.170  81.499  29.102  0.00  0.00    -0.491 OA
ATOM     36  H   LIG    1      -37.495  81.870  29.680  0.00  0.00    +0.294 HD
ENDBRANCH  32  35
ENDBRANCH  20  32
ENDBRANCH   1  23
TORSDOF 7
ENDMDL
MODEL 9
REMARK VINA RESULT:      -5.9      4.375      7.314
REMARK  Name = pdb/CHEMBL3930935.pdb
REMARK                            x       y       z     vdW  Elec       q    Type
REMARK                         _______ _______ _______ _____ _____    ______ ____
ROOT
ATOM      1  N   LIG    1      -36.744  71.754  25.046  0.00  0.00    -0.266 N 
ATOM      2  H   LIG    1      -36.252  72.341  24.384  0.00  0.00    +0.157 HD
ATOM      3  C   LIG    1      -37.890  72.294  25.733  0.00  0.00    +0.251 C 
ATOM      4  O   LIG    1      -38.565  71.594  26.460  0.00  0.00    -0.270 OA
ENDROOT
BRANCH   3   5
ATOM      5  C   LIG    1      -38.239  73.733  25.523  0.00  0.00    +0.056 A 
ATOM      6  C   LIG    1      -39.220  74.197  24.654  0.00  0.00    +0.054 A 
ATOM      7 CL   LIG    1      -40.246  73.206  23.687  0.00  0.00    -0.083 Cl
ATOM      8  C   LIG    1      -39.424  75.566  24.503  0.00  0.00    +0.041 A 
ATOM      9  C   LIG    1      -38.655  76.502  25.203  0.00  0.00    +0.052 A 
ATOM     10 CL   LIG    1      -38.948  78.140  24.734  0.00  0.00    -0.083 Cl
ATOM     11  C   LIG    1      -37.677  76.093  26.128  0.00  0.00    +0.022 A 
ATOM     12  C   LIG    1      -37.485  74.687  26.253  0.00  0.00    +0.026 A 
BRANCH  11  13
ATOM     13  C   LIG    1      -36.819  77.011  26.927  0.00  0.00    +0.107 A 
ATOM     14  C   LIG    1      -37.292  78.033  27.755  0.00  0.00    +0.149 A 
ATOM     15  F   LIG    1      -38.599  78.219  27.980  0.00  0.00    -0.203 F 
ATOM     16  C   LIG    1      -36.401  78.865  28.424  0.00  0.00    +0.042 A 
ATOM     17  C   LIG    1      -35.039  78.626  28.314  0.00  0.00    +0.023 A 
ATOM     18  C   LIG    1      -34.631  77.564  27.527  0.00  0.00    +0.111 A 
ATOM     19  N   LIG    1      -35.479  76.765  26.830  0.00  0.00    -0.252 NA
ENDBRANCH  11  13
ENDBRANCH   3   5
BRANCH   1  23
ATOM     20  C   LIG    1      -35.396  68.543  25.902  0.00  0.00    +0.149 A 
ATOM     21  N   LIG    1      -36.308  68.159  24.996  0.00  0.00    -0.160 NA
ATOM     22  N   LIG    1      -36.775  69.311  24.454  0.00  0.00    -0.218 N 
ATOM     23  C   LIG    1      -36.307  70.431  25.151  0.00  0.00    +0.129 A 
ATOM     24  C   LIG    1      -35.375  69.947  26.038  0.00  0.00    +0.078 A 
BRANCH  22  25
ATOM     25  C   LIG    1      -37.676  69.252  23.353  0.00  0.00    +0.067 A 
ATOM     26  C   LIG    1      -39.039  69.531  23.505  0.00  0.00    +0.028 A 
ATOM     27  C   LIG    1      -39.905  69.420  22.412  0.00  0.00    +0.002 A 
ATOM     28  C   LIG    1      -39.412  69.059  21.159  0.00  0.00    +0.000 A 
ATOM     29  C   LIG    1      -38.049  68.827  20.991  0.00  0.00    +0.002 A 
ATOM     30  C   LIG    1      -37.179  68.935  22.079  0.00  0.00    +0.028 A 
ENDBRANCH  22  25
BRANCH  20  32
ATOM     31  N   LIG    1      -34.499  67.724  27.929  0.00  0.00    -0.249 NA
ATOM     32  C   LIG    1      -34.574  67.605  26.655  0.00  0.00    +0.236 C 
BRANCH  31  34
ATOM     33  C   LIG    1      -32.594  67.560  29.438  0.00  0.00    +0.029 C 
ATOM     34  C   LIG    1      -33.714  66.810  28.742  0.00  0.00    +0.142 C 
ENDBRANCH  31  34
BRANCH  32  35
ATOM     35  O   LIG    1      -33.956  66.659  25.920  0.00  0.00    -0.491 OA
ATOM     36  H   LIG    1      -32.998  66.750  25.949  0.00  0.00    +0.294 HD
ENDBRANCH  32  35
ENDBRANCH  20  32
ENDBRANCH   1  23
TORSDOF 7
ENDMDL
