MODEL 1
REMARK VINA RESULT:      -6.3      0.000      0.000
REMARK  Name = pdb/CHEMBL3675940.pdb
REMARK                            x       y       z     vdW  Elec       q    Type
REMARK                         _______ _______ _______ _____ _____    ______ ____
ROOT
ATOM      1  N   LIG    1      -23.575  84.878  11.885  0.00  0.00    -0.308 N 
ATOM      2  C   LIG    1      -23.224  86.162  12.535  0.00  0.00    +0.106 C 
ATOM      3  C   LIG    1      -23.807  87.199  11.559  0.00  0.00    +0.029 C 
ATOM      4  C   LIG    1      -23.668  86.540  10.202  0.00  0.00    +0.021 C 
ATOM      5  C   LIG    1      -24.020  85.092  10.503  0.00  0.00    +0.107 C 
ENDROOT
BRANCH   1   9
ATOM      6  C   LIG    1      -22.978  81.774  15.574  0.00  0.00    +0.100 A 
ATOM      7  C   LIG    1      -23.419  82.279  14.359  0.00  0.00    +0.170 A 
ATOM      8  N   LIG    1      -23.197  83.474  13.712  0.00  0.00    -0.212 NA
ATOM      9  C   LIG    1      -23.741  83.653  12.522  0.00  0.00    +0.126 A 
ATOM     10  C   LIG    1      -24.566  82.572  11.864  0.00  0.00    +0.063 A 
ATOM     11  C   LIG    1      -24.783  81.449  12.553  0.00  0.00    +0.118 A 
ATOM     12  N   LIG    1      -24.225  81.283  13.807  0.00  0.00    -0.221 N 
ATOM     13  N   LIG    1      -24.358  80.213  14.625  0.00  0.00    -0.173 NA
ATOM     14  C   LIG    1      -23.612  80.519  15.683  0.00  0.00    +0.150 A 
BRANCH   6  18
ATOM     15  N   LIG    1      -20.754  82.207  16.289  0.00  0.00    -0.325 N 
ATOM     16  H   LIG    1      -20.446  81.697  15.466  0.00  0.00    +0.145 HD
ATOM     17  H   LIG    1      -20.085  82.585  16.940  0.00  0.00    +0.145 HD
ATOM     18  C   LIG    1      -22.081  82.369  16.534  0.00  0.00    +0.247 C 
ATOM     19  O   LIG    1      -22.474  82.977  17.532  0.00  0.00    -0.270 OA
ENDBRANCH   6  18
ENDBRANCH   1   9
BRANCH   2  20
ATOM     20  C   LIG    1      -21.714  86.322  12.798  0.00  0.00    -0.013 A 
ATOM     21  C   LIG    1      -21.167  86.702  14.057  0.00  0.00    +0.060 A 
ATOM     22  C   LIG    1      -19.756  86.757  14.216  0.00  0.00    +0.015 A 
ATOM     23  C   LIG    1      -18.889  86.431  13.180  0.00  0.00    +0.039 A 
ATOM     24  C   LIG    1      -19.419  86.057  11.963  0.00  0.00    +0.124 A 
ATOM     25  F   LIG    1      -18.599  85.720  10.959  0.00  0.00    -0.205 F 
ATOM     26  C   LIG    1      -20.796  86.013  11.766  0.00  0.00    +0.044 A 
BRANCH  21  27
ATOM     27  C   LIG    1      -21.947  87.064  15.310  0.00  0.00    +0.418 C 
ATOM     28  F   LIG    1      -22.728  86.030  15.733  0.00  0.00    -0.166 F 
ATOM     29  F   LIG    1      -22.803  88.102  15.092  0.00  0.00    -0.166 F 
ATOM     30  F   LIG    1      -21.197  87.431  16.379  0.00  0.00    -0.166 F 
ENDBRANCH  21  27
ENDBRANCH   2  20
TORSDOF 4
ENDMDL
MODEL 2
REMARK VINA RESULT:      -6.0     18.772     21.094
REMARK  Name = pdb/CHEMBL3675940.pdb
REMARK                            x       y       z     vdW  Elec       q    Type
REMARK                         _______ _______ _______ _____ _____    ______ ____
ROOT
ATOM      1  N   LIG    1      -23.678  77.797  32.451  0.00  0.00    -0.308 N 
ATOM      2  C   LIG    1      -22.931  77.351  31.252  0.00  0.00    +0.106 C 
ATOM      3  C   LIG    1      -24.053  77.151  30.217  0.00  0.00    +0.029 C 
ATOM      4  C   LIG    1      -25.239  76.702  31.048  0.00  0.00    +0.021 C 
ATOM      5  C   LIG    1      -25.119  77.574  32.288  0.00  0.00    +0.107 C 
ENDROOT
BRANCH   1   9
ATOM      6  C   LIG    1      -20.099  79.591  35.203  0.00  0.00    +0.100 A 
ATOM      7  C   LIG    1      -21.378  79.385  34.708  0.00  0.00    +0.170 A 
ATOM      8  N   LIG    1      -21.872  78.569  33.715  0.00  0.00    -0.212 NA
ATOM      9  C   LIG    1      -23.173  78.571  33.491  0.00  0.00    +0.126 A 
ATOM     10  C   LIG    1      -24.111  79.421  34.315  0.00  0.00    +0.063 A 
ATOM     11  C   LIG    1      -23.575  80.224  35.237  0.00  0.00    +0.118 A 
ATOM     12  N   LIG    1      -22.209  80.229  35.446  0.00  0.00    -0.221 N 
ATOM     13  N   LIG    1      -21.521  80.985  36.333  0.00  0.00    -0.173 NA
ATOM     14  C   LIG    1      -20.257  80.600  36.176  0.00  0.00    +0.150 A 
BRANCH   6  18
ATOM     15  N   LIG    1      -18.880  78.264  33.653  0.00  0.00    -0.325 N 
ATOM     16  H   LIG    1      -19.725  78.238  33.091  0.00  0.00    +0.145 HD
ATOM     17  H   LIG    1      -18.050  77.776  33.358  0.00  0.00    +0.145 HD
ATOM     18  C   LIG    1      -18.865  78.944  34.831  0.00  0.00    +0.247 C 
ATOM     19  O   LIG    1      -17.851  78.979  35.531  0.00  0.00    -0.270 OA
ENDBRANCH   6  18
ENDBRANCH   1   9
BRANCH   2  20
ATOM     20  C   LIG    1      -22.071  76.097  31.499  0.00  0.00    -0.013 A 
ATOM     21  C   LIG    1      -20.744  75.939  31.005  0.00  0.00    +0.060 A 
ATOM     22  C   LIG    1      -20.007  74.772  31.344  0.00  0.00    +0.015 A 
ATOM     23  C   LIG    1      -20.539  73.783  32.162  0.00  0.00    +0.039 A 
ATOM     24  C   LIG    1      -21.822  73.939  32.646  0.00  0.00    +0.124 A 
ATOM     25  F   LIG    1      -22.343  73.006  33.452  0.00  0.00    -0.205 F 
ATOM     26  C   LIG    1      -22.578  75.059  32.316  0.00  0.00    +0.044 A 
BRANCH  21  27
ATOM     27  C   LIG    1      -19.983  76.918  30.126  0.00  0.00    +0.418 C 
ATOM     28  F   LIG    1      -20.470  76.934  28.852  0.00  0.00    -0.166 F 
ATOM     29  F   LIG    1      -18.668  76.579  30.009  0.00  0.00    -0.166 F 
ATOM     30  F   LIG    1      -19.989  78.208  30.546  0.00  0.00    -0.166 F 
ENDBRANCH  21  27
ENDBRANCH   2  20
TORSDOF 4
ENDMDL
MODEL 3
REMARK VINA RESULT:      -5.9     18.842     21.511
REMARK  Name = pdb/CHEMBL3675940.pdb
REMARK                            x       y       z     vdW  Elec       q    Type
REMARK                         _______ _______ _______ _____ _____    ______ ____
ROOT
ATOM      1  N   LIG    1      -23.535  78.168  33.145  0.00  0.00    -0.308 N 
ATOM      2  C   LIG    1      -23.099  77.586  31.854  0.00  0.00    +0.106 C 
ATOM      3  C   LIG    1      -24.436  77.212  31.190  0.00  0.00    +0.029 C 
ATOM      4  C   LIG    1      -25.332  76.844  32.356  0.00  0.00    +0.021 C 
ATOM      5  C   LIG    1      -24.951  77.880  33.402  0.00  0.00    +0.107 C 
ENDROOT
BRANCH   1   9
ATOM      6  C   LIG    1      -23.179  81.837  36.309  0.00  0.00    +0.100 A 
ATOM      7  C   LIG    1      -22.789  80.819  35.452  0.00  0.00    +0.170 A 
ATOM      8  N   LIG    1      -23.500  79.950  34.654  0.00  0.00    -0.212 NA
ATOM      9  C   LIG    1      -22.829  79.091  33.909  0.00  0.00    +0.126 A 
ATOM     10  C   LIG    1      -21.318  79.070  33.901  0.00  0.00    +0.063 A 
ATOM     11  C   LIG    1      -20.681  79.907  34.723  0.00  0.00    +0.118 A 
ATOM     12  N   LIG    1      -21.396  80.785  35.514  0.00  0.00    -0.221 N 
ATOM     13  N   LIG    1      -20.896  81.683  36.396  0.00  0.00    -0.173 NA
ATOM     14  C   LIG    1      -21.973  82.304  36.871  0.00  0.00    +0.150 A 
BRANCH   6  18
ATOM     15  N   LIG    1      -25.443  81.390  36.875  0.00  0.00    -0.325 N 
ATOM     16  H   LIG    1      -25.191  80.406  36.887  0.00  0.00    +0.145 HD
ATOM     17  H   LIG    1      -26.390  81.681  37.058  0.00  0.00    +0.145 HD
ATOM     18  C   LIG    1      -24.505  82.332  36.590  0.00  0.00    +0.247 C 
ATOM     19  O   LIG    1      -24.794  83.530  36.563  0.00  0.00    -0.270 OA
ENDBRANCH   6  18
ENDBRANCH   1   9
BRANCH   2  20
ATOM     20  C   LIG    1      -22.123  76.405  32.015  0.00  0.00    -0.013 A 
ATOM     21  C   LIG    1      -21.031  76.157  31.134  0.00  0.00    +0.060 A 
ATOM     22  C   LIG    1      -20.147  75.079  31.406  0.00  0.00    +0.015 A 
ATOM     23  C   LIG    1      -20.305  74.265  32.522  0.00  0.00    +0.039 A 
ATOM     24  C   LIG    1      -21.359  74.509  33.378  0.00  0.00    +0.124 A 
ATOM     25  F   LIG    1      -21.515  73.749  34.469  0.00  0.00    -0.205 F 
ATOM     26  C   LIG    1      -22.256  75.544  33.130  0.00  0.00    +0.044 A 
BRANCH  21  27
ATOM     27  C   LIG    1      -20.677  76.949  29.886  0.00  0.00    +0.418 C 
ATOM     28  F   LIG    1      -20.697  78.292  30.121  0.00  0.00    -0.166 F 
ATOM     29  F   LIG    1      -21.575  76.741  28.882  0.00  0.00    -0.166 F 
ATOM     30  F   LIG    1      -19.462  76.679  29.348  0.00  0.00    -0.166 F 
ENDBRANCH  21  27
ENDBRANCH   2  20
TORSDOF 4
ENDMDL
MODEL 4
REMARK VINA RESULT:      -5.9      3.835      6.610
REMARK  Name = pdb/CHEMBL3675940.pdb
REMARK                            x       y       z     vdW  Elec       q    Type
REMARK                         _______ _______ _______ _____ _____    ______ ____
ROOT
ATOM      1  N   LIG    1      -19.807  81.997  14.319  0.00  0.00    -0.308 N 
ATOM      2  C   LIG    1      -19.935  81.040  15.443  0.00  0.00    +0.106 C 
ATOM      3  C   LIG    1      -18.477  80.877  15.908  0.00  0.00    +0.029 C 
ATOM      4  C   LIG    1      -17.669  81.031  14.635  0.00  0.00    +0.021 C 
ATOM      5  C   LIG    1      -18.405  82.148  13.913  0.00  0.00    +0.107 C 
ENDROOT
BRANCH   1   9
ATOM      6  C   LIG    1      -22.099  86.275  14.108  0.00  0.00    +0.100 A 
ATOM      7  C   LIG    1      -21.781  84.956  13.819  0.00  0.00    +0.170 A 
ATOM      8  N   LIG    1      -20.834  84.094  14.326  0.00  0.00    -0.212 NA
ATOM      9  C   LIG    1      -20.796  82.860  13.859  0.00  0.00    +0.126 A 
ATOM     10  C   LIG    1      -21.779  82.384  12.815  0.00  0.00    +0.063 A 
ATOM     11  C   LIG    1      -22.648  83.273  12.328  0.00  0.00    +0.118 A 
ATOM     12  N   LIG    1      -22.663  84.568  12.810  0.00  0.00    -0.221 N 
ATOM     13  N   LIG    1      -23.475  85.577  12.416  0.00  0.00    -0.173 NA
ATOM     14  C   LIG    1      -23.125  86.597  13.196  0.00  0.00    +0.150 A 
BRANCH   6  18
ATOM     15  N   LIG    1      -20.183  87.320  15.047  0.00  0.00    -0.325 N 
ATOM     16  H   LIG    1      -19.639  86.848  14.331  0.00  0.00    +0.145 HD
ATOM     17  H   LIG    1      -19.733  87.904  15.734  0.00  0.00    +0.145 HD
ATOM     18  C   LIG    1      -21.530  87.150  15.104  0.00  0.00    +0.247 C 
ATOM     19  O   LIG    1      -22.206  87.708  15.971  0.00  0.00    -0.270 OA
ENDBRANCH   6  18
ENDBRANCH   1   9
BRANCH   2  20
ATOM     20  C   LIG    1      -20.621  79.719  15.046  0.00  0.00    -0.013 A 
ATOM     21  C   LIG    1      -21.971  79.401  15.370  0.00  0.00    +0.060 A 
ATOM     22  C   LIG    1      -22.533  78.184  14.901  0.00  0.00    +0.015 A 
ATOM     23  C   LIG    1      -21.808  77.297  14.113  0.00  0.00    +0.039 A 
ATOM     24  C   LIG    1      -20.502  77.609  13.794  0.00  0.00    +0.124 A 
ATOM     25  F   LIG    1      -19.794  76.777  13.019  0.00  0.00    -0.205 F 
ATOM     26  C   LIG    1      -19.914  78.782  14.255  0.00  0.00    +0.044 A 
BRANCH  21  27
ATOM     27  C   LIG    1      -22.929  80.250  16.190  0.00  0.00    +0.418 C 
ATOM     28  F   LIG    1      -24.137  79.638  16.344  0.00  0.00    -0.166 F 
ATOM     29  F   LIG    1      -23.198  81.441  15.582  0.00  0.00    -0.166 F 
ATOM     30  F   LIG    1      -22.505  80.568  17.438  0.00  0.00    -0.166 F 
ENDBRANCH  21  27
ENDBRANCH   2  20
TORSDOF 4
ENDMDL
MODEL 5
REMARK VINA RESULT:      -5.9      3.240      6.137
REMARK  Name = pdb/CHEMBL3675940.pdb
REMARK                            x       y       z     vdW  Elec       q    Type
REMARK                         _______ _______ _______ _____ _____    ______ ____
ROOT
ATOM      1  N   LIG    1      -21.631  82.750  12.191  0.00  0.00    -0.308 N 
ATOM      2  C   LIG    1      -21.407  81.907  13.389  0.00  0.00    +0.106 C 
ATOM      3  C   LIG    1      -20.283  80.964  12.926  0.00  0.00    +0.029 C 
ATOM      4  C   LIG    1      -20.545  80.783  11.445  0.00  0.00    +0.021 C 
ATOM      5  C   LIG    1      -20.967  82.179  11.014  0.00  0.00    +0.107 C 
ENDROOT
BRANCH   1   9
ATOM      6  C   LIG    1      -22.150  87.249  13.950  0.00  0.00    +0.100 A 
ATOM      7  C   LIG    1      -22.288  86.163  13.096  0.00  0.00    +0.170 A 
ATOM      8  N   LIG    1      -21.816  84.871  13.151  0.00  0.00    -0.212 NA
ATOM      9  C   LIG    1      -22.150  84.040  12.181  0.00  0.00    +0.126 A 
ATOM     10  C   LIG    1      -23.051  84.475  11.049  0.00  0.00    +0.063 A 
ATOM     11  C   LIG    1      -23.447  85.750  11.024  0.00  0.00    +0.118 A 
ATOM     12  N   LIG    1      -23.071  86.615  12.034  0.00  0.00    -0.221 N 
ATOM     13  N   LIG    1      -23.386  87.927  12.145  0.00  0.00    -0.173 NA
ATOM     14  C   LIG    1      -22.825  88.299  13.293  0.00  0.00    +0.150 A 
BRANCH   6  18
ATOM     15  N   LIG    1      -20.121  87.413  15.174  0.00  0.00    -0.325 N 
ATOM     16  H   LIG    1      -19.642  87.428  14.279  0.00  0.00    +0.145 HD
ATOM     17  H   LIG    1      -19.601  87.447  16.036  0.00  0.00    +0.145 HD
ATOM     18  C   LIG    1      -21.476  87.325  15.223  0.00  0.00    +0.247 C 
ATOM     19  O   LIG    1      -22.074  87.297  16.301  0.00  0.00    -0.270 OA
ENDBRANCH   6  18
ENDBRANCH   1   9
BRANCH   2  20
ATOM     20  C   LIG    1      -22.678  81.183  13.873  0.00  0.00    -0.013 A 
ATOM     21  C   LIG    1      -22.853  80.696  15.200  0.00  0.00    +0.060 A 
ATOM     22  C   LIG    1      -24.090  80.100  15.567  0.00  0.00    +0.015 A 
ATOM     23  C   LIG    1      -25.147  79.996  14.671  0.00  0.00    +0.039 A 
ATOM     24  C   LIG    1      -24.980  80.474  13.387  0.00  0.00    +0.124 A 
ATOM     25  F   LIG    1      -25.994  80.401  12.516  0.00  0.00    -0.205 F 
ATOM     26  C   LIG    1      -23.774  81.044  12.988  0.00  0.00    +0.044 A 
BRANCH  21  27
ATOM     27  C   LIG    1      -21.831  80.745  16.324  0.00  0.00    +0.418 C 
ATOM     28  F   LIG    1      -20.881  79.777  16.183  0.00  0.00    -0.166 F 
ATOM     29  F   LIG    1      -22.404  80.519  17.540  0.00  0.00    -0.166 F 
ATOM     30  F   LIG    1      -21.160  81.916  16.452  0.00  0.00    -0.166 F 
ENDBRANCH  21  27
ENDBRANCH   2  20
TORSDOF 4
ENDMDL
MODEL 6
REMARK VINA RESULT:      -5.9      2.515      4.091
REMARK  Name = pdb/CHEMBL3675940.pdb
REMARK                            x       y       z     vdW  Elec       q    Type
REMARK                         _______ _______ _______ _____ _____    ______ ____
ROOT
ATOM      1  N   LIG    1      -19.793  84.363  13.276  0.00  0.00    -0.308 N 
ATOM      2  C   LIG    1      -20.258  85.485  12.429  0.00  0.00    +0.106 C 
ATOM      3  C   LIG    1      -18.948  85.993  11.801  0.00  0.00    +0.029 C 
ATOM      4  C   LIG    1      -17.907  85.736  12.872  0.00  0.00    +0.021 C 
ATOM      5  C   LIG    1      -18.333  84.385  13.426  0.00  0.00    +0.107 C 
ENDROOT
BRANCH   1   9
ATOM      6  C   LIG    1      -20.525  80.238  15.736  0.00  0.00    +0.100 A 
ATOM      7  C   LIG    1      -20.790  81.328  14.920  0.00  0.00    +0.170 A 
ATOM      8  N   LIG    1      -20.010  82.379  14.489  0.00  0.00    -0.212 NA
ATOM      9  C   LIG    1      -20.549  83.264  13.671  0.00  0.00    +0.126 A 
ATOM     10  C   LIG    1      -21.975  83.126  13.190  0.00  0.00    +0.063 A 
ATOM     11  C   LIG    1      -22.697  82.111  13.672  0.00  0.00    +0.118 A 
ATOM     12  N   LIG    1      -22.127  81.203  14.544  0.00  0.00    -0.221 N 
ATOM     13  N   LIG    1      -22.728  80.134  15.118  0.00  0.00    -0.173 NA
ATOM     14  C   LIG    1      -21.761  79.566  15.835  0.00  0.00    +0.150 A 
BRANCH   6  18
ATOM     15  N   LIG    1      -18.332  80.817  16.445  0.00  0.00    -0.325 N 
ATOM     16  H   LIG    1      -18.517  81.747  16.082  0.00  0.00    +0.145 HD
ATOM     17  H   LIG    1      -17.440  80.591  16.854  0.00  0.00    +0.145 HD
ATOM     18  C   LIG    1      -19.285  79.851  16.363  0.00  0.00    +0.247 C 
ATOM     19  O   LIG    1      -19.076  78.713  16.790  0.00  0.00    -0.270 OA
ENDBRANCH   6  18
ENDBRANCH   1   9
BRANCH   2  20
ATOM     20  C   LIG    1      -21.040  86.558  13.210  0.00  0.00    -0.013 A 
ATOM     21  C   LIG    1      -21.939  87.481  12.602  0.00  0.00    +0.060 A 
ATOM     22  C   LIG    1      -22.664  88.390  13.419  0.00  0.00    +0.015 A 
ATOM     23  C   LIG    1      -22.536  88.393  14.803  0.00  0.00    +0.039 A 
ATOM     24  C   LIG    1      -21.670  87.495  15.392  0.00  0.00    +0.124 A 
ATOM     25  F   LIG    1      -21.549  87.470  16.725  0.00  0.00    -0.205 F 
ATOM     26  C   LIG    1      -20.929  86.606  14.621  0.00  0.00    +0.044 A 
BRANCH  21  27
ATOM     27  C   LIG    1      -22.235  87.610  11.117  0.00  0.00    +0.418 C 
ATOM     28  F   LIG    1      -23.210  88.533  10.877  0.00  0.00    -0.166 F 
ATOM     29  F   LIG    1      -22.700  86.443  10.589  0.00  0.00    -0.166 F 
ATOM     30  F   LIG    1      -21.181  87.965  10.340  0.00  0.00    -0.166 F 
ENDBRANCH  21  27
ENDBRANCH   2  20
TORSDOF 4
ENDMDL
MODEL 7
REMARK VINA RESULT:      -5.9     19.797     22.149
REMARK  Name = pdb/CHEMBL3675940.pdb
REMARK                            x       y       z     vdW  Elec       q    Type
REMARK                         _______ _______ _______ _____ _____    ______ ____
ROOT
ATOM      1  N   LIG    1      -39.199  78.434  25.699  0.00  0.00    -0.308 N 
ATOM      2  C   LIG    1      -39.027  77.935  24.314  0.00  0.00    +0.106 C 
ATOM      3  C   LIG    1      -39.395  79.168  23.470  0.00  0.00    +0.029 C 
ATOM      4  C   LIG    1      -40.448  79.877  24.298  0.00  0.00    +0.021 C 
ATOM      5  C   LIG    1      -39.915  79.714  25.713  0.00  0.00    +0.107 C 
ENDROOT
BRANCH   1   9
ATOM      6  C   LIG    1      -35.284  77.362  28.368  0.00  0.00    +0.100 A 
ATOM      7  C   LIG    1      -36.619  77.512  28.022  0.00  0.00    +0.170 A 
ATOM      8  N   LIG    1      -37.239  77.943  26.871  0.00  0.00    -0.212 NA
ATOM      9  C   LIG    1      -38.559  77.944  26.833  0.00  0.00    +0.126 A 
ATOM     10  C   LIG    1      -39.380  77.461  28.006  0.00  0.00    +0.063 A 
ATOM     11  C   LIG    1      -38.728  77.093  29.111  0.00  0.00    +0.118 A 
ATOM     12  N   LIG    1      -37.346  77.117  29.145  0.00  0.00    -0.221 N 
ATOM     13  N   LIG    1      -36.549  76.782  30.186  0.00  0.00    -0.173 NA
ATOM     14  C   LIG    1      -35.315  76.938  29.713  0.00  0.00    +0.150 A 
BRANCH   6  18
ATOM     15  N   LIG    1      -33.890  78.866  27.167  0.00  0.00    -0.325 N 
ATOM     16  H   LIG    1      -34.535  79.601  27.440  0.00  0.00    +0.145 HD
ATOM     17  H   LIG    1      -33.093  79.071  26.587  0.00  0.00    +0.145 HD
ATOM     18  C   LIG    1      -34.106  77.584  27.566  0.00  0.00    +0.247 C 
ATOM     19  O   LIG    1      -33.338  76.678  27.236  0.00  0.00    -0.270 OA
ENDBRANCH   6  18
ENDBRANCH   1   9
BRANCH   2  20
ATOM     20  C   LIG    1      -39.872  76.685  24.005  0.00  0.00    -0.013 A 
ATOM     21  C   LIG    1      -39.463  75.357  24.322  0.00  0.00    +0.060 A 
ATOM     22  C   LIG    1      -40.344  74.274  24.057  0.00  0.00    +0.015 A 
ATOM     23  C   LIG    1      -41.607  74.474  23.512  0.00  0.00    +0.039 A 
ATOM     24  C   LIG    1      -42.005  75.761  23.211  0.00  0.00    +0.124 A 
ATOM     25  F   LIG    1      -43.226  75.974  22.705  0.00  0.00    -0.205 F 
ATOM     26  C   LIG    1      -41.159  76.842  23.439  0.00  0.00    +0.044 A 
BRANCH  21  27
ATOM     27  C   LIG    1      -38.141  74.942  24.945  0.00  0.00    +0.418 C 
ATOM     28  F   LIG    1      -37.777  73.685  24.562  0.00  0.00    -0.166 F 
ATOM     29  F   LIG    1      -38.212  74.901  26.306  0.00  0.00    -0.166 F 
ATOM     30  F   LIG    1      -37.084  75.743  24.661  0.00  0.00    -0.166 F 
ENDBRANCH  21  27
ENDBRANCH   2  20
TORSDOF 4
ENDMDL
MODEL 8
REMARK VINA RESULT:      -5.8      3.964      6.688
REMARK  Name = pdb/CHEMBL3675940.pdb
REMARK                            x       y       z     vdW  Elec       q    Type
REMARK                         _______ _______ _______ _____ _____    ______ ____
ROOT
ATOM      1  N   LIG    1      -19.995  82.061  12.366  0.00  0.00    -0.308 N 
ATOM      2  C   LIG    1      -19.777  80.948  13.318  0.00  0.00    +0.106 C 
ATOM      3  C   LIG    1      -19.673  79.728  12.385  0.00  0.00    +0.029 C 
ATOM      4  C   LIG    1      -20.595  80.072  11.232  0.00  0.00    +0.021 C 
ATOM      5  C   LIG    1      -20.328  81.555  11.030  0.00  0.00    +0.107 C 
ENDROOT
BRANCH   1   9
ATOM      6  C   LIG    1      -20.779  86.481  14.226  0.00  0.00    +0.100 A 
ATOM      7  C   LIG    1      -20.142  85.450  13.551  0.00  0.00    +0.170 A 
ATOM      8  N   LIG    1      -20.499  84.144  13.295  0.00  0.00    -0.212 NA
ATOM      9  C   LIG    1      -19.676  83.398  12.581  0.00  0.00    +0.126 A 
ATOM     10  C   LIG    1      -18.386  83.958  12.028  0.00  0.00    +0.063 A 
ATOM     11  C   LIG    1      -18.071  85.217  12.341  0.00  0.00    +0.118 A 
ATOM     12  N   LIG    1      -18.930  85.980  13.108  0.00  0.00    -0.221 N 
ATOM     13  N   LIG    1      -18.748  87.260  13.510  0.00  0.00    -0.173 NA
ATOM     14  C   LIG    1      -19.859  87.549  14.184  0.00  0.00    +0.150 A 
BRANCH   6  18
ATOM     15  N   LIG    1      -22.863  85.406  14.611  0.00  0.00    -0.325 N 
ATOM     16  H   LIG    1      -22.518  84.645  14.034  0.00  0.00    +0.145 HD
ATOM     17  H   LIG    1      -23.790  85.376  15.003  0.00  0.00    +0.145 HD
ATOM     18  C   LIG    1      -22.081  86.494  14.846  0.00  0.00    +0.247 C 
ATOM     19  O   LIG    1      -22.486  87.431  15.537  0.00  0.00    -0.270 OA
ENDBRANCH   6  18
ENDBRANCH   1   9
BRANCH   2  20
ATOM     20  C   LIG    1      -20.881  80.831  14.386  0.00  0.00    -0.013 A 
ATOM     21  C   LIG    1      -20.668  80.295  15.689  0.00  0.00    +0.060 A 
ATOM     22  C   LIG    1      -21.736  80.292  16.625  0.00  0.00    +0.015 A 
ATOM     23  C   LIG    1      -22.985  80.817  16.314  0.00  0.00    +0.039 A 
ATOM     24  C   LIG    1      -23.190  81.342  15.055  0.00  0.00    +0.124 A 
ATOM     25  F   LIG    1      -24.380  81.870  14.743  0.00  0.00    -0.205 F 
ATOM     26  C   LIG    1      -22.172  81.341  14.106  0.00  0.00    +0.044 A 
BRANCH  21  27
ATOM     27  C   LIG    1      -19.373  79.706  16.224  0.00  0.00    +0.418 C 
ATOM     28  F   LIG    1      -19.538  79.178  17.470  0.00  0.00    -0.166 F 
ATOM     29  F   LIG    1      -18.401  80.653  16.355  0.00  0.00    -0.166 F 
ATOM     30  F   LIG    1      -18.822  78.723  15.468  0.00  0.00    -0.166 F 
ENDBRANCH  21  27
ENDBRANCH   2  20
TORSDOF 4
ENDMDL
MODEL 9
REMARK VINA RESULT:      -5.8      2.895      4.207
REMARK  Name = pdb/CHEMBL3675940.pdb
REMARK                            x       y       z     vdW  Elec       q    Type
REMARK                         _______ _______ _______ _____ _____    ______ ____
ROOT
ATOM      1  N   LIG    1      -23.203  83.545  13.030  0.00  0.00    -0.308 N 
ATOM      2  C   LIG    1      -22.648  83.740  14.389  0.00  0.00    +0.106 C 
ATOM      3  C   LIG    1      -22.394  85.258  14.429  0.00  0.00    +0.029 C 
ATOM      4  C   LIG    1      -22.039  85.606  12.998  0.00  0.00    +0.021 C 
ATOM      5  C   LIG    1      -23.002  84.739  12.201  0.00  0.00    +0.107 C 
ENDROOT
BRANCH   1   9
ATOM      6  C   LIG    1      -25.648  79.403  13.715  0.00  0.00    +0.100 A 
ATOM      7  C   LIG    1      -25.190  80.553  13.088  0.00  0.00    +0.170 A 
ATOM      8  N   LIG    1      -24.309  81.537  13.477  0.00  0.00    -0.212 NA
ATOM      9  C   LIG    1      -24.043  82.512  12.628  0.00  0.00    +0.126 A 
ATOM     10  C   LIG    1      -24.661  82.544  11.249  0.00  0.00    +0.063 A 
ATOM     11  C   LIG    1      -25.539  81.587  10.940  0.00  0.00    +0.118 A 
ATOM     12  N   LIG    1      -25.825  80.584  11.847  0.00  0.00    -0.221 N 
ATOM     13  N   LIG    1      -26.690  79.556  11.682  0.00  0.00    -0.173 NA
ATOM     14  C   LIG    1      -26.581  78.857  12.810  0.00  0.00    +0.150 A 
BRANCH   6  18
ATOM     15  N   LIG    1      -23.964  78.571  15.170  0.00  0.00    -0.325 N 
ATOM     16  H   LIG    1      -23.303  78.743  14.418  0.00  0.00    +0.145 HD
ATOM     17  H   LIG    1      -23.658  78.169  16.042  0.00  0.00    +0.145 HD
ATOM     18  C   LIG    1      -25.281  78.861  15.000  0.00  0.00    +0.247 C 
ATOM     19  O   LIG    1      -26.099  78.650  15.898  0.00  0.00    -0.270 OA
ENDBRANCH   6  18
ENDBRANCH   1   9
BRANCH   2  20
ATOM     20  C   LIG    1      -21.397  82.885  14.668  0.00  0.00    -0.013 A 
ATOM     21  C   LIG    1      -21.316  81.922  15.714  0.00  0.00    +0.060 A 
ATOM     22  C   LIG    1      -20.141  81.134  15.848  0.00  0.00    +0.015 A 
ATOM     23  C   LIG    1      -19.070  81.263  14.971  0.00  0.00    +0.039 A 
ATOM     24  C   LIG    1      -19.151  82.190  13.953  0.00  0.00    +0.124 A 
ATOM     25  F   LIG    1      -18.138  82.314  13.087  0.00  0.00    -0.205 F 
ATOM     26  C   LIG    1      -20.279  82.993  13.807  0.00  0.00    +0.044 A 
BRANCH  21  27
ATOM     27  C   LIG    1      -22.387  81.616  16.748  0.00  0.00    +0.418 C 
ATOM     28  F   LIG    1      -22.139  80.444  17.398  0.00  0.00    -0.166 F 
ATOM     29  F   LIG    1      -23.615  81.463  16.177  0.00  0.00    -0.166 F 
ATOM     30  F   LIG    1      -22.551  82.554  17.714  0.00  0.00    -0.166 F 
ENDBRANCH  21  27
ENDBRANCH   2  20
TORSDOF 4
ENDMDL
