MODEL 1
REMARK VINA RESULT:      -6.9      0.000      0.000
REMARK  Name = pdb/CHEMBL3942166.pdb
REMARK                            x       y       z     vdW  Elec       q    Type
REMARK                         _______ _______ _______ _____ _____    ______ ____
ROOT
ATOM      1  C   LIG    1      -31.387  86.976  30.631  0.00  0.00    +0.149 A 
ATOM      2  N   LIG    1      -32.317  87.808  30.133  0.00  0.00    -0.160 NA
ATOM      3  N   LIG    1      -33.335  86.988  29.750  0.00  0.00    -0.218 N 
ATOM      4  C   LIG    1      -32.978  85.640  29.837  0.00  0.00    +0.129 A 
ATOM      5  C   LIG    1      -31.754  85.623  30.462  0.00  0.00    +0.078 A 
ENDROOT
BRANCH   3   6
ATOM      6  C   LIG    1      -34.575  87.541  29.329  0.00  0.00    +0.067 A 
ATOM      7  C   LIG    1      -35.780  87.167  29.941  0.00  0.00    +0.028 A 
ATOM      8  C   LIG    1      -36.986  87.722  29.502  0.00  0.00    +0.002 A 
ATOM      9  C   LIG    1      -36.993  88.645  28.457  0.00  0.00    +0.000 A 
ATOM     10  C   LIG    1      -35.794  89.035  27.862  0.00  0.00    +0.002 A 
ATOM     11  C   LIG    1      -34.584  88.499  28.305  0.00  0.00    +0.028 A 
ENDBRANCH   3   6
BRANCH   4  12
ATOM     12  N   LIG    1      -33.685  84.548  29.319  0.00  0.00    -0.266 N 
ATOM     13  H   LIG    1      -33.568  84.352  28.330  0.00  0.00    +0.157 HD
ATOM     14  C   LIG    1      -34.463  83.640  30.111  0.00  0.00    +0.251 C 
ATOM     15  O   LIG    1      -34.617  83.828  31.308  0.00  0.00    -0.270 OA
BRANCH  14  16
ATOM     16  C   LIG    1      -35.148  82.512  29.428  0.00  0.00    +0.056 A 
ATOM     17  C   LIG    1      -36.525  82.430  29.207  0.00  0.00    +0.056 A 
ATOM     18 CL   LIG    1      -37.644  83.654  29.690  0.00  0.00    -0.083 Cl
ATOM     19  C   LIG    1      -37.056  81.326  28.537  0.00  0.00    +0.059 A 
ATOM     20  C   LIG    1      -36.219  80.302  28.092  0.00  0.00    +0.134 A 
ATOM     21  F   LIG    1      -36.788  79.299  27.408  0.00  0.00    -0.205 F 
ATOM     22  C   LIG    1      -34.836  80.329  28.307  0.00  0.00    +0.039 A 
ATOM     23  C   LIG    1      -34.322  81.465  28.968  0.00  0.00    +0.027 A 
BRANCH  22  24
ATOM     24  C   LIG    1      -33.931  79.257  27.850  0.00  0.00    +0.109 A 
ATOM     25  C   LIG    1      -33.777  78.031  28.500  0.00  0.00    +0.149 A 
ATOM     26  F   LIG    1      -34.419  77.754  29.643  0.00  0.00    -0.203 F 
ATOM     27  C   LIG    1      -32.901  77.081  27.985  0.00  0.00    +0.042 A 
ATOM     28  C   LIG    1      -32.175  77.379  26.838  0.00  0.00    +0.023 A 
ATOM     29  C   LIG    1      -32.353  78.624  26.260  0.00  0.00    +0.111 A 
ATOM     30  N   LIG    1      -33.206  79.561  26.738  0.00  0.00    -0.252 NA
ENDBRANCH  22  24
ENDBRANCH  14  16
ENDBRANCH   4  12
BRANCH   1  32
ATOM     31  N   LIG    1      -29.997  87.397  32.512  0.00  0.00    -0.243 NA
ATOM     32  C   LIG    1      -30.165  87.486  31.244  0.00  0.00    +0.236 C 
BRANCH  32  33
ATOM     33  O   LIG    1      -29.291  88.064  30.388  0.00  0.00    -0.491 OA
ATOM     34  H   LIG    1      -28.646  87.391  30.100  0.00  0.00    +0.294 HD
ENDBRANCH  32  33
BRANCH  31  35
ATOM     35  C   LIG    1      -28.738  87.915  33.044  0.00  0.00    +0.204 C 
BRANCH  35  40
ATOM     36  C   LIG    1      -28.445  85.427  37.375  0.00  0.00    +0.174 C 
ATOM     37  N   LIG    1      -28.184  86.145  36.159  0.00  0.00    -0.254 N 
ATOM     38  N   LIG    1      -26.920  86.388  35.775  0.00  0.00    -0.066 NA
ATOM     39  N   LIG    1      -26.977  87.049  34.624  0.00  0.00    -0.133 NA
ATOM     40  C   LIG    1      -28.300  87.218  34.287  0.00  0.00    +0.104 A 
ATOM     41  C   LIG    1      -29.082  86.645  35.270  0.00  0.00    +0.135 A 
ENDBRANCH  35  40
ENDBRANCH  31  35
ENDBRANCH   1  32
TORSDOF 8
ENDMDL
MODEL 2
REMARK VINA RESULT:      -6.9      8.500     10.766
REMARK  Name = pdb/CHEMBL3942166.pdb
REMARK                            x       y       z     vdW  Elec       q    Type
REMARK                         _______ _______ _______ _____ _____    ______ ____
ROOT
ATOM      1  C   LIG    1      -31.504  74.265  29.759  0.00  0.00    +0.149 A 
ATOM      2  N   LIG    1      -31.436  75.562  29.416  0.00  0.00    -0.160 NA
ATOM      3  N   LIG    1      -32.585  75.790  28.721  0.00  0.00    -0.218 N 
ATOM      4  C   LIG    1      -33.286  74.608  28.473  0.00  0.00    +0.129 A 
ATOM      5  C   LIG    1      -32.632  73.635  29.190  0.00  0.00    +0.078 A 
ENDROOT
BRANCH   3   6
ATOM      6  C   LIG    1      -32.939  77.114  28.344  0.00  0.00    +0.067 A 
ATOM      7  C   LIG    1      -33.934  77.823  29.031  0.00  0.00    +0.028 A 
ATOM      8  C   LIG    1      -34.265  79.122  28.634  0.00  0.00    +0.002 A 
ATOM      9  C   LIG    1      -33.610  79.713  27.555  0.00  0.00    +0.000 A 
ATOM     10  C   LIG    1      -32.605  79.019  26.883  0.00  0.00    +0.002 A 
ATOM     11  C   LIG    1      -32.255  77.728  27.284  0.00  0.00    +0.028 A 
ENDBRANCH   3   6
BRANCH   4  12
ATOM     12  N   LIG    1      -34.373  74.440  27.607  0.00  0.00    -0.266 N 
ATOM     13  H   LIG    1      -34.161  74.200  26.644  0.00  0.00    +0.157 HD
ATOM     14  C   LIG    1      -35.747  74.481  28.017  0.00  0.00    +0.251 C 
ATOM     15  O   LIG    1      -36.047  74.751  29.170  0.00  0.00    -0.270 OA
BRANCH  14  16
ATOM     16  C   LIG    1      -36.799  74.270  26.990  0.00  0.00    +0.056 A 
ATOM     17  C   LIG    1      -37.169  73.027  26.470  0.00  0.00    +0.056 A 
ATOM     18 CL   LIG    1      -36.456  71.534  26.965  0.00  0.00    -0.083 Cl
ATOM     19  C   LIG    1      -38.187  72.949  25.517  0.00  0.00    +0.059 A 
ATOM     20  C   LIG    1      -38.832  74.105  25.078  0.00  0.00    +0.134 A 
ATOM     21  F   LIG    1      -39.837  73.952  24.203  0.00  0.00    -0.205 F 
ATOM     22  C   LIG    1      -38.484  75.374  25.554  0.00  0.00    +0.039 A 
ATOM     23  C   LIG    1      -37.467  75.425  26.531  0.00  0.00    +0.027 A 
BRANCH  22  24
ATOM     24  C   LIG    1      -39.149  76.612  25.102  0.00  0.00    +0.109 A 
ATOM     25  C   LIG    1      -38.670  77.428  24.075  0.00  0.00    +0.149 A 
ATOM     26  F   LIG    1      -37.517  77.165  23.445  0.00  0.00    -0.203 F 
ATOM     27  C   LIG    1      -39.375  78.573  23.719  0.00  0.00    +0.042 A 
ATOM     28  C   LIG    1      -40.536  78.899  24.409  0.00  0.00    +0.023 A 
ATOM     29  C   LIG    1      -40.938  78.063  25.436  0.00  0.00    +0.111 A 
ATOM     30  N   LIG    1      -40.275  76.938  25.795  0.00  0.00    -0.252 NA
ENDBRANCH  22  24
ENDBRANCH  14  16
ENDBRANCH   4  12
BRANCH   1  32
ATOM     31  N   LIG    1      -30.001  74.304  31.600  0.00  0.00    -0.243 NA
ATOM     32  C   LIG    1      -30.490  73.652  30.610  0.00  0.00    +0.236 C 
BRANCH  32  33
ATOM     33  O   LIG    1      -30.112  72.406  30.245  0.00  0.00    -0.491 OA
ATOM     34  H   LIG    1      -30.301  71.794  30.981  0.00  0.00    +0.294 HD
ENDBRANCH  32  33
BRANCH  31  35
ATOM     35  C   LIG    1      -29.004  73.611  32.412  0.00  0.00    +0.204 C 
BRANCH  35  40
ATOM     36  C   LIG    1      -24.235  73.284  30.935  0.00  0.00    +0.174 C 
ATOM     37  N   LIG    1      -25.546  73.718  31.329  0.00  0.00    -0.254 N 
ATOM     38  N   LIG    1      -25.852  75.025  31.335  0.00  0.00    -0.066 NA
ATOM     39  N   LIG    1      -27.117  75.133  31.726  0.00  0.00    -0.133 NA
ATOM     40  C   LIG    1      -27.605  73.869  31.965  0.00  0.00    +0.104 A 
ATOM     41  C   LIG    1      -26.601  72.955  31.718  0.00  0.00    +0.135 A 
ENDBRANCH  35  40
ENDBRANCH  31  35
ENDBRANCH   1  32
TORSDOF 8
ENDMDL
MODEL 3
REMARK VINA RESULT:      -6.8      9.375     14.746
REMARK  Name = pdb/CHEMBL3942166.pdb
REMARK                            x       y       z     vdW  Elec       q    Type
REMARK                         _______ _______ _______ _____ _____    ______ ____
ROOT
ATOM      1  C   LIG    1      -26.719  75.908  32.064  0.00  0.00    +0.149 A 
ATOM      2  N   LIG    1      -25.670  75.714  31.246  0.00  0.00    -0.160 NA
ATOM      3  N   LIG    1      -24.691  76.513  31.755  0.00  0.00    -0.218 N 
ATOM      4  C   LIG    1      -25.171  77.338  32.774  0.00  0.00    +0.129 A 
ATOM      5  C   LIG    1      -26.453  76.911  33.022  0.00  0.00    +0.078 A 
ENDROOT
BRANCH   3   6
ATOM      6  C   LIG    1      -23.369  76.434  31.239  0.00  0.00    +0.067 A 
ATOM      7  C   LIG    1      -23.067  76.885  29.947  0.00  0.00    +0.028 A 
ATOM      8  C   LIG    1      -21.759  76.790  29.462  0.00  0.00    +0.002 A 
ATOM      9  C   LIG    1      -20.754  76.247  30.262  0.00  0.00    +0.000 A 
ATOM     10  C   LIG    1      -21.046  75.820  31.556  0.00  0.00    +0.002 A 
ATOM     11  C   LIG    1      -22.346  75.927  32.054  0.00  0.00    +0.028 A 
ENDBRANCH   3   6
BRANCH   4  12
ATOM     12  N   LIG    1      -24.508  78.425  33.358  0.00  0.00    -0.266 N 
ATOM     13  H   LIG    1      -24.650  79.334  32.930  0.00  0.00    +0.157 HD
ATOM     14  C   LIG    1      -23.742  78.349  34.568  0.00  0.00    +0.251 C 
ATOM     15  O   LIG    1      -23.559  77.278  35.126  0.00  0.00    -0.270 OA
BRANCH  14  16
ATOM     16  C   LIG    1      -23.106  79.589  35.083  0.00  0.00    +0.056 A 
ATOM     17  C   LIG    1      -21.773  79.951  34.868  0.00  0.00    +0.056 A 
ATOM     18 CL   LIG    1      -20.663  79.003  33.946  0.00  0.00    -0.083 Cl
ATOM     19  C   LIG    1      -21.288  81.153  35.388  0.00  0.00    +0.059 A 
ATOM     20  C   LIG    1      -22.125  81.991  36.125  0.00  0.00    +0.134 A 
ATOM     21  F   LIG    1      -21.610  83.154  36.548  0.00  0.00    -0.205 F 
ATOM     22  C   LIG    1      -23.461  81.663  36.384  0.00  0.00    +0.039 A 
ATOM     23  C   LIG    1      -23.933  80.454  35.831  0.00  0.00    +0.027 A 
BRANCH  22  24
ATOM     24  C   LIG    1      -24.364  82.530  37.165  0.00  0.00    +0.109 A 
ATOM     25  C   LIG    1      -24.128  82.923  38.484  0.00  0.00    +0.149 A 
ATOM     26  F   LIG    1      -23.061  82.488  39.168  0.00  0.00    -0.203 F 
ATOM     27  C   LIG    1      -25.040  83.750  39.132  0.00  0.00    +0.042 A 
ATOM     28  C   LIG    1      -26.187  84.154  38.460  0.00  0.00    +0.023 A 
ATOM     29  C   LIG    1      -26.375  83.704  37.165  0.00  0.00    +0.111 A 
ATOM     30  N   LIG    1      -25.498  82.907  36.509  0.00  0.00    -0.252 NA
ENDBRANCH  22  24
ENDBRANCH  14  16
ENDBRANCH   4  12
BRANCH   1  32
ATOM     31  N   LIG    1      -29.060  75.750  31.689  0.00  0.00    -0.243 NA
ATOM     32  C   LIG    1      -27.952  75.145  31.909  0.00  0.00    +0.236 C 
BRANCH  32  33
ATOM     33  O   LIG    1      -27.819  73.806  32.050  0.00  0.00    -0.491 OA
ATOM     34  H   LIG    1      -28.691  73.428  32.274  0.00  0.00    +0.294 HD
ENDBRANCH  32  33
BRANCH  31  35
ATOM     35  C   LIG    1      -30.245  74.911  31.528  0.00  0.00    +0.204 C 
BRANCH  35  40
ATOM     36  C   LIG    1      -33.789  75.374  28.026  0.00  0.00    +0.174 C 
ATOM     37  N   LIG    1      -32.631  75.511  28.865  0.00  0.00    -0.254 N 
ATOM     38  N   LIG    1      -31.748  76.498  28.644  0.00  0.00    -0.066 NA
ATOM     39  N   LIG    1      -30.797  76.391  29.565  0.00  0.00    -0.133 NA
ATOM     40  C   LIG    1      -31.097  75.320  30.374  0.00  0.00    +0.104 A 
ATOM     41  C   LIG    1      -32.270  74.746  29.928  0.00  0.00    +0.135 A 
ENDBRANCH  35  40
ENDBRANCH  31  35
ENDBRANCH   1  32
TORSDOF 8
ENDMDL
MODEL 4
REMARK VINA RESULT:      -6.7      9.160     17.062
REMARK  Name = pdb/CHEMBL3942166.pdb
REMARK                            x       y       z     vdW  Elec       q    Type
REMARK                         _______ _______ _______ _____ _____    ______ ____
ROOT
ATOM      1  C   LIG    1      -36.584  69.702  24.839  0.00  0.00    +0.149 A 
ATOM      2  N   LIG    1      -36.189  68.769  25.721  0.00  0.00    -0.160 NA
ATOM      3  N   LIG    1      -35.463  69.461  26.644  0.00  0.00    -0.218 N 
ATOM      4  C   LIG    1      -35.250  70.784  26.252  0.00  0.00    +0.129 A 
ATOM      5  C   LIG    1      -36.020  70.964  25.128  0.00  0.00    +0.078 A 
ENDROOT
BRANCH   3   6
ATOM      6  C   LIG    1      -35.024  68.817  27.833  0.00  0.00    +0.067 A 
ATOM      7  C   LIG    1      -33.852  68.049  27.851  0.00  0.00    +0.028 A 
ATOM      8  C   LIG    1      -33.447  67.422  29.033  0.00  0.00    +0.002 A 
ATOM      9  C   LIG    1      -34.209  67.557  30.194  0.00  0.00    +0.000 A 
ATOM     10  C   LIG    1      -35.362  68.339  30.184  0.00  0.00    +0.002 A 
ATOM     11  C   LIG    1      -35.764  68.983  29.013  0.00  0.00    +0.028 A 
ENDBRANCH   3   6
BRANCH   4  12
ATOM     12  N   LIG    1      -34.371  71.703  26.837  0.00  0.00    -0.266 N 
ATOM     13  H   LIG    1      -33.449  71.787  26.421  0.00  0.00    +0.157 HD
ATOM     14  C   LIG    1      -34.726  72.596  27.903  0.00  0.00    +0.251 C 
ATOM     15  O   LIG    1      -35.830  72.541  28.422  0.00  0.00    -0.270 OA
BRANCH  14  16
ATOM     16  C   LIG    1      -33.693  73.532  28.416  0.00  0.00    +0.056 A 
ATOM     17  C   LIG    1      -32.586  73.157  29.182  0.00  0.00    +0.056 A 
ATOM     18 CL   LIG    1      -32.245  71.525  29.633  0.00  0.00    -0.083 Cl
ATOM     19  C   LIG    1      -31.669  74.126  29.596  0.00  0.00    +0.059 A 
ATOM     20  C   LIG    1      -31.856  75.466  29.255  0.00  0.00    +0.134 A 
ATOM     21  F   LIG    1      -30.909  76.334  29.638  0.00  0.00    -0.205 F 
ATOM     22  C   LIG    1      -32.959  75.893  28.508  0.00  0.00    +0.039 A 
ATOM     23  C   LIG    1      -33.860  74.893  28.083  0.00  0.00    +0.027 A 
BRANCH  22  24
ATOM     24  C   LIG    1      -33.181  77.304  28.138  0.00  0.00    +0.109 A 
ATOM     25  C   LIG    1      -32.547  77.944  27.070  0.00  0.00    +0.149 A 
ATOM     26  F   LIG    1      -31.631  77.319  26.318  0.00  0.00    -0.203 F 
ATOM     27  C   LIG    1      -32.830  79.278  26.799  0.00  0.00    +0.042 A 
ATOM     28  C   LIG    1      -33.725  79.962  27.613  0.00  0.00    +0.023 A 
ATOM     29  C   LIG    1      -34.296  79.277  28.671  0.00  0.00    +0.111 A 
ATOM     30  N   LIG    1      -34.044  77.976  28.950  0.00  0.00    -0.252 NA
ENDBRANCH  22  24
ENDBRANCH  14  16
ENDBRANCH   4  12
BRANCH   1  32
ATOM     31  N   LIG    1      -37.031  69.330  22.535  0.00  0.00    -0.243 NA
ATOM     32  C   LIG    1      -37.478  69.370  23.735  0.00  0.00    +0.236 C 
BRANCH  32  33
ATOM     33  O   LIG    1      -38.768  69.158  24.086  0.00  0.00    -0.491 OA
ATOM     34  H   LIG    1      -39.196  70.021  24.239  0.00  0.00    +0.294 HD
ENDBRANCH  32  33
BRANCH  31  35
ATOM     35  C   LIG    1      -37.989  68.972  21.491  0.00  0.00    +0.204 C 
BRANCH  35  40
ATOM     36  C   LIG    1      -35.529  65.640  18.684  0.00  0.00    +0.174 C 
ATOM     37  N   LIG    1      -36.311  66.737  19.182  0.00  0.00    -0.254 N 
ATOM     38  N   LIG    1      -36.893  67.595  18.329  0.00  0.00    -0.066 NA
ATOM     39  N   LIG    1      -37.552  68.490  19.057  0.00  0.00    -0.133 NA
ATOM     40  C   LIG    1      -37.377  68.180  20.386  0.00  0.00    +0.104 A 
ATOM     41  C   LIG    1      -36.577  67.059  20.475  0.00  0.00    +0.135 A 
ENDBRANCH  35  40
ENDBRANCH  31  35
ENDBRANCH   1  32
TORSDOF 8
ENDMDL
MODEL 5
REMARK VINA RESULT:      -6.7      8.899     16.144
REMARK  Name = pdb/CHEMBL3942166.pdb
REMARK                            x       y       z     vdW  Elec       q    Type
REMARK                         _______ _______ _______ _____ _____    ______ ____
ROOT
ATOM      1  C   LIG    1      -36.027  69.417  25.414  0.00  0.00    +0.149 A 
ATOM      2  N   LIG    1      -37.077  70.209  25.685  0.00  0.00    -0.160 NA
ATOM      3  N   LIG    1      -36.520  71.388  26.083  0.00  0.00    -0.218 N 
ATOM      4  C   LIG    1      -35.136  71.283  26.234  0.00  0.00    +0.129 A 
ATOM      5  C   LIG    1      -34.805  70.042  25.746  0.00  0.00    +0.078 A 
ENDROOT
BRANCH   3   6
ATOM      6  C   LIG    1      -37.341  72.530  26.289  0.00  0.00    +0.067 A 
ATOM      7  C   LIG    1      -37.615  73.002  27.580  0.00  0.00    +0.028 A 
ATOM      8  C   LIG    1      -38.431  74.124  27.753  0.00  0.00    +0.002 A 
ATOM      9  C   LIG    1      -38.973  74.774  26.645  0.00  0.00    +0.000 A 
ATOM     10  C   LIG    1      -38.683  74.321  25.359  0.00  0.00    +0.002 A 
ATOM     11  C   LIG    1      -37.856  73.211  25.176  0.00  0.00    +0.028 A 
ENDBRANCH   3   6
BRANCH   4  12
ATOM     12  N   LIG    1      -34.283  72.216  26.835  0.00  0.00    -0.266 N 
ATOM     13  H   LIG    1      -33.817  72.876  26.220  0.00  0.00    +0.157 HD
ATOM     14  C   LIG    1      -34.115  72.363  28.252  0.00  0.00    +0.251 C 
ATOM     15  O   LIG    1      -34.669  71.601  29.029  0.00  0.00    -0.270 OA
BRANCH  14  16
ATOM     16  C   LIG    1      -33.186  73.410  28.750  0.00  0.00    +0.056 A 
ATOM     17  C   LIG    1      -32.039  73.163  29.509  0.00  0.00    +0.056 A 
ATOM     18 CL   LIG    1      -31.519  71.582  29.969  0.00  0.00    -0.083 Cl
ATOM     19  C   LIG    1      -31.229  74.229  29.909  0.00  0.00    +0.059 A 
ATOM     20  C   LIG    1      -31.563  75.538  29.560  0.00  0.00    +0.134 A 
ATOM     21  F   LIG    1      -30.713  76.506  29.929  0.00  0.00    -0.205 F 
ATOM     22  C   LIG    1      -32.712  75.837  28.819  0.00  0.00    +0.039 A 
ATOM     23  C   LIG    1      -33.502  74.742  28.409  0.00  0.00    +0.027 A 
BRANCH  22  24
ATOM     24  C   LIG    1      -33.088  77.213  28.441  0.00  0.00    +0.109 A 
ATOM     25  C   LIG    1      -32.574  77.890  27.332  0.00  0.00    +0.149 A 
ATOM     26  F   LIG    1      -31.641  77.341  26.543  0.00  0.00    -0.203 F 
ATOM     27  C   LIG    1      -32.999  79.185  27.057  0.00  0.00    +0.042 A 
ATOM     28  C   LIG    1      -33.914  79.795  27.906  0.00  0.00    +0.023 A 
ATOM     29  C   LIG    1      -34.361  79.079  29.004  0.00  0.00    +0.111 A 
ATOM     30  N   LIG    1      -33.970  77.814  29.288  0.00  0.00    -0.252 NA
ENDBRANCH  22  24
ENDBRANCH  14  16
ENDBRANCH   4  12
BRANCH   1  32
ATOM     31  N   LIG    1      -35.313  67.574  24.094  0.00  0.00    -0.243 NA
ATOM     32  C   LIG    1      -36.209  68.081  24.858  0.00  0.00    +0.236 C 
BRANCH  32  33
ATOM     33  O   LIG    1      -37.377  67.478  25.183  0.00  0.00    -0.491 OA
ATOM     34  H   LIG    1      -37.268  66.514  25.081  0.00  0.00    +0.294 HD
ENDBRANCH  32  33
BRANCH  31  35
ATOM     35  C   LIG    1      -35.565  66.225  23.594  0.00  0.00    +0.204 C 
BRANCH  35  40
ATOM     36  C   LIG    1      -33.543  64.115  19.533  0.00  0.00    +0.174 C 
ATOM     37  N   LIG    1      -33.908  64.981  20.619  0.00  0.00    -0.254 N 
ATOM     38  N   LIG    1      -33.351  66.197  20.732  0.00  0.00    -0.066 NA
ATOM     39  N   LIG    1      -33.875  66.774  21.807  0.00  0.00    -0.133 NA
ATOM     40  C   LIG    1      -34.777  65.901  22.370  0.00  0.00    +0.104 A 
ATOM     41  C   LIG    1      -34.800  64.744  21.617  0.00  0.00    +0.135 A 
ENDBRANCH  35  40
ENDBRANCH  31  35
ENDBRANCH   1  32
TORSDOF 8
ENDMDL
MODEL 6
REMARK VINA RESULT:      -6.7     18.344     20.219
REMARK  Name = pdb/CHEMBL3942166.pdb
REMARK                            x       y       z     vdW  Elec       q    Type
REMARK                         _______ _______ _______ _____ _____    ______ ____
ROOT
ATOM      1  C   LIG    1      -22.673  82.831  15.356  0.00  0.00    +0.149 A 
ATOM      2  N   LIG    1      -23.619  82.257  14.595  0.00  0.00    -0.160 NA
ATOM      3  N   LIG    1      -23.512  80.926  14.866  0.00  0.00    -0.218 N 
ATOM      4  C   LIG    1      -22.392  80.645  15.652  0.00  0.00    +0.129 A 
ATOM      5  C   LIG    1      -21.886  81.867  16.024  0.00  0.00    +0.078 A 
ENDROOT
BRANCH   3   6
ATOM      6  C   LIG    1      -24.480  80.016  14.362  0.00  0.00    +0.067 A 
ATOM      7  C   LIG    1      -24.531  79.693  12.998  0.00  0.00    +0.028 A 
ATOM      8  C   LIG    1      -25.498  78.800  12.529  0.00  0.00    +0.002 A 
ATOM      9  C   LIG    1      -26.414  78.231  13.413  0.00  0.00    +0.000 A 
ATOM     10  C   LIG    1      -26.351  78.532  14.772  0.00  0.00    +0.002 A 
ATOM     11  C   LIG    1      -25.378  79.410  15.252  0.00  0.00    +0.028 A 
ENDBRANCH   3   6
BRANCH   4  12
ATOM     12  N   LIG    1      -21.856  79.382  15.929  0.00  0.00    -0.266 N 
ATOM     13  H   LIG    1      -22.069  78.981  16.837  0.00  0.00    +0.157 HD
ATOM     14  C   LIG    1      -21.126  78.588  14.984  0.00  0.00    +0.251 C 
ATOM     15  O   LIG    1      -20.860  79.025  13.874  0.00  0.00    -0.270 OA
BRANCH  14  16
ATOM     16  C   LIG    1      -20.628  77.255  15.412  0.00  0.00    +0.056 A 
ATOM     17  C   LIG    1      -19.321  76.988  15.828  0.00  0.00    +0.056 A 
ATOM     18 CL   LIG    1      -18.084  78.189  15.921  0.00  0.00    -0.083 Cl
ATOM     19  C   LIG    1      -18.971  75.696  16.225  0.00  0.00    +0.059 A 
ATOM     20  C   LIG    1      -19.916  74.670  16.203  0.00  0.00    +0.134 A 
ATOM     21  F   LIG    1      -19.527  73.467  16.649  0.00  0.00    -0.205 F 
ATOM     22  C   LIG    1      -21.231  74.884  15.775  0.00  0.00    +0.039 A 
ATOM     23  C   LIG    1      -21.567  76.202  15.399  0.00  0.00    +0.027 A 
BRANCH  22  24
ATOM     24  C   LIG    1      -22.248  73.815  15.739  0.00  0.00    +0.109 A 
ATOM     25  C   LIG    1      -23.132  73.538  16.784  0.00  0.00    +0.149 A 
ATOM     26  F   LIG    1      -23.085  74.209  17.943  0.00  0.00    -0.203 F 
ATOM     27  C   LIG    1      -24.060  72.511  16.649  0.00  0.00    +0.042 A 
ATOM     28  C   LIG    1      -24.077  71.760  15.481  0.00  0.00    +0.023 A 
ATOM     29  C   LIG    1      -23.154  72.067  14.496  0.00  0.00    +0.111 A 
ATOM     30  N   LIG    1      -22.247  73.068  14.600  0.00  0.00    -0.252 NA
ENDBRANCH  22  24
ENDBRANCH  14  16
ENDBRANCH   4  12
BRANCH   1  32
ATOM     31  N   LIG    1      -22.114  84.935  14.402  0.00  0.00    -0.243 NA
ATOM     32  C   LIG    1      -22.531  84.281  15.423  0.00  0.00    +0.236 C 
BRANCH  32  33
ATOM     33  O   LIG    1      -22.833  84.833  16.621  0.00  0.00    -0.491 OA
ATOM     34  H   LIG    1      -23.415  85.602  16.472  0.00  0.00    +0.294 HD
ENDBRANCH  32  33
BRANCH  31  35
ATOM     35  C   LIG    1      -22.018  86.385  14.546  0.00  0.00    +0.204 C 
BRANCH  35  40
ATOM     36  C   LIG    1      -19.072  88.527  11.115  0.00  0.00    +0.174 C 
ATOM     37  N   LIG    1      -19.624  87.899  12.283  0.00  0.00    -0.254 N 
ATOM     38  N   LIG    1      -18.847  87.657  13.352  0.00  0.00    -0.066 NA
ATOM     39  N   LIG    1      -19.613  87.087  14.276  0.00  0.00    -0.133 NA
ATOM     40  C   LIG    1      -20.888  86.975  13.772  0.00  0.00    +0.104 A 
ATOM     41  C   LIG    1      -20.902  87.488  12.491  0.00  0.00    +0.135 A 
ENDBRANCH  35  40
ENDBRANCH  31  35
ENDBRANCH   1  32
TORSDOF 8
ENDMDL
MODEL 7
REMARK VINA RESULT:      -6.6      9.542     14.032
REMARK  Name = pdb/CHEMBL3942166.pdb
REMARK                            x       y       z     vdW  Elec       q    Type
REMARK                         _______ _______ _______ _____ _____    ______ ____
ROOT
ATOM      1  C   LIG    1      -24.582  82.893  37.409  0.00  0.00    +0.149 A 
ATOM      2  N   LIG    1      -23.631  83.112  38.332  0.00  0.00    -0.160 NA
ATOM      3  N   LIG    1      -22.566  82.379  37.902  0.00  0.00    -0.218 N 
ATOM      4  C   LIG    1      -22.899  81.564  36.818  0.00  0.00    +0.129 A 
ATOM      5  C   LIG    1      -24.172  81.936  36.455  0.00  0.00    +0.078 A 
ENDROOT
BRANCH   3   6
ATOM      6  C   LIG    1      -21.307  82.505  38.549  0.00  0.00    +0.067 A 
ATOM      7  C   LIG    1      -20.429  83.550  38.230  0.00  0.00    +0.028 A 
ATOM      8  C   LIG    1      -19.194  83.646  38.878  0.00  0.00    +0.002 A 
ATOM      9  C   LIG    1      -18.833  82.703  39.839  0.00  0.00    +0.000 A 
ATOM     10  C   LIG    1      -19.712  81.676  40.175  0.00  0.00    +0.002 A 
ATOM     11  C   LIG    1      -20.955  81.583  39.545  0.00  0.00    +0.028 A 
ENDBRANCH   3   6
BRANCH   4  12
ATOM     12  N   LIG    1      -22.127  80.530  36.274  0.00  0.00    -0.266 N 
ATOM     13  H   LIG    1      -22.421  79.580  36.478  0.00  0.00    +0.157 HD
ATOM     14  C   LIG    1      -21.030  80.729  35.372  0.00  0.00    +0.251 C 
ATOM     15  O   LIG    1      -20.652  81.855  35.087  0.00  0.00    -0.270 OA
BRANCH  14  16
ATOM     16  C   LIG    1      -20.309  79.536  34.859  0.00  0.00    +0.056 A 
ATOM     17  C   LIG    1      -19.205  78.943  35.478  0.00  0.00    +0.056 A 
ATOM     18 CL   LIG    1      -18.521  79.511  36.959  0.00  0.00    -0.083 Cl
ATOM     19  C   LIG    1      -18.617  77.810  34.911  0.00  0.00    +0.059 A 
ATOM     20  C   LIG    1      -19.122  77.272  33.727  0.00  0.00    +0.134 A 
ATOM     21  F   LIG    1      -18.545  76.153  33.268  0.00  0.00    -0.205 F 
ATOM     22  C   LIG    1      -20.212  77.842  33.060  0.00  0.00    +0.039 A 
ATOM     23  C   LIG    1      -20.802  78.972  33.663  0.00  0.00    +0.027 A 
BRANCH  22  24
ATOM     24  C   LIG    1      -20.762  77.293  31.804  0.00  0.00    +0.109 A 
ATOM     25  C   LIG    1      -21.941  76.549  31.724  0.00  0.00    +0.149 A 
ATOM     26  F   LIG    1      -22.647  76.229  32.817  0.00  0.00    -0.203 F 
ATOM     27  C   LIG    1      -22.378  76.080  30.490  0.00  0.00    +0.042 A 
ATOM     28  C   LIG    1      -21.620  76.344  29.356  0.00  0.00    +0.023 A 
ATOM     29  C   LIG    1      -20.447  77.061  29.509  0.00  0.00    +0.111 A 
ATOM     30  N   LIG    1      -20.004  77.536  30.698  0.00  0.00    -0.252 NA
ENDBRANCH  22  24
ENDBRANCH  14  16
ENDBRANCH   4  12
BRANCH   1  32
ATOM     31  N   LIG    1      -26.369  84.084  36.392  0.00  0.00    -0.243 NA
ATOM     32  C   LIG    1      -25.862  83.590  37.461  0.00  0.00    +0.236 C 
BRANCH  32  33
ATOM     33  O   LIG    1      -26.413  83.688  38.693  0.00  0.00    -0.491 OA
ATOM     34  H   LIG    1      -26.205  82.877  39.193  0.00  0.00    +0.294 HD
ENDBRANCH  32  33
BRANCH  31  35
ATOM     35  C   LIG    1      -27.663  84.750  36.527  0.00  0.00    +0.204 C 
BRANCH  35  40
ATOM     36  C   LIG    1      -29.449  87.892  33.068  0.00  0.00    +0.174 C 
ATOM     37  N   LIG    1      -28.650  87.182  34.026  0.00  0.00    -0.254 N 
ATOM     38  N   LIG    1      -27.399  87.587  34.298  0.00  0.00    -0.066 NA
ATOM     39  N   LIG    1      -26.906  86.763  35.216  0.00  0.00    -0.133 NA
ATOM     40  C   LIG    1      -27.870  85.831  35.521  0.00  0.00    +0.104 A 
ATOM     41  C   LIG    1      -28.991  86.088  34.758  0.00  0.00    +0.135 A 
ENDBRANCH  35  40
ENDBRANCH  31  35
ENDBRANCH   1  32
TORSDOF 8
ENDMDL
MODEL 8
REMARK VINA RESULT:      -6.6      6.151     10.008
REMARK  Name = pdb/CHEMBL3942166.pdb
REMARK                            x       y       z     vdW  Elec       q    Type
REMARK                         _______ _______ _______ _____ _____    ______ ____
ROOT
ATOM      1  C   LIG    1      -37.081  79.958  27.972  0.00  0.00    +0.149 A 
ATOM      2  N   LIG    1      -36.155  79.088  28.409  0.00  0.00    -0.160 NA
ATOM      3  N   LIG    1      -36.456  77.923  27.769  0.00  0.00    -0.218 N 
ATOM      4  C   LIG    1      -37.665  78.008  27.075  0.00  0.00    +0.129 A 
ATOM      5  C   LIG    1      -38.039  79.328  27.148  0.00  0.00    +0.078 A 
ENDROOT
BRANCH   3   6
ATOM      6  C   LIG    1      -35.573  76.813  27.859  0.00  0.00    +0.067 A 
ATOM      7  C   LIG    1      -34.288  76.861  27.302  0.00  0.00    +0.028 A 
ATOM      8  C   LIG    1      -33.443  75.752  27.400  0.00  0.00    +0.002 A 
ATOM      9  C   LIG    1      -33.877  74.597  28.051  0.00  0.00    +0.000 A 
ATOM     10  C   LIG    1      -35.145  74.554  28.626  0.00  0.00    +0.002 A 
ATOM     11  C   LIG    1      -35.988  75.664  28.547  0.00  0.00    +0.028 A 
ENDBRANCH   3   6
BRANCH   4  12
ATOM     12  N   LIG    1      -38.381  76.951  26.502  0.00  0.00    -0.266 N 
ATOM     13  H   LIG    1      -39.188  76.610  27.015  0.00  0.00    +0.157 HD
ATOM     14  C   LIG    1      -38.113  76.402  25.204  0.00  0.00    +0.251 C 
ATOM     15  O   LIG    1      -37.163  76.794  24.545  0.00  0.00    -0.270 OA
BRANCH  14  16
ATOM     16  C   LIG    1      -38.968  75.290  24.715  0.00  0.00    +0.056 A 
ATOM     17  C   LIG    1      -40.168  75.452  24.018  0.00  0.00    +0.056 A 
ATOM     18 CL   LIG    1      -40.831  76.992  23.604  0.00  0.00    -0.083 Cl
ATOM     19  C   LIG    1      -40.880  74.329  23.592  0.00  0.00    +0.059 A 
ATOM     20  C   LIG    1      -40.403  73.046  23.864  0.00  0.00    +0.134 A 
ATOM     21  F   LIG    1      -41.107  72.014  23.379  0.00  0.00    -0.205 F 
ATOM     22  C   LIG    1      -39.217  72.833  24.576  0.00  0.00    +0.039 A 
ATOM     23  C   LIG    1      -38.505  73.983  24.977  0.00  0.00    +0.027 A 
BRANCH  22  24
ATOM     24  C   LIG    1      -38.694  71.486  24.880  0.00  0.00    +0.109 A 
ATOM     25  C   LIG    1      -39.309  70.584  25.751  0.00  0.00    +0.149 A 
ATOM     26  F   LIG    1      -40.420  70.905  26.428  0.00  0.00    -0.203 F 
ATOM     27  C   LIG    1      -38.739  69.334  25.966  0.00  0.00    +0.042 A 
ATOM     28  C   LIG    1      -37.549  69.011  25.325  0.00  0.00    +0.023 A 
ATOM     29  C   LIG    1      -36.976  69.962  24.499  0.00  0.00    +0.111 A 
ATOM     30  N   LIG    1      -37.516  71.182  24.266  0.00  0.00    -0.252 NA
ENDBRANCH  22  24
ENDBRANCH  14  16
ENDBRANCH   4  12
BRANCH   1  32
ATOM     31  N   LIG    1      -36.430  81.722  29.426  0.00  0.00    -0.243 NA
ATOM     32  C   LIG    1      -37.040  81.365  28.357  0.00  0.00    +0.236 C 
BRANCH  32  33
ATOM     33  O   LIG    1      -37.710  82.204  27.534  0.00  0.00    -0.491 OA
ATOM     34  H   LIG    1      -37.931  83.016  28.028  0.00  0.00    +0.294 HD
ENDBRANCH  32  33
BRANCH  31  35
ATOM     35  C   LIG    1      -36.421  83.151  29.729  0.00  0.00    +0.204 C 
BRANCH  35  40
ATOM     36  C   LIG    1      -32.113  85.693  29.859  0.00  0.00    +0.174 C 
ATOM     37  N   LIG    1      -33.199  84.778  30.073  0.00  0.00    -0.254 N 
ATOM     38  N   LIG    1      -33.114  83.838  31.029  0.00  0.00    -0.066 NA
ATOM     39  N   LIG    1      -34.251  83.151  31.010  0.00  0.00    -0.133 NA
ATOM     40  C   LIG    1      -35.057  83.676  30.026  0.00  0.00    +0.104 A 
ATOM     41  C   LIG    1      -34.387  84.716  29.415  0.00  0.00    +0.135 A 
ENDBRANCH  35  40
ENDBRANCH  31  35
ENDBRANCH   1  32
TORSDOF 8
ENDMDL
MODEL 9
REMARK VINA RESULT:      -6.6     18.404     21.385
REMARK  Name = pdb/CHEMBL3942166.pdb
REMARK                            x       y       z     vdW  Elec       q    Type
REMARK                         _______ _______ _______ _____ _____    ______ ____
ROOT
ATOM      1  C   LIG    1      -30.028  77.855  11.080  0.00  0.00    +0.149 A 
ATOM      2  N   LIG    1      -29.740  76.566  10.835  0.00  0.00    -0.160 NA
ATOM      3  N   LIG    1      -28.565  76.350  11.492  0.00  0.00    -0.218 N 
ATOM      4  C   LIG    1      -28.026  77.536  11.995  0.00  0.00    +0.129 A 
ATOM      5  C   LIG    1      -28.989  78.495  11.792  0.00  0.00    +0.078 A 
ENDROOT
BRANCH   3   6
ATOM      6  C   LIG    1      -28.039  75.034  11.596  0.00  0.00    +0.067 A 
ATOM      7  C   LIG    1      -28.535  74.129  12.545  0.00  0.00    +0.028 A 
ATOM      8  C   LIG    1      -27.994  72.842  12.630  0.00  0.00    +0.002 A 
ATOM      9  C   LIG    1      -26.962  72.459  11.774  0.00  0.00    +0.000 A 
ATOM     10  C   LIG    1      -26.484  73.349  10.814  0.00  0.00    +0.002 A 
ATOM     11  C   LIG    1      -27.030  74.629  10.711  0.00  0.00    +0.028 A 
ENDBRANCH   3   6
BRANCH   4  12
ATOM     12  N   LIG    1      -26.741  77.719  12.519  0.00  0.00    -0.266 N 
ATOM     13  H   LIG    1      -26.069  78.203  11.932  0.00  0.00    +0.157 HD
ATOM     14  C   LIG    1      -26.354  77.367  13.855  0.00  0.00    +0.251 C 
ATOM     15  O   LIG    1      -27.135  76.797  14.601  0.00  0.00    -0.270 OA
BRANCH  14  16
ATOM     16  C   LIG    1      -24.956  77.634  14.281  0.00  0.00    +0.056 A 
ATOM     17  C   LIG    1      -23.968  76.659  14.436  0.00  0.00    +0.056 A 
ATOM     18 CL   LIG    1      -24.229  74.979  14.132  0.00  0.00    -0.083 Cl
ATOM     19  C   LIG    1      -22.681  77.031  14.827  0.00  0.00    +0.059 A 
ATOM     20  C   LIG    1      -22.377  78.371  15.071  0.00  0.00    +0.134 A 
ATOM     21  F   LIG    1      -21.109  78.664  15.390  0.00  0.00    -0.205 F 
ATOM     22  C   LIG    1      -23.338  79.382  14.950  0.00  0.00    +0.039 A 
ATOM     23  C   LIG    1      -24.625  78.983  14.532  0.00  0.00    +0.027 A 
BRANCH  22  24
ATOM     24  C   LIG    1      -23.043  80.805  15.205  0.00  0.00    +0.109 A 
ATOM     25  C   LIG    1      -22.625  81.309  16.439  0.00  0.00    +0.149 A 
ATOM     26  F   LIG    1      -22.509  80.524  17.518  0.00  0.00    -0.203 F 
ATOM     27  C   LIG    1      -22.366  82.669  16.576  0.00  0.00    +0.042 A 
ATOM     28  C   LIG    1      -22.549  83.509  15.485  0.00  0.00    +0.023 A 
ATOM     29  C   LIG    1      -22.993  82.949  14.300  0.00  0.00    +0.111 A 
ATOM     30  N   LIG    1      -23.244  81.628  14.138  0.00  0.00    -0.252 NA
ENDBRANCH  22  24
ENDBRANCH  14  16
ENDBRANCH   4  12
BRANCH   1  32
ATOM     31  N   LIG    1      -31.803  79.424  11.274  0.00  0.00    -0.243 NA
ATOM     32  C   LIG    1      -31.278  78.452  10.623  0.00  0.00    +0.236 C 
BRANCH  32  33
ATOM     33  O   LIG    1      -31.817  77.882   9.521  0.00  0.00    -0.491 OA
ATOM     34  H   LIG    1      -32.649  78.344   9.306  0.00  0.00    +0.294 HD
ENDBRANCH  32  33
BRANCH  31  35
ATOM     35  C   LIG    1      -33.045  79.976  10.740  0.00  0.00    +0.204 C 
BRANCH  35  40
ATOM     36  C   LIG    1      -34.497  84.747  11.147  0.00  0.00    +0.174 C 
ATOM     37  N   LIG    1      -33.763  83.517  11.042  0.00  0.00    -0.254 N 
ATOM     38  N   LIG    1      -32.421  83.524  11.086  0.00  0.00    -0.066 NA
ATOM     39  N   LIG    1      -32.016  82.263  10.979  0.00  0.00    -0.133 NA
ATOM     40  C   LIG    1      -33.127  81.459  10.868  0.00  0.00    +0.104 A 
ATOM     41  C   LIG    1      -34.253  82.256  10.903  0.00  0.00    +0.135 A 
ENDBRANCH  35  40
ENDBRANCH  31  35
ENDBRANCH   1  32
TORSDOF 8
ENDMDL
