MODEL 1
REMARK VINA RESULT:      -6.3      0.000      0.000
REMARK  Name = pdb/CHEMBL3298268.pdb
REMARK                            x       y       z     vdW  Elec       q    Type
REMARK                         _______ _______ _______ _____ _____    ______ ____
ROOT
ATOM      1  N   LIG    1      -29.793  75.609  31.128  0.00  0.00    -0.269 N 
ATOM      2  H   LIG    1      -28.975  75.086  30.804  0.00  0.00    +0.156 HD
ATOM      3  C   LIG    1      -29.759  76.215  32.442  0.00  0.00    +0.240 C 
ATOM      4  O   LIG    1      -30.747  76.818  32.866  0.00  0.00    -0.273 OA
ENDROOT
BRANCH   1   8
ATOM      5  C   LIG    1      -32.357  76.413  28.725  0.00  0.00    +0.071 A 
ATOM      6  N   LIG    1      -32.523  75.088  28.800  0.00  0.00    -0.169 NA
ATOM      7  N   LIG    1      -31.737  74.677  29.827  0.00  0.00    -0.217 N 
ATOM      8  C   LIG    1      -30.897  75.704  30.267  0.00  0.00    +0.129 A 
ATOM      9  C   LIG    1      -31.335  76.834  29.608  0.00  0.00    +0.069 A 
BRANCH   7  10
ATOM     10  C   LIG    1      -31.863  73.354  30.313  0.00  0.00    +0.085 A 
ATOM     11  C   LIG    1      -32.585  73.057  31.461  0.00  0.00    +0.138 A 
ATOM     12  N   LIG    1      -32.743  71.800  31.939  0.00  0.00    -0.261 NA
ATOM     13  C   LIG    1      -32.171  70.795  31.238  0.00  0.00    +0.111 A 
ATOM     14  C   LIG    1      -31.446  70.990  30.075  0.00  0.00    +0.022 A 
ATOM     15  C   LIG    1      -31.304  72.290  29.598  0.00  0.00    +0.031 A 
ENDBRANCH   7  10
BRANCH   5  17
ATOM     16  C   LIG    1      -34.382  76.471  27.247  0.00  0.00    +0.017 C 
ATOM     17  C   LIG    1      -33.142  77.251  27.721  0.00  0.00    +0.006 C 
ATOM     18  C   LIG    1      -33.607  78.584  28.347  0.00  0.00    +0.017 C 
ATOM     19  C   LIG    1      -32.286  77.595  26.481  0.00  0.00    +0.017 C 
ENDBRANCH   5  17
ENDBRANCH   1   8
BRANCH   3  20
ATOM     20  C   LIG    1      -28.568  75.987  33.319  0.00  0.00    +0.241 C 
BRANCH  20  21
ATOM     21  N   LIG    1      -27.371  76.551  32.760  0.00  0.00    -0.242 N 
ATOM     22  N   LIG    1      -27.456  77.271  31.633  0.00  0.00    -0.065 NA
ATOM     23  N   LIG    1      -26.226  77.651  31.318  0.00  0.00    -0.129 NA
ATOM     24  C   LIG    1      -25.378  77.228  32.310  0.00  0.00    +0.114 A 
ATOM     25  C   LIG    1      -26.105  76.541  33.258  0.00  0.00    +0.139 A 
BRANCH  24  26
ATOM     26  C   LIG    1      -23.958  77.491  32.317  0.00  0.00    +0.022 A 
ATOM     27  C   LIG    1      -23.122  77.092  31.283  0.00  0.00    +0.123 A 
ATOM     28  N   LIG    1      -21.782  77.294  31.259  0.00  0.00    -0.237 NA
ATOM     29  C   LIG    1      -21.226  77.934  32.321  0.00  0.00    +0.139 A 
ATOM     30  C   LIG    1      -21.986  78.376  33.401  0.00  0.00    +0.047 A 
ATOM     31  C   LIG    1      -23.364  78.146  33.395  0.00  0.00    +0.015 A 
BRANCH  29  32
ATOM     32  N   LIG    1      -19.820  78.141  32.306  0.00  0.00    -0.290 N 
ATOM     33  C   LIG    1      -18.940  77.595  31.398  0.00  0.00    +0.205 A 
ATOM     34  N   LIG    1      -17.696  77.956  31.625  0.00  0.00    -0.244 NA
ATOM     35  C   LIG    1      -17.756  78.768  32.722  0.00  0.00    +0.130 A 
ATOM     36  C   LIG    1      -19.052  78.900  33.163  0.00  0.00    +0.114 A 
ENDBRANCH  29  32
ENDBRANCH  24  26
ENDBRANCH  20  21
ENDBRANCH   3  20
TORSDOF 7
ENDMDL
MODEL 2
REMARK VINA RESULT:      -6.2      8.749     13.968
REMARK  Name = pdb/CHEMBL3298268.pdb
REMARK                            x       y       z     vdW  Elec       q    Type
REMARK                         _______ _______ _______ _____ _____    ______ ____
ROOT
ATOM      1  N   LIG    1      -36.077  73.660  27.451  0.00  0.00    -0.269 N 
ATOM      2  H   LIG    1      -35.672  72.966  26.817  0.00  0.00    +0.156 HD
ATOM      3  C   LIG    1      -37.153  73.258  28.332  0.00  0.00    +0.240 C 
ATOM      4  O   LIG    1      -37.679  74.087  29.077  0.00  0.00    -0.273 OA
ENDROOT
BRANCH   1   8
ATOM      5  C   LIG    1      -34.164  76.715  27.519  0.00  0.00    +0.071 A 
ATOM      6  N   LIG    1      -35.191  77.107  26.757  0.00  0.00    -0.169 NA
ATOM      7  N   LIG    1      -36.094  76.094  26.810  0.00  0.00    -0.217 N 
ATOM      8  C   LIG    1      -35.552  74.962  27.424  0.00  0.00    +0.129 A 
ATOM      9  C   LIG    1      -34.340  75.374  27.936  0.00  0.00    +0.069 A 
BRANCH   7  10
ATOM     10  C   LIG    1      -37.395  76.296  26.291  0.00  0.00    +0.085 A 
ATOM     11  C   LIG    1      -38.361  77.013  26.982  0.00  0.00    +0.138 A 
ATOM     12  N   LIG    1      -39.606  77.242  26.503  0.00  0.00    -0.261 NA
ATOM     13  C   LIG    1      -39.898  76.749  25.278  0.00  0.00    +0.111 A 
ATOM     14  C   LIG    1      -38.998  76.036  24.506  0.00  0.00    +0.022 A 
ATOM     15  C   LIG    1      -37.721  75.820  25.015  0.00  0.00    +0.031 A 
ENDBRANCH   7  10
BRANCH   5  17
ATOM     16  C   LIG    1      -31.988  76.955  28.742  0.00  0.00    +0.017 C 
ATOM     17  C   LIG    1      -32.969  77.630  27.764  0.00  0.00    +0.006 C 
ATOM     18  C   LIG    1      -32.221  77.938  26.449  0.00  0.00    +0.017 C 
ATOM     19  C   LIG    1      -33.406  78.980  28.376  0.00  0.00    +0.017 C 
ENDBRANCH   5  17
ENDBRANCH   1   8
BRANCH   3  20
ATOM     20  C   LIG    1      -37.700  71.869  28.228  0.00  0.00    +0.241 C 
BRANCH  20  21
ATOM     21  N   LIG    1      -37.553  71.329  26.905  0.00  0.00    -0.242 N 
ATOM     22  N   LIG    1      -38.132  71.964  25.876  0.00  0.00    -0.065 NA
ATOM     23  N   LIG    1      -37.871  71.259  24.785  0.00  0.00    -0.129 NA
ATOM     24  C   LIG    1      -37.051  70.217  25.132  0.00  0.00    +0.114 A 
ATOM     25  C   LIG    1      -36.816  70.263  26.490  0.00  0.00    +0.139 A 
BRANCH  24  26
ATOM     26  C   LIG    1      -36.535  69.252  24.189  0.00  0.00    +0.022 A 
ATOM     27  C   LIG    1      -35.301  68.637  24.353  0.00  0.00    +0.123 A 
ATOM     28  N   LIG    1      -34.767  67.747  23.481  0.00  0.00    -0.237 NA
ATOM     29  C   LIG    1      -35.495  67.438  22.376  0.00  0.00    +0.139 A 
ATOM     30  C   LIG    1      -36.745  68.001  22.131  0.00  0.00    +0.047 A 
ATOM     31  C   LIG    1      -37.263  68.918  23.047  0.00  0.00    +0.015 A 
BRANCH  29  32
ATOM     32  N   LIG    1      -34.936  66.512  21.454  0.00  0.00    -0.290 N 
ATOM     33  C   LIG    1      -33.639  66.529  20.989  0.00  0.00    +0.205 A 
ATOM     34  N   LIG    1      -33.397  65.552  20.141  0.00  0.00    -0.244 NA
ATOM     35  C   LIG    1      -34.575  64.868  20.043  0.00  0.00    +0.130 A 
ATOM     36  C   LIG    1      -35.540  65.436  20.840  0.00  0.00    +0.114 A 
ENDBRANCH  29  32
ENDBRANCH  24  26
ENDBRANCH  20  21
ENDBRANCH   3  20
TORSDOF 7
ENDMDL
MODEL 3
REMARK VINA RESULT:      -6.2     12.968     15.791
REMARK  Name = pdb/CHEMBL3298268.pdb
REMARK                            x       y       z     vdW  Elec       q    Type
REMARK                         _______ _______ _______ _____ _____    ______ ____
ROOT
ATOM      1  N   LIG    1      -37.460  68.244  22.622  0.00  0.00    -0.269 N 
ATOM      2  H   LIG    1      -37.531  69.237  22.388  0.00  0.00    +0.156 HD
ATOM      3  C   LIG    1      -38.551  67.614  23.335  0.00  0.00    +0.240 C 
ATOM      4  O   LIG    1      -38.470  66.428  23.658  0.00  0.00    -0.273 OA
ENDROOT
BRANCH   1   8
ATOM      5  C   LIG    1      -34.671  66.629  21.006  0.00  0.00    +0.071 A 
ATOM      6  N   LIG    1      -34.146  66.829  22.220  0.00  0.00    -0.169 NA
ATOM      7  N   LIG    1      -35.171  67.264  22.996  0.00  0.00    -0.217 N 
ATOM      8  C   LIG    1      -36.302  67.555  22.228  0.00  0.00    +0.129 A 
ATOM      9  C   LIG    1      -36.008  67.090  20.963  0.00  0.00    +0.069 A 
BRANCH   7  10
ATOM     10  C   LIG    1      -34.995  67.347  24.397  0.00  0.00    +0.085 A 
ATOM     11  C   LIG    1      -35.100  66.235  25.220  0.00  0.00    +0.138 A 
ATOM     12  N   LIG    1      -34.915  66.278  26.561  0.00  0.00    -0.261 NA
ATOM     13  C   LIG    1      -34.598  67.476  27.104  0.00  0.00    +0.111 A 
ATOM     14  C   LIG    1      -34.455  68.637  26.364  0.00  0.00    +0.022 A 
ATOM     15  C   LIG    1      -34.642  68.567  24.986  0.00  0.00    +0.031 A 
ENDBRANCH   7  10
BRANCH   5  17
ATOM     16  C   LIG    1      -33.837  64.527  19.923  0.00  0.00    +0.017 C 
ATOM     17  C   LIG    1      -33.830  66.066  19.865  0.00  0.00    +0.006 C 
ATOM     18  C   LIG    1      -34.379  66.510  18.492  0.00  0.00    +0.017 C 
ATOM     19  C   LIG    1      -32.364  66.545  19.954  0.00  0.00    +0.017 C 
ENDBRANCH   5  17
ENDBRANCH   1   8
BRANCH   3  20
ATOM     20  C   LIG    1      -39.707  68.452  23.785  0.00  0.00    +0.241 C 
BRANCH  20  21
ATOM     21  N   LIG    1      -39.297  69.772  24.174  0.00  0.00    -0.242 N 
ATOM     22  N   LIG    1      -38.201  69.916  24.933  0.00  0.00    -0.065 NA
ATOM     23  N   LIG    1      -38.057  71.211  25.170  0.00  0.00    -0.129 NA
ATOM     24  C   LIG    1      -39.031  71.886  24.479  0.00  0.00    +0.114 A 
ATOM     25  C   LIG    1      -39.821  70.974  23.812  0.00  0.00    +0.139 A 
BRANCH  24  26
ATOM     26  C   LIG    1      -39.163  73.324  24.477  0.00  0.00    +0.022 A 
ATOM     27  C   LIG    1      -38.176  74.163  24.978  0.00  0.00    +0.123 A 
ATOM     28  N   LIG    1      -38.268  75.515  25.020  0.00  0.00    -0.237 NA
ATOM     29  C   LIG    1      -39.405  76.081  24.536  0.00  0.00    +0.139 A 
ATOM     30  C   LIG    1      -40.445  75.320  24.009  0.00  0.00    +0.047 A 
ATOM     31  C   LIG    1      -40.319  73.929  23.986  0.00  0.00    +0.015 A 
BRANCH  29  32
ATOM     32  N   LIG    1      -39.510  77.497  24.586  0.00  0.00    -0.290 N 
ATOM     33  C   LIG    1      -39.834  78.313  23.524  0.00  0.00    +0.205 A 
ATOM     34  N   LIG    1      -39.856  79.586  23.857  0.00  0.00    -0.244 NA
ATOM     35  C   LIG    1      -39.536  79.610  25.185  0.00  0.00    +0.130 A 
ATOM     36  C   LIG    1      -39.317  78.339  25.660  0.00  0.00    +0.114 A 
ENDBRANCH  29  32
ENDBRANCH  24  26
ENDBRANCH  20  21
ENDBRANCH   3  20
TORSDOF 7
ENDMDL
MODEL 4
REMARK VINA RESULT:      -6.1     15.426     21.419
REMARK  Name = pdb/CHEMBL3298268.pdb
REMARK                            x       y       z     vdW  Elec       q    Type
REMARK                         _______ _______ _______ _____ _____    ______ ____
ROOT
ATOM      1  N   LIG    1      -33.193  68.249  16.148  0.00  0.00    -0.269 N 
ATOM      2  H   LIG    1      -33.358  69.249  16.007  0.00  0.00    +0.156 HD
ATOM      3  C   LIG    1      -32.907  67.418  14.998  0.00  0.00    +0.240 C 
ATOM      4  O   LIG    1      -32.742  66.205  15.142  0.00  0.00    -0.273 OA
ENDROOT
BRANCH   1   8
ATOM      5  C   LIG    1      -33.888  66.669  19.314  0.00  0.00    +0.071 A 
ATOM      6  N   LIG    1      -32.574  66.878  19.448  0.00  0.00    -0.169 NA
ATOM      7  N   LIG    1      -32.216  67.650  18.390  0.00  0.00    -0.217 N 
ATOM      8  C   LIG    1      -33.254  67.750  17.460  0.00  0.00    +0.129 A 
ATOM      9  C   LIG    1      -34.347  67.178  18.076  0.00  0.00    +0.069 A 
BRANCH   7  10
ATOM     10  C   LIG    1      -30.929  68.238  18.363  0.00  0.00    +0.085 A 
ATOM     11  C   LIG    1      -30.740  69.604  18.523  0.00  0.00    +0.138 A 
ATOM     12  N   LIG    1      -29.521  70.194  18.525  0.00  0.00    -0.261 NA
ATOM     13  C   LIG    1      -28.445  69.390  18.376  0.00  0.00    +0.111 A 
ATOM     14  C   LIG    1      -28.530  68.016  18.226  0.00  0.00    +0.022 A 
ATOM     15  C   LIG    1      -29.793  67.431  18.236  0.00  0.00    +0.031 A 
ENDBRANCH   7  10
BRANCH   5  17
ATOM     16  C   LIG    1      -36.185  66.049  20.105  0.00  0.00    +0.017 C 
ATOM     17  C   LIG    1      -34.675  65.891  20.363  0.00  0.00    +0.006 C 
ATOM     18  C   LIG    1      -34.322  64.388  20.328  0.00  0.00    +0.017 C 
ATOM     19  C   LIG    1      -34.374  66.404  21.790  0.00  0.00    +0.017 C 
ENDBRANCH   5  17
ENDBRANCH   1   8
BRANCH   3  20
ATOM     20  C   LIG    1      -32.947  68.027  13.631  0.00  0.00    +0.241 C 
BRANCH  20  21
ATOM     21  N   LIG    1      -34.230  68.601  13.335  0.00  0.00    -0.242 N 
ATOM     22  N   LIG    1      -35.329  68.052  13.872  0.00  0.00    -0.065 NA
ATOM     23  N   LIG    1      -36.368  68.743  13.428  0.00  0.00    -0.129 NA
ATOM     24  C   LIG    1      -35.900  69.784  12.669  0.00  0.00    +0.114 A 
ATOM     25  C   LIG    1      -34.524  69.721  12.621  0.00  0.00    +0.139 A 
BRANCH  24  26
ATOM     26  C   LIG    1      -36.752  70.769  12.045  0.00  0.00    +0.022 A 
ATOM     27  C   LIG    1      -37.994  71.113  12.562  0.00  0.00    +0.123 A 
ATOM     28  N   LIG    1      -38.837  72.012  11.996  0.00  0.00    -0.237 NA
ATOM     29  C   LIG    1      -38.433  72.613  10.847  0.00  0.00    +0.139 A 
ATOM     30  C   LIG    1      -37.202  72.335  10.258  0.00  0.00    +0.047 A 
ATOM     31  C   LIG    1      -36.360  71.401  10.865  0.00  0.00    +0.015 A 
BRANCH  29  32
ATOM     32  N   LIG    1      -39.317  73.550  10.245  0.00  0.00    -0.290 N 
ATOM     33  C   LIG    1      -38.972  74.812   9.813  0.00  0.00    +0.205 A 
ATOM     34  N   LIG    1      -39.993  75.462   9.297  0.00  0.00    -0.244 NA
ATOM     35  C   LIG    1      -41.048  74.599   9.393  0.00  0.00    +0.130 A 
ATOM     36  C   LIG    1      -40.660  73.414   9.972  0.00  0.00    +0.114 A 
ENDBRANCH  29  32
ENDBRANCH  24  26
ENDBRANCH  20  21
ENDBRANCH   3  20
TORSDOF 7
ENDMDL
MODEL 5
REMARK VINA RESULT:      -6.1     12.159     15.565
REMARK  Name = pdb/CHEMBL3298268.pdb
REMARK                            x       y       z     vdW  Elec       q    Type
REMARK                         _______ _______ _______ _____ _____    ______ ____
ROOT
ATOM      1  N   LIG    1      -37.703  68.410  23.964  0.00  0.00    -0.269 N 
ATOM      2  H   LIG    1      -38.415  67.820  24.401  0.00  0.00    +0.156 HD
ATOM      3  C   LIG    1      -37.854  69.848  24.021  0.00  0.00    +0.240 C 
ATOM      4  O   LIG    1      -37.027  70.576  23.469  0.00  0.00    -0.273 OA
ENDROOT
BRANCH   1   8
ATOM      5  C   LIG    1      -35.261  66.866  21.807  0.00  0.00    +0.071 A 
ATOM      6  N   LIG    1      -34.472  67.216  22.829  0.00  0.00    -0.169 NA
ATOM      7  N   LIG    1      -35.310  67.643  23.809  0.00  0.00    -0.217 N 
ATOM      8  C   LIG    1      -36.618  67.777  23.336  0.00  0.00    +0.129 A 
ATOM      9  C   LIG    1      -36.604  67.220  22.074  0.00  0.00    +0.069 A 
BRANCH   7  10
ATOM     10  C   LIG    1      -34.800  67.868  25.109  0.00  0.00    +0.085 A 
ATOM     11  C   LIG    1      -34.604  66.833  26.013  0.00  0.00    +0.138 A 
ATOM     12  N   LIG    1      -34.097  67.013  27.256  0.00  0.00    -0.261 NA
ATOM     13  C   LIG    1      -33.759  68.273  27.609  0.00  0.00    +0.111 A 
ATOM     14  C   LIG    1      -33.902  69.367  26.773  0.00  0.00    +0.022 A 
ATOM     15  C   LIG    1      -34.417  69.157  25.497  0.00  0.00    +0.031 A 
ENDBRANCH   7  10
BRANCH   5  17
ATOM     16  C   LIG    1      -34.863  64.736  20.546  0.00  0.00    +0.017 C 
ATOM     17  C   LIG    1      -34.679  66.265  20.531  0.00  0.00    +0.006 C 
ATOM     18  C   LIG    1      -35.375  66.835  19.276  0.00  0.00    +0.017 C 
ATOM     19  C   LIG    1      -33.170  66.568  20.402  0.00  0.00    +0.017 C 
ENDBRANCH   5  17
ENDBRANCH   1   8
BRANCH   3  20
ATOM     20  C   LIG    1      -39.089  70.427  24.640  0.00  0.00    +0.241 C 
BRANCH  20  21
ATOM     21  N   LIG    1      -38.969  71.841  24.860  0.00  0.00    -0.242 N 
ATOM     22  N   LIG    1      -38.153  72.282  25.828  0.00  0.00    -0.065 NA
ATOM     23  N   LIG    1      -38.242  73.603  25.842  0.00  0.00    -0.129 NA
ATOM     24  C   LIG    1      -39.064  73.990  24.815  0.00  0.00    +0.114 A 
ATOM     25  C   LIG    1      -39.519  72.868  24.157  0.00  0.00    +0.139 A 
BRANCH  24  26
ATOM     26  C   LIG    1      -39.368  75.368  24.507  0.00  0.00    +0.022 A 
ATOM     27  C   LIG    1      -38.576  76.421  24.944  0.00  0.00    +0.123 A 
ATOM     28  N   LIG    1      -38.837  77.729  24.700  0.00  0.00    -0.237 NA
ATOM     29  C   LIG    1      -39.949  78.022  23.977  0.00  0.00    +0.139 A 
ATOM     30  C   LIG    1      -40.800  77.032  23.493  0.00  0.00    +0.047 A 
ATOM     31  C   LIG    1      -40.504  75.695  23.766  0.00  0.00    +0.015 A 
BRANCH  29  32
ATOM     32  N   LIG    1      -40.233  79.392  23.726  0.00  0.00    -0.290 N 
ATOM     33  C   LIG    1      -39.361  80.300  23.166  0.00  0.00    +0.205 A 
ATOM     34  N   LIG    1      -39.890  81.500  23.054  0.00  0.00    -0.244 NA
ATOM     35  C   LIG    1      -41.153  81.379  23.558  0.00  0.00    +0.130 A 
ATOM     36  C   LIG    1      -41.392  80.092  23.980  0.00  0.00    +0.114 A 
ENDBRANCH  29  32
ENDBRANCH  24  26
ENDBRANCH  20  21
ENDBRANCH   3  20
TORSDOF 7
ENDMDL
MODEL 6
REMARK VINA RESULT:      -6.1      8.927     12.275
REMARK  Name = pdb/CHEMBL3298268.pdb
REMARK                            x       y       z     vdW  Elec       q    Type
REMARK                         _______ _______ _______ _____ _____    ______ ____
ROOT
ATOM      1  N   LIG    1      -36.208  68.778  25.530  0.00  0.00    -0.269 N 
ATOM      2  H   LIG    1      -36.888  68.475  26.231  0.00  0.00    +0.156 HD
ATOM      3  C   LIG    1      -34.894  69.199  25.966  0.00  0.00    +0.240 C 
ATOM      4  O   LIG    1      -34.073  69.602  25.140  0.00  0.00    -0.273 OA
ENDROOT
BRANCH   1   8
ATOM      5  C   LIG    1      -37.000  68.122  22.074  0.00  0.00    +0.071 A 
ATOM      6  N   LIG    1      -37.846  69.131  22.313  0.00  0.00    -0.169 NA
ATOM      7  N   LIG    1      -37.512  69.606  23.541  0.00  0.00    -0.217 N 
ATOM      8  C   LIG    1      -36.601  68.762  24.182  0.00  0.00    +0.129 A 
ATOM      9  C   LIG    1      -36.222  67.845  23.223  0.00  0.00    +0.069 A 
BRANCH   7  10
ATOM     10  C   LIG    1      -38.071  70.826  23.989  0.00  0.00    +0.085 A 
ATOM     11  C   LIG    1      -37.302  71.811  24.593  0.00  0.00    +0.138 A 
ATOM     12  N   LIG    1      -37.803  72.997  25.012  0.00  0.00    -0.261 NA
ATOM     13  C   LIG    1      -39.121  73.218  24.809  0.00  0.00    +0.111 A 
ATOM     14  C   LIG    1      -39.966  72.304  24.203  0.00  0.00    +0.022 A 
ATOM     15  C   LIG    1      -39.427  71.095  23.772  0.00  0.00    +0.031 A 
ENDBRANCH   7  10
BRANCH   5  17
ATOM     16  C   LIG    1      -35.611  66.839  20.428  0.00  0.00    +0.017 C 
ATOM     17  C   LIG    1      -37.020  67.374  20.745  0.00  0.00    +0.006 C 
ATOM     18  C   LIG    1      -38.003  66.183  20.788  0.00  0.00    +0.017 C 
ATOM     19  C   LIG    1      -37.459  68.295  19.585  0.00  0.00    +0.017 C 
ENDBRANCH   5  17
ENDBRANCH   1   8
BRANCH   3  20
ATOM     20  C   LIG    1      -34.598  69.261  27.432  0.00  0.00    +0.241 C 
BRANCH  20  21
ATOM     21  N   LIG    1      -34.277  70.594  27.861  0.00  0.00    -0.242 N 
ATOM     22  N   LIG    1      -33.288  70.771  28.748  0.00  0.00    -0.065 NA
ATOM     23  N   LIG    1      -33.211  72.071  28.993  0.00  0.00    -0.129 NA
ATOM     24  C   LIG    1      -34.112  72.715  28.185  0.00  0.00    +0.114 A 
ATOM     25  C   LIG    1      -34.788  71.779  27.431  0.00  0.00    +0.139 A 
BRANCH  24  26
ATOM     26  C   LIG    1      -34.285  74.148  28.160  0.00  0.00    +0.022 A 
ATOM     27  C   LIG    1      -35.500  74.746  27.850  0.00  0.00    +0.123 A 
ATOM     28  N   LIG    1      -35.702  76.086  27.789  0.00  0.00    -0.237 NA
ATOM     29  C   LIG    1      -34.639  76.891  28.052  0.00  0.00    +0.139 A 
ATOM     30  C   LIG    1      -33.385  76.382  28.376  0.00  0.00    +0.047 A 
ATOM     31  C   LIG    1      -33.211  74.997  28.425  0.00  0.00    +0.015 A 
BRANCH  29  32
ATOM     32  N   LIG    1      -34.842  78.297  27.981  0.00  0.00    -0.290 N 
ATOM     33  C   LIG    1      -33.853  79.240  27.812  0.00  0.00    +0.205 A 
ATOM     34  N   LIG    1      -34.329  80.467  27.785  0.00  0.00    -0.244 NA
ATOM     35  C   LIG    1      -35.679  80.327  27.942  0.00  0.00    +0.130 A 
ATOM     36  C   LIG    1      -36.023  79.002  28.065  0.00  0.00    +0.114 A 
ENDBRANCH  29  32
ENDBRANCH  24  26
ENDBRANCH  20  21
ENDBRANCH   3  20
TORSDOF 7
ENDMDL
MODEL 7
REMARK VINA RESULT:      -6.0     13.370     16.806
REMARK  Name = pdb/CHEMBL3298268.pdb
REMARK                            x       y       z     vdW  Elec       q    Type
REMARK                         _______ _______ _______ _____ _____    ______ ____
ROOT
ATOM      1  N   LIG    1      -34.984  67.717  22.833  0.00  0.00    -0.269 N 
ATOM      2  H   LIG    1      -34.812  68.725  22.875  0.00  0.00    +0.156 HD
ATOM      3  C   LIG    1      -35.324  67.014  24.052  0.00  0.00    +0.240 C 
ATOM      4  O   LIG    1      -35.499  65.794  24.029  0.00  0.00    -0.273 OA
ENDROOT
BRANCH   1   8
ATOM      5  C   LIG    1      -34.139  65.881  19.847  0.00  0.00    +0.071 A 
ATOM      6  N   LIG    1      -35.470  65.912  19.726  0.00  0.00    -0.169 NA
ATOM      7  N   LIG    1      -35.908  66.751  20.699  0.00  0.00    -0.217 N 
ATOM      8  C   LIG    1      -34.879  67.083  21.585  0.00  0.00    +0.129 A 
ATOM      9  C   LIG    1      -33.731  66.580  21.008  0.00  0.00    +0.069 A 
BRANCH   7  10
ATOM     10  C   LIG    1      -37.257  67.178  20.694  0.00  0.00    +0.085 A 
ATOM     11  C   LIG    1      -38.303  66.311  20.409  0.00  0.00    +0.138 A 
ATOM     12  N   LIG    1      -39.604  66.684  20.418  0.00  0.00    -0.261 NA
ATOM     13  C   LIG    1      -39.878  67.969  20.737  0.00  0.00    +0.111 A 
ATOM     14  C   LIG    1      -38.906  68.903  21.051  0.00  0.00    +0.022 A 
ATOM     15  C   LIG    1      -37.575  68.495  21.044  0.00  0.00    +0.031 A 
ENDBRANCH   7  10
BRANCH   5  17
ATOM     16  C   LIG    1      -33.620  65.492  17.425  0.00  0.00    +0.017 C 
ATOM     17  C   LIG    1      -33.275  65.089  18.871  0.00  0.00    +0.006 C 
ATOM     18  C   LIG    1      -31.773  65.352  19.112  0.00  0.00    +0.017 C 
ATOM     19  C   LIG    1      -33.508  63.569  19.017  0.00  0.00    +0.017 C 
ENDBRANCH   5  17
ENDBRANCH   1   8
BRANCH   3  20
ATOM     20  C   LIG    1      -35.330  67.763  25.348  0.00  0.00    +0.241 C 
BRANCH  20  21
ATOM     21  N   LIG    1      -35.838  69.098  25.196  0.00  0.00    -0.242 N 
ATOM     22  N   LIG    1      -34.985  70.130  25.260  0.00  0.00    -0.065 NA
ATOM     23  N   LIG    1      -35.700  71.237  25.118  0.00  0.00    -0.129 NA
ATOM     24  C   LIG    1      -37.003  70.880  24.883  0.00  0.00    +0.114 A 
ATOM     25  C   LIG    1      -37.103  69.506  24.904  0.00  0.00    +0.139 A 
BRANCH  24  26
ATOM     26  C   LIG    1      -38.064  71.831  24.648  0.00  0.00    +0.022 A 
ATOM     27  C   LIG    1      -37.958  73.168  25.006  0.00  0.00    +0.123 A 
ATOM     28  N   LIG    1      -38.937  74.089  24.829  0.00  0.00    -0.237 NA
ATOM     29  C   LIG    1      -40.098  73.668  24.261  0.00  0.00    +0.139 A 
ATOM     30  C   LIG    1      -40.293  72.348  23.865  0.00  0.00    +0.047 A 
ATOM     31  C   LIG    1      -39.265  71.424  24.067  0.00  0.00    +0.015 A 
BRANCH  29  32
ATOM     32  N   LIG    1      -41.131  74.627  24.081  0.00  0.00    -0.290 N 
ATOM     33  C   LIG    1      -40.992  75.845  23.451  0.00  0.00    +0.205 A 
ATOM     34  N   LIG    1      -42.115  76.531  23.432  0.00  0.00    -0.244 NA
ATOM     35  C   LIG    1      -43.026  75.739  24.072  0.00  0.00    +0.130 A 
ATOM     36  C   LIG    1      -42.448  74.561  24.483  0.00  0.00    +0.114 A 
ENDBRANCH  29  32
ENDBRANCH  24  26
ENDBRANCH  20  21
ENDBRANCH   3  20
TORSDOF 7
ENDMDL
MODEL 8
REMARK VINA RESULT:      -5.9      7.156     15.784
REMARK  Name = pdb/CHEMBL3298268.pdb
REMARK                            x       y       z     vdW  Elec       q    Type
REMARK                         _______ _______ _______ _____ _____    ______ ____
ROOT
ATOM      1  N   LIG    1      -35.183  75.723  26.960  0.00  0.00    -0.269 N 
ATOM      2  H   LIG    1      -34.870  75.436  26.029  0.00  0.00    +0.156 HD
ATOM      3  C   LIG    1      -36.556  76.147  27.135  0.00  0.00    +0.240 C 
ATOM      4  O   LIG    1      -36.944  76.532  28.239  0.00  0.00    -0.273 OA
ENDROOT
BRANCH   1   8
ATOM      5  C   LIG    1      -32.716  74.997  29.486  0.00  0.00    +0.071 A 
ATOM      6  N   LIG    1      -32.567  76.323  29.398  0.00  0.00    -0.169 NA
ATOM      7  N   LIG    1      -33.583  76.755  28.608  0.00  0.00    -0.217 N 
ATOM      8  C   LIG    1      -34.252  75.683  28.010  0.00  0.00    +0.129 A 
ATOM      9  C   LIG    1      -33.742  74.555  28.618  0.00  0.00    +0.069 A 
BRANCH   7  10
ATOM     10  C   LIG    1      -33.842  78.142  28.505  0.00  0.00    +0.085 A 
ATOM     11  C   LIG    1      -33.597  78.852  27.338  0.00  0.00    +0.138 A 
ATOM     12  N   LIG    1      -33.855  80.174  27.201  0.00  0.00    -0.261 NA
ATOM     13  C   LIG    1      -34.392  80.814  28.264  0.00  0.00    +0.111 A 
ATOM     14  C   LIG    1      -34.687  80.189  29.464  0.00  0.00    +0.022 A 
ATOM     15  C   LIG    1      -34.421  78.827  29.579  0.00  0.00    +0.031 A 
ENDBRANCH   7  10
BRANCH   5  17
ATOM     16  C   LIG    1      -31.192  73.007  29.524  0.00  0.00    +0.017 C 
ATOM     17  C   LIG    1      -31.790  74.155  30.358  0.00  0.00    +0.006 C 
ATOM     18  C   LIG    1      -30.635  75.004  30.931  0.00  0.00    +0.017 C 
ATOM     19  C   LIG    1      -32.549  73.537  31.554  0.00  0.00    +0.017 C 
ENDBRANCH   5  17
ENDBRANCH   1   8
BRANCH   3  20
ATOM     20  C   LIG    1      -37.450  76.235  25.937  0.00  0.00    +0.241 C 
BRANCH  20  21
ATOM     21  N   LIG    1      -37.992  74.956  25.574  0.00  0.00    -0.242 N 
ATOM     22  N   LIG    1      -37.607  73.869  26.257  0.00  0.00    -0.065 NA
ATOM     23  N   LIG    1      -38.223  72.828  25.715  0.00  0.00    -0.129 NA
ATOM     24  C   LIG    1      -39.064  73.289  24.735  0.00  0.00    +0.114 A 
ATOM     25  C   LIG    1      -38.946  74.660  24.650  0.00  0.00    +0.139 A 
BRANCH  24  26
ATOM     26  C   LIG    1      -39.923  72.436  23.949  0.00  0.00    +0.022 A 
ATOM     27  C   LIG    1      -41.140  72.871  23.439  0.00  0.00    +0.123 A 
ATOM     28  N   LIG    1      -41.989  72.097  22.718  0.00  0.00    -0.237 NA
ATOM     29  C   LIG    1      -41.618  70.812  22.481  0.00  0.00    +0.139 A 
ATOM     30  C   LIG    1      -40.414  70.290  22.948  0.00  0.00    +0.047 A 
ATOM     31  C   LIG    1      -39.565  71.113  23.691  0.00  0.00    +0.015 A 
BRANCH  29  32
ATOM     32  N   LIG    1      -42.508  69.994  21.733  0.00  0.00    -0.290 N 
ATOM     33  C   LIG    1      -42.286  68.680  21.386  0.00  0.00    +0.205 A 
ATOM     34  N   LIG    1      -43.280  68.170  20.690  0.00  0.00    -0.244 NA
ATOM     35  C   LIG    1      -44.188  69.184  20.573  0.00  0.00    +0.130 A 
ATOM     36  C   LIG    1      -43.739  70.319  21.206  0.00  0.00    +0.114 A 
ENDBRANCH  29  32
ENDBRANCH  24  26
ENDBRANCH  20  21
ENDBRANCH   3  20
TORSDOF 7
ENDMDL
MODEL 9
REMARK VINA RESULT:      -5.9      8.720     15.960
REMARK  Name = pdb/CHEMBL3298268.pdb
REMARK                            x       y       z     vdW  Elec       q    Type
REMARK                         _______ _______ _______ _____ _____    ______ ____
ROOT
ATOM      1  N   LIG    1      -35.735  73.604  27.227  0.00  0.00    -0.269 N 
ATOM      2  H   LIG    1      -35.478  73.071  26.393  0.00  0.00    +0.156 HD
ATOM      3  C   LIG    1      -36.483  72.944  28.276  0.00  0.00    +0.240 C 
ATOM      4  O   LIG    1      -36.834  73.578  29.273  0.00  0.00    -0.273 OA
ENDROOT
BRANCH   1   8
ATOM      5  C   LIG    1      -34.119  76.815  27.498  0.00  0.00    +0.071 A 
ATOM      6  N   LIG    1      -35.212  77.168  26.813  0.00  0.00    -0.169 NA
ATOM      7  N   LIG    1      -36.012  76.071  26.809  0.00  0.00    -0.217 N 
ATOM      8  C   LIG    1      -35.338  74.949  27.297  0.00  0.00    +0.129 A 
ATOM      9  C   LIG    1      -34.148  75.433  27.799  0.00  0.00    +0.069 A 
BRANCH   7  10
ATOM     10  C   LIG    1      -37.349  76.188  26.360  0.00  0.00    +0.085 A 
ATOM     11  C   LIG    1      -38.324  76.830  27.110  0.00  0.00    +0.138 A 
ATOM     12  N   LIG    1      -39.606  76.978  26.698  0.00  0.00    -0.261 NA
ATOM     13  C   LIG    1      -39.927  76.477  25.484  0.00  0.00    +0.111 A 
ATOM     14  C   LIG    1      -39.022  75.835  24.657  0.00  0.00    +0.022 A 
ATOM     15  C   LIG    1      -37.708  75.702  25.098  0.00  0.00    +0.031 A 
ENDBRANCH   7  10
BRANCH   5  17
ATOM     16  C   LIG    1      -31.998  77.214  28.774  0.00  0.00    +0.017 C 
ATOM     17  C   LIG    1      -33.005  77.819  27.778  0.00  0.00    +0.006 C 
ATOM     18  C   LIG    1      -32.253  78.197  26.484  0.00  0.00    +0.017 C 
ATOM     19  C   LIG    1      -33.562  79.125  28.388  0.00  0.00    +0.017 C 
ENDBRANCH   5  17
ENDBRANCH   1   8
BRANCH   3  20
ATOM     20  C   LIG    1      -36.932  71.531  28.072  0.00  0.00    +0.241 C 
BRANCH  20  21
ATOM     21  N   LIG    1      -37.491  71.327  26.765  0.00  0.00    -0.242 N 
ATOM     22  N   LIG    1      -36.714  70.823  25.796  0.00  0.00    -0.065 NA
ATOM     23  N   LIG    1      -37.451  70.758  24.697  0.00  0.00    -0.129 NA
ATOM     24  C   LIG    1      -38.726  71.152  25.011  0.00  0.00    +0.114 A 
ATOM     25  C   LIG    1      -38.774  71.497  26.345  0.00  0.00    +0.139 A 
BRANCH  24  26
ATOM     26  C   LIG    1      -39.814  71.179  24.062  0.00  0.00    +0.022 A 
ATOM     27  C   LIG    1      -40.118  70.096  23.248  0.00  0.00    +0.123 A 
ATOM     28  N   LIG    1      -41.112  70.085  22.326  0.00  0.00    -0.237 NA
ATOM     29  C   LIG    1      -41.859  71.213  22.197  0.00  0.00    +0.139 A 
ATOM     30  C   LIG    1      -41.631  72.346  22.974  0.00  0.00    +0.047 A 
ATOM     31  C   LIG    1      -40.595  72.324  23.910  0.00  0.00    +0.015 A 
BRANCH  29  32
ATOM     32  N   LIG    1      -42.897  71.211  21.225  0.00  0.00    -0.290 N 
ATOM     33  C   LIG    1      -44.244  71.322  21.494  0.00  0.00    +0.205 A 
ATOM     34  N   LIG    1      -44.977  71.288  20.402  0.00  0.00    -0.244 NA
ATOM     35  C   LIG    1      -44.084  71.148  19.378  0.00  0.00    +0.130 A 
ATOM     36  C   LIG    1      -42.795  71.098  19.856  0.00  0.00    +0.114 A 
ENDBRANCH  29  32
ENDBRANCH  24  26
ENDBRANCH  20  21
ENDBRANCH   3  20
TORSDOF 7
ENDMDL
