MODEL 1
REMARK VINA RESULT:      -6.3      0.000      0.000
REMARK  Name = pdb/CHEMBL3671427.pdb
REMARK                            x       y       z     vdW  Elec       q    Type
REMARK                         _______ _______ _______ _____ _____    ______ ____
ROOT
ATOM      1  C   LIG    1      -33.941  73.843  30.048  0.00  0.00    +0.197 C 
ATOM      2  O   LIG    1      -33.682  74.010  31.227  0.00  0.00    -0.287 OA
ENDROOT
BRANCH   1  10
ATOM      3  N   LIG    1      -35.882  76.378  28.197  0.00  0.00    -0.323 N 
ATOM      4  C   LIG    1      -34.595  76.760  27.877  0.00  0.00    +0.147 A 
ATOM      5  N   LIG    1      -34.253  77.795  27.095  0.00  0.00    -0.197 NA
ATOM      6  C   LIG    1      -32.936  77.965  26.961  0.00  0.00    +0.214 A 
ATOM      7  N   LIG    1      -31.983  77.195  27.500  0.00  0.00    -0.222 NA
ATOM      8  C   LIG    1      -32.353  76.161  28.293  0.00  0.00    +0.126 A 
ATOM      9  C   LIG    1      -33.704  75.894  28.499  0.00  0.00    +0.048 A 
ATOM     10  C   LIG    1      -34.472  74.925  29.209  0.00  0.00    +0.051 A 
ATOM     11  C   LIG    1      -35.800  75.243  28.981  0.00  0.00    +0.100 A 
BRANCH   3  13
ATOM     12  C   LIG    1      -38.319  76.423  28.551  0.00  0.00    +0.036 C 
ATOM     13  C   LIG    1      -37.125  77.118  27.866  0.00  0.00    +0.064 C 
ATOM     14  C   LIG    1      -37.413  77.128  26.341  0.00  0.00    +0.036 C 
BRANCH  13  15
ATOM     15  C   LIG    1      -37.093  78.599  28.340  0.00  0.00    +0.183 C 
BRANCH  15  16
ATOM     16  O   LIG    1      -36.746  79.492  27.284  0.00  0.00    -0.393 OA
ATOM     17  H   LIG    1      -36.056  79.038  26.762  0.00  0.00    +0.209 HD
ENDBRANCH  15  16
ENDBRANCH  13  15
ENDBRANCH   3  13
BRANCH   6  18
ATOM     18  N   LIG    1      -32.529  78.996  26.140  0.00  0.00    -0.327 N 
ATOM     19  H   LIG    1      -32.343  79.825  26.685  0.00  0.00    +0.145 HD
ATOM     20  H   LIG    1      -33.168  79.085  25.362  0.00  0.00    +0.145 HD
ENDBRANCH   6  18
ENDBRANCH   1  10
BRANCH   1  21
ATOM     21  C   LIG    1      -33.718  72.505  29.440  0.00  0.00    +0.042 A 
ATOM     22  C   LIG    1      -34.588  71.929  28.517  0.00  0.00    +0.038 A 
ATOM     23  C   LIG    1      -34.341  70.650  28.008  0.00  0.00    +0.052 A 
ATOM     24  C   LIG    1      -33.188  70.007  28.453  0.00  0.00    +0.134 A 
ATOM     25  N   LIG    1      -32.292  70.558  29.314  0.00  0.00    -0.261 NA
ATOM     26  C   LIG    1      -32.567  71.802  29.780  0.00  0.00    +0.122 A 
BRANCH  23  27
ATOM     27  N   LIG    1      -35.276  70.123  27.092  0.00  0.00    -0.283 N 
ATOM     28  H   LIG    1      -36.229  70.016  27.427  0.00  0.00    +0.155 HD
ATOM     29  C   LIG    1      -35.056  69.833  25.750  0.00  0.00    +0.239 C 
ATOM     30  O   LIG    1      -33.984  69.965  25.167  0.00  0.00    -0.273 OA
BRANCH  29  31
ATOM     31  C   LIG    1      -36.273  69.301  25.031  0.00  0.00    +0.239 C 
BRANCH  31  32
ATOM     32  N   LIG    1      -37.232  70.358  24.798  0.00  0.00    -0.261 N 
ATOM     33  N   LIG    1      -36.918  71.625  25.162  0.00  0.00    -0.171 NA
ATOM     34  C   LIG    1      -37.994  72.354  24.811  0.00  0.00    +0.093 A 
ATOM     35  C   LIG    1      -38.232  73.734  24.922  0.00  0.00    +0.030 A 
ATOM     36  C   LIG    1      -39.491  74.138  24.416  0.00  0.00    +0.002 A 
ATOM     37  C   LIG    1      -40.445  73.233  23.853  0.00  0.00    +0.001 A 
ATOM     38  C   LIG    1      -40.238  71.843  23.740  0.00  0.00    +0.011 A 
ATOM     39  C   LIG    1      -38.992  71.484  24.237  0.00  0.00    +0.020 A 
ATOM     40  C   LIG    1      -38.479  70.217  24.258  0.00  0.00    +0.117 A 
ENDBRANCH  31  32
ENDBRANCH  29  31
ENDBRANCH  23  27
ENDBRANCH   1  21
TORSDOF 9
ENDMDL
MODEL 2
REMARK VINA RESULT:      -6.1      1.843      3.087
REMARK  Name = pdb/CHEMBL3671427.pdb
REMARK                            x       y       z     vdW  Elec       q    Type
REMARK                         _______ _______ _______ _____ _____    ______ ____
ROOT
ATOM      1  C   LIG    1      -34.687  72.516  29.216  0.00  0.00    +0.197 C 
ATOM      2  O   LIG    1      -34.954  72.272  30.379  0.00  0.00    -0.287 OA
ENDROOT
BRANCH   1  10
ATOM      3  N   LIG    1      -33.755  75.936  28.187  0.00  0.00    -0.323 N 
ATOM      4  C   LIG    1      -35.015  75.837  27.631  0.00  0.00    +0.147 A 
ATOM      5  N   LIG    1      -35.638  76.789  26.921  0.00  0.00    -0.197 NA
ATOM      6  C   LIG    1      -36.845  76.435  26.474  0.00  0.00    +0.214 A 
ATOM      7  N   LIG    1      -37.456  75.266  26.700  0.00  0.00    -0.222 NA
ATOM      8  C   LIG    1      -36.803  74.317  27.412  0.00  0.00    +0.126 A 
ATOM      9  C   LIG    1      -35.537  74.584  27.926  0.00  0.00    +0.048 A 
ATOM     10  C   LIG    1      -34.573  73.892  28.717  0.00  0.00    +0.051 A 
ATOM     11  C   LIG    1      -33.507  74.762  28.872  0.00  0.00    +0.100 A 
BRANCH   3  13
ATOM     12  C   LIG    1      -31.537  76.782  28.843  0.00  0.00    +0.036 C 
ATOM     13  C   LIG    1      -32.791  77.047  27.986  0.00  0.00    +0.064 C 
ATOM     14  C   LIG    1      -33.372  78.414  28.432  0.00  0.00    +0.036 C 
BRANCH  13  15
ATOM     15  C   LIG    1      -32.340  77.195  26.505  0.00  0.00    +0.183 C 
BRANCH  15  16
ATOM     16  O   LIG    1      -32.880  78.367  25.896  0.00  0.00    -0.393 OA
ATOM     17  H   LIG    1      -33.347  78.063  25.093  0.00  0.00    +0.209 HD
ENDBRANCH  15  16
ENDBRANCH  13  15
ENDBRANCH   3  13
BRANCH   6  18
ATOM     18  N   LIG    1      -37.544  77.390  25.766  0.00  0.00    -0.327 N 
ATOM     19  H   LIG    1      -38.019  78.017  26.399  0.00  0.00    +0.145 HD
ATOM     20  H   LIG    1      -38.100  76.945  25.049  0.00  0.00    +0.145 HD
ENDBRANCH   6  18
ENDBRANCH   1  10
BRANCH   1  21
ATOM     21  C   LIG    1      -34.475  71.389  28.270  0.00  0.00    +0.042 A 
ATOM     22  C   LIG    1      -35.284  71.158  27.160  0.00  0.00    +0.038 A 
ATOM     23  C   LIG    1      -35.055  70.058  26.327  0.00  0.00    +0.052 A 
ATOM     24  C   LIG    1      -33.979  69.235  26.654  0.00  0.00    +0.134 A 
ATOM     25  N   LIG    1      -33.139  69.457  27.700  0.00  0.00    -0.261 NA
ATOM     26  C   LIG    1      -33.395  70.538  28.479  0.00  0.00    +0.122 A 
BRANCH  23  27
ATOM     27  N   LIG    1      -35.927  69.876  25.233  0.00  0.00    -0.283 N 
ATOM     28  H   LIG    1      -35.633  70.275  24.347  0.00  0.00    +0.155 HD
ATOM     29  C   LIG    1      -37.094  69.120  25.214  0.00  0.00    +0.239 C 
ATOM     30  O   LIG    1      -37.559  68.518  26.177  0.00  0.00    -0.273 OA
BRANCH  29  31
ATOM     31  C   LIG    1      -37.792  69.106  23.876  0.00  0.00    +0.239 C 
BRANCH  31  32
ATOM     32  N   LIG    1      -38.722  70.209  23.772  0.00  0.00    -0.261 N 
ATOM     33  N   LIG    1      -38.374  71.414  24.285  0.00  0.00    -0.171 NA
ATOM     34  C   LIG    1      -39.429  72.209  24.025  0.00  0.00    +0.093 A 
ATOM     35  C   LIG    1      -39.629  73.572  24.300  0.00  0.00    +0.030 A 
ATOM     36  C   LIG    1      -40.875  74.068  23.848  0.00  0.00    +0.002 A 
ATOM     37  C   LIG    1      -41.853  73.263  23.182  0.00  0.00    +0.001 A 
ATOM     38  C   LIG    1      -41.684  71.892  22.903  0.00  0.00    +0.011 A 
ATOM     39  C   LIG    1      -40.448  71.441  23.352  0.00  0.00    +0.020 A 
ATOM     40  C   LIG    1      -39.971  70.168  23.220  0.00  0.00    +0.117 A 
ENDBRANCH  31  32
ENDBRANCH  29  31
ENDBRANCH  23  27
ENDBRANCH   1  21
TORSDOF 9
ENDMDL
MODEL 3
REMARK VINA RESULT:      -6.1      2.036      2.948
REMARK  Name = pdb/CHEMBL3671427.pdb
REMARK                            x       y       z     vdW  Elec       q    Type
REMARK                         _______ _______ _______ _____ _____    ______ ____
ROOT
ATOM      1  C   LIG    1      -33.773  72.228  29.771  0.00  0.00    +0.197 C 
ATOM      2  O   LIG    1      -34.105  71.940  30.907  0.00  0.00    -0.287 OA
ENDROOT
BRANCH   1  10
ATOM      3  N   LIG    1      -33.171  75.644  28.511  0.00  0.00    -0.323 N 
ATOM      4  C   LIG    1      -32.135  75.520  29.414  0.00  0.00    +0.147 A 
ATOM      5  N   LIG    1      -31.213  76.456  29.687  0.00  0.00    -0.197 NA
ATOM      6  C   LIG    1      -30.329  76.095  30.619  0.00  0.00    +0.214 A 
ATOM      7  N   LIG    1      -30.283  74.913  31.245  0.00  0.00    -0.222 NA
ATOM      8  C   LIG    1      -31.230  73.987  30.959  0.00  0.00    +0.126 A 
ATOM      9  C   LIG    1      -32.201  74.263  29.999  0.00  0.00    +0.048 A 
ATOM     10  C   LIG    1      -33.305  73.574  29.416  0.00  0.00    +0.051 A 
ATOM     11  C   LIG    1      -33.858  74.446  28.495  0.00  0.00    +0.100 A 
BRANCH   3  13
ATOM     12  C   LIG    1      -33.673  78.040  28.786  0.00  0.00    +0.036 C 
ATOM     13  C   LIG    1      -33.556  76.878  27.780  0.00  0.00    +0.064 C 
ATOM     14  C   LIG    1      -34.932  76.739  27.077  0.00  0.00    +0.036 C 
BRANCH  13  15
ATOM     15  C   LIG    1      -32.520  77.285  26.692  0.00  0.00    +0.183 C 
BRANCH  15  16
ATOM     16  O   LIG    1      -32.635  78.660  26.332  0.00  0.00    -0.393 OA
ATOM     17  H   LIG    1      -31.971  79.135  26.869  0.00  0.00    +0.209 HD
ENDBRANCH  15  16
ENDBRANCH  13  15
ENDBRANCH   3  13
BRANCH   6  18
ATOM     18  N   LIG    1      -29.338  77.008  30.914  0.00  0.00    -0.327 N 
ATOM     19  H   LIG    1      -28.436  76.643  30.646  0.00  0.00    +0.145 HD
ATOM     20  H   LIG    1      -29.444  77.331  31.866  0.00  0.00    +0.145 HD
ENDBRANCH   6  18
ENDBRANCH   1  10
BRANCH   1  21
ATOM     21  C   LIG    1      -33.847  71.190  28.710  0.00  0.00    +0.042 A 
ATOM     22  C   LIG    1      -34.770  71.226  27.667  0.00  0.00    +0.038 A 
ATOM     23  C   LIG    1      -34.814  70.199  26.718  0.00  0.00    +0.052 A 
ATOM     24  C   LIG    1      -33.886  69.170  26.862  0.00  0.00    +0.134 A 
ATOM     25  N   LIG    1      -32.940  69.127  27.838  0.00  0.00    -0.261 NA
ATOM     26  C   LIG    1      -32.930  70.145  28.733  0.00  0.00    +0.122 A 
BRANCH  23  27
ATOM     27  N   LIG    1      -35.788  70.292  25.702  0.00  0.00    -0.283 N 
ATOM     28  H   LIG    1      -35.466  70.605  24.791  0.00  0.00    +0.155 HD
ATOM     29  C   LIG    1      -37.120  69.901  25.785  0.00  0.00    +0.239 C 
ATOM     30  O   LIG    1      -37.657  69.440  26.788  0.00  0.00    -0.273 OA
BRANCH  29  31
ATOM     31  C   LIG    1      -37.900  70.109  24.510  0.00  0.00    +0.239 C 
BRANCH  31  32
ATOM     32  N   LIG    1      -38.446  71.447  24.456  0.00  0.00    -0.261 N 
ATOM     33  N   LIG    1      -37.705  72.480  24.925  0.00  0.00    -0.171 NA
ATOM     34  C   LIG    1      -38.476  73.566  24.729  0.00  0.00    +0.093 A 
ATOM     35  C   LIG    1      -38.223  74.921  24.998  0.00  0.00    +0.030 A 
ATOM     36  C   LIG    1      -39.282  75.784  24.629  0.00  0.00    +0.002 A 
ATOM     37  C   LIG    1      -40.508  75.328  24.047  0.00  0.00    +0.001 A 
ATOM     38  C   LIG    1      -40.794  73.974  23.777  0.00  0.00    +0.011 A 
ATOM     39  C   LIG    1      -39.730  73.159  24.144  0.00  0.00    +0.020 A 
ATOM     40  C   LIG    1      -39.683  71.801  23.997  0.00  0.00    +0.117 A 
ENDBRANCH  31  32
ENDBRANCH  29  31
ENDBRANCH  23  27
ENDBRANCH   1  21
TORSDOF 9
ENDMDL
MODEL 4
REMARK VINA RESULT:      -5.9      2.600      3.246
REMARK  Name = pdb/CHEMBL3671427.pdb
REMARK                            x       y       z     vdW  Elec       q    Type
REMARK                         _______ _______ _______ _____ _____    ______ ____
ROOT
ATOM      1  C   LIG    1      -32.450  75.833  29.104  0.00  0.00    +0.197 C 
ATOM      2  O   LIG    1      -31.269  76.063  28.917  0.00  0.00    -0.287 OA
ENDROOT
BRANCH   1  10
ATOM      3  N   LIG    1      -34.936  78.182  30.490  0.00  0.00    -0.323 N 
ATOM      4  C   LIG    1      -34.580  78.843  29.332  0.00  0.00    +0.147 A 
ATOM      5  N   LIG    1      -35.065  80.023  28.919  0.00  0.00    -0.197 NA
ATOM      6  C   LIG    1      -34.537  80.459  27.773  0.00  0.00    +0.214 A 
ATOM      7  N   LIG    1      -33.627  79.818  27.031  0.00  0.00    -0.222 NA
ATOM      8  C   LIG    1      -33.144  78.632  27.474  0.00  0.00    +0.126 A 
ATOM      9  C   LIG    1      -33.629  78.086  28.660  0.00  0.00    +0.048 A 
ATOM     10  C   LIG    1      -33.410  76.899  29.419  0.00  0.00    +0.051 A 
ATOM     11  C   LIG    1      -34.245  76.986  30.520  0.00  0.00    +0.100 A 
BRANCH   3  13
ATOM     12  C   LIG    1      -35.965  77.630  32.659  0.00  0.00    +0.036 C 
ATOM     13  C   LIG    1      -35.809  78.710  31.569  0.00  0.00    +0.064 C 
ATOM     14  C   LIG    1      -37.232  79.054  31.057  0.00  0.00    +0.036 C 
BRANCH  13  15
ATOM     15  C   LIG    1      -35.235  79.991  32.239  0.00  0.00    +0.183 C 
BRANCH  15  16
ATOM     16  O   LIG    1      -34.013  79.733  32.928  0.00  0.00    -0.393 OA
ATOM     17  H   LIG    1      -33.385  80.420  32.630  0.00  0.00    +0.209 HD
ENDBRANCH  15  16
ENDBRANCH  13  15
ENDBRANCH   3  13
BRANCH   6  18
ATOM     18  N   LIG    1      -35.027  81.652  27.284  0.00  0.00    -0.327 N 
ATOM     19  H   LIG    1      -34.503  82.427  27.666  0.00  0.00    +0.145 HD
ATOM     20  H   LIG    1      -36.032  81.677  27.386  0.00  0.00    +0.145 HD
ENDBRANCH   6  18
ENDBRANCH   1  10
BRANCH   1  21
ATOM     21  C   LIG    1      -32.937  74.431  29.016  0.00  0.00    +0.042 A 
ATOM     22  C   LIG    1      -33.761  73.969  27.992  0.00  0.00    +0.038 A 
ATOM     23  C   LIG    1      -34.215  72.646  27.985  0.00  0.00    +0.052 A 
ATOM     24  C   LIG    1      -33.788  71.829  29.029  0.00  0.00    +0.134 A 
ATOM     25  N   LIG    1      -32.945  72.231  30.017  0.00  0.00    -0.261 NA
ATOM     26  C   LIG    1      -32.524  73.520  29.983  0.00  0.00    +0.122 A 
BRANCH  23  27
ATOM     27  N   LIG    1      -35.063  72.255  26.927  0.00  0.00    -0.283 N 
ATOM     28  H   LIG    1      -34.615  72.039  26.042  0.00  0.00    +0.155 HD
ATOM     29  C   LIG    1      -36.434  72.032  26.996  0.00  0.00    +0.239 C 
ATOM     30  O   LIG    1      -37.121  72.181  28.002  0.00  0.00    -0.273 OA
BRANCH  29  31
ATOM     31  C   LIG    1      -37.050  71.596  25.689  0.00  0.00    +0.239 C 
BRANCH  31  32
ATOM     32  N   LIG    1      -37.976  72.594  25.202  0.00  0.00    -0.261 N 
ATOM     33  N   LIG    1      -39.104  72.192  24.569  0.00  0.00    -0.171 NA
ATOM     34  C   LIG    1      -39.741  73.335  24.253  0.00  0.00    +0.093 A 
ATOM     35  C   LIG    1      -40.973  73.542  23.610  0.00  0.00    +0.030 A 
ATOM     36  C   LIG    1      -41.323  74.906  23.473  0.00  0.00    +0.002 A 
ATOM     37  C   LIG    1      -40.502  75.984  23.934  0.00  0.00    +0.001 A 
ATOM     38  C   LIG    1      -39.257  75.807  24.572  0.00  0.00    +0.011 A 
ATOM     39  C   LIG    1      -38.950  74.457  24.695  0.00  0.00    +0.020 A 
ATOM     40  C   LIG    1      -37.825  73.949  25.283  0.00  0.00    +0.117 A 
ENDBRANCH  31  32
ENDBRANCH  29  31
ENDBRANCH  23  27
ENDBRANCH   1  21
TORSDOF 9
ENDMDL
MODEL 5
REMARK VINA RESULT:      -5.7      7.984     11.051
REMARK  Name = pdb/CHEMBL3671427.pdb
REMARK                            x       y       z     vdW  Elec       q    Type
REMARK                         _______ _______ _______ _____ _____    ______ ____
ROOT
ATOM      1  C   LIG    1      -23.960  72.365  32.393  0.00  0.00    +0.197 C 
ATOM      2  O   LIG    1      -23.956  71.995  33.554  0.00  0.00    -0.287 OA
ENDROOT
BRANCH   1  10
ATOM      3  N   LIG    1      -21.982  75.329  31.433  0.00  0.00    -0.323 N 
ATOM      4  C   LIG    1      -23.262  75.792  31.203  0.00  0.00    +0.147 A 
ATOM      5  N   LIG    1      -23.587  77.010  30.747  0.00  0.00    -0.197 NA
ATOM      6  C   LIG    1      -24.899  77.201  30.588  0.00  0.00    +0.214 A 
ATOM      7  N   LIG    1      -25.863  76.316  30.868  0.00  0.00    -0.222 NA
ATOM      8  C   LIG    1      -25.509  75.089  31.319  0.00  0.00    +0.126 A 
ATOM      9  C   LIG    1      -24.165  74.786  31.520  0.00  0.00    +0.048 A 
ATOM     10  C   LIG    1      -23.415  73.667  31.990  0.00  0.00    +0.051 A 
ATOM     11  C   LIG    1      -22.085  74.048  31.942  0.00  0.00    +0.100 A 
BRANCH   3  13
ATOM     12  C   LIG    1      -19.546  75.036  31.215  0.00  0.00    +0.036 C 
ATOM     13  C   LIG    1      -20.720  76.028  31.085  0.00  0.00    +0.064 C 
ATOM     14  C   LIG    1      -20.425  77.216  32.038  0.00  0.00    +0.036 C 
BRANCH  13  15
ATOM     15  C   LIG    1      -20.718  76.587  29.633  0.00  0.00    +0.183 C 
BRANCH  15  16
ATOM     16  O   LIG    1      -20.965  77.992  29.601  0.00  0.00    -0.393 OA
ATOM     17  H   LIG    1      -20.087  78.420  29.622  0.00  0.00    +0.209 HD
ENDBRANCH  15  16
ENDBRANCH  13  15
ENDBRANCH   3  13
BRANCH   6  18
ATOM     18  N   LIG    1      -25.291  78.450  30.153  0.00  0.00    -0.327 N 
ATOM     19  H   LIG    1      -26.037  78.804  30.734  0.00  0.00    +0.145 HD
ATOM     20  H   LIG    1      -25.449  78.430  29.155  0.00  0.00    +0.145 HD
ENDBRANCH   6  18
ENDBRANCH   1  10
BRANCH   1  21
ATOM     21  C   LIG    1      -24.540  71.475  31.353  0.00  0.00    +0.042 A 
ATOM     22  C   LIG    1      -25.910  71.294  31.176  0.00  0.00    +0.038 A 
ATOM     23  C   LIG    1      -26.392  70.414  30.202  0.00  0.00    +0.052 A 
ATOM     24  C   LIG    1      -25.443  69.758  29.421  0.00  0.00    +0.134 A 
ATOM     25  N   LIG    1      -24.101  69.947  29.532  0.00  0.00    -0.261 NA
ATOM     26  C   LIG    1      -23.677  70.813  30.486  0.00  0.00    +0.122 A 
BRANCH  23  27
ATOM     27  N   LIG    1      -27.792  70.266  30.094  0.00  0.00    -0.283 N 
ATOM     28  H   LIG    1      -28.218  70.598  29.234  0.00  0.00    +0.155 HD
ATOM     29  C   LIG    1      -28.634  69.620  30.992  0.00  0.00    +0.239 C 
ATOM     30  O   LIG    1      -28.276  69.106  32.047  0.00  0.00    -0.273 OA
BRANCH  29  31
ATOM     31  C   LIG    1      -30.084  69.613  30.575  0.00  0.00    +0.239 C 
BRANCH  31  32
ATOM     32  N   LIG    1      -30.569  70.962  30.385  0.00  0.00    -0.261 N 
ATOM     33  N   LIG    1      -29.976  71.976  31.059  0.00  0.00    -0.171 NA
ATOM     34  C   LIG    1      -30.641  73.079  30.666  0.00  0.00    +0.093 A 
ATOM     35  C   LIG    1      -30.452  74.427  31.013  0.00  0.00    +0.030 A 
ATOM     36  C   LIG    1      -31.347  75.313  30.368  0.00  0.00    +0.002 A 
ATOM     37  C   LIG    1      -32.362  74.886  29.454  0.00  0.00    +0.001 A 
ATOM     38  C   LIG    1      -32.581  73.541  29.095  0.00  0.00    +0.011 A 
ATOM     39  C   LIG    1      -31.681  72.701  29.740  0.00  0.00    +0.020 A 
ATOM     40  C   LIG    1      -31.617  71.344  29.595  0.00  0.00    +0.117 A 
ENDBRANCH  31  32
ENDBRANCH  29  31
ENDBRANCH  23  27
ENDBRANCH   1  21
TORSDOF 9
ENDMDL
MODEL 6
REMARK VINA RESULT:      -5.7      5.319      9.739
REMARK  Name = pdb/CHEMBL3671427.pdb
REMARK                            x       y       z     vdW  Elec       q    Type
REMARK                         _______ _______ _______ _____ _____    ______ ____
ROOT
ATOM      1  C   LIG    1      -38.047  68.458  20.952  0.00  0.00    +0.197 C 
ATOM      2  O   LIG    1      -37.534  68.678  19.869  0.00  0.00    -0.287 OA
ENDROOT
BRANCH   1  10
ATOM      3  N   LIG    1      -36.201  68.331  24.145  0.00  0.00    -0.323 N 
ATOM      4  C   LIG    1      -36.067  67.024  23.722  0.00  0.00    +0.147 A 
ATOM      5  N   LIG    1      -35.422  66.047  24.377  0.00  0.00    -0.197 NA
ATOM      6  C   LIG    1      -35.459  64.862  23.763  0.00  0.00    +0.214 A 
ATOM      7  N   LIG    1      -36.038  64.603  22.585  0.00  0.00    -0.222 NA
ATOM      8  C   LIG    1      -36.692  65.603  21.947  0.00  0.00    +0.126 A 
ATOM      9  C   LIG    1      -36.715  66.881  22.502  0.00  0.00    +0.048 A 
ATOM     10  C   LIG    1      -37.246  68.155  22.145  0.00  0.00    +0.051 A 
ATOM     11  C   LIG    1      -36.890  69.019  23.166  0.00  0.00    +0.100 A 
BRANCH   3  13
ATOM     12  C   LIG    1      -34.271  68.663  25.639  0.00  0.00    +0.036 C 
ATOM     13  C   LIG    1      -35.789  68.873  25.464  0.00  0.00    +0.064 C 
ATOM     14  C   LIG    1      -36.491  68.147  26.642  0.00  0.00    +0.036 C 
BRANCH  13  15
ATOM     15  C   LIG    1      -36.085  70.392  25.614  0.00  0.00    +0.183 C 
BRANCH  15  16
ATOM     16  O   LIG    1      -34.964  71.195  25.248  0.00  0.00    -0.393 OA
ATOM     17  H   LIG    1      -35.059  71.369  24.291  0.00  0.00    +0.209 HD
ENDBRANCH  15  16
ENDBRANCH  13  15
ENDBRANCH   3  13
BRANCH   6  18
ATOM     18  N   LIG    1      -34.781  63.830  24.377  0.00  0.00    -0.327 N 
ATOM     19  H   LIG    1      -34.236  64.181  25.151  0.00  0.00    +0.145 HD
ATOM     20  H   LIG    1      -34.298  63.277  23.682  0.00  0.00    +0.145 HD
ENDBRANCH   6  18
ENDBRANCH   1  10
BRANCH   1  21
ATOM     21  C   LIG    1      -39.529  68.491  21.071  0.00  0.00    +0.042 A 
ATOM     22  C   LIG    1      -40.235  69.595  21.543  0.00  0.00    +0.038 A 
ATOM     23  C   LIG    1      -41.627  69.551  21.665  0.00  0.00    +0.052 A 
ATOM     24  C   LIG    1      -42.256  68.370  21.277  0.00  0.00    +0.134 A 
ATOM     25  N   LIG    1      -41.605  67.292  20.767  0.00  0.00    -0.261 NA
ATOM     26  C   LIG    1      -40.255  67.379  20.660  0.00  0.00    +0.122 A 
BRANCH  23  27
ATOM     27  N   LIG    1      -42.273  70.701  22.169  0.00  0.00    -0.283 N 
ATOM     28  H   LIG    1      -42.320  70.788  23.180  0.00  0.00    +0.155 HD
ATOM     29  C   LIG    1      -42.757  71.776  21.432  0.00  0.00    +0.239 C 
ATOM     30  O   LIG    1      -42.721  71.864  20.209  0.00  0.00    -0.273 OA
BRANCH  29  31
ATOM     31  C   LIG    1      -43.375  72.866  22.274  0.00  0.00    +0.239 C 
BRANCH  31  32
ATOM     32  N   LIG    1      -42.352  73.710  22.851  0.00  0.00    -0.261 N 
ATOM     33  N   LIG    1      -41.266  73.133  23.419  0.00  0.00    -0.171 NA
ATOM     34  C   LIG    1      -40.518  74.168  23.846  0.00  0.00    +0.093 A 
ATOM     35  C   LIG    1      -39.268  74.182  24.488  0.00  0.00    +0.030 A 
ATOM     36  C   LIG    1      -38.784  75.483  24.764  0.00  0.00    +0.002 A 
ATOM     37  C   LIG    1      -39.497  76.679  24.436  0.00  0.00    +0.001 A 
ATOM     38  C   LIG    1      -40.756  76.695  23.803  0.00  0.00    +0.011 A 
ATOM     39  C   LIG    1      -41.197  75.403  23.539  0.00  0.00    +0.020 A 
ATOM     40  C   LIG    1      -42.369  75.074  22.919  0.00  0.00    +0.117 A 
ENDBRANCH  31  32
ENDBRANCH  29  31
ENDBRANCH  23  27
ENDBRANCH   1  21
TORSDOF 9
ENDMDL
MODEL 7
REMARK VINA RESULT:      -5.7     11.435     16.173
REMARK  Name = pdb/CHEMBL3671427.pdb
REMARK                            x       y       z     vdW  Elec       q    Type
REMARK                         _______ _______ _______ _____ _____    ______ ____
ROOT
ATOM      1  C   LIG    1      -21.508  76.441  29.942  0.00  0.00    +0.197 C 
ATOM      2  O   LIG    1      -21.435  76.480  28.727  0.00  0.00    -0.287 OA
ENDROOT
BRANCH   1  10
ATOM      3  N   LIG    1      -23.914  74.420  31.877  0.00  0.00    -0.323 N 
ATOM      4  C   LIG    1      -24.700  75.506  31.550  0.00  0.00    +0.147 A 
ATOM      5  N   LIG    1      -25.984  75.681  31.898  0.00  0.00    -0.197 NA
ATOM      6  C   LIG    1      -26.511  76.832  31.473  0.00  0.00    +0.214 A 
ATOM      7  N   LIG    1      -25.889  77.760  30.737  0.00  0.00    -0.222 NA
ATOM      8  C   LIG    1      -24.590  77.564  30.405  0.00  0.00    +0.126 A 
ATOM      9  C   LIG    1      -23.943  76.395  30.798  0.00  0.00    +0.048 A 
ATOM     10  C   LIG    1      -22.647  75.823  30.632  0.00  0.00    +0.051 A 
ATOM     11  C   LIG    1      -22.678  74.605  31.289  0.00  0.00    +0.100 A 
BRANCH   3  13
ATOM     12  C   LIG    1      -23.054  72.408  33.010  0.00  0.00    +0.036 C 
ATOM     13  C   LIG    1      -24.284  73.313  32.794  0.00  0.00    +0.064 C 
ATOM     14  C   LIG    1      -25.413  72.422  32.212  0.00  0.00    +0.036 C 
BRANCH  13  15
ATOM     15  C   LIG    1      -24.762  73.815  34.187  0.00  0.00    +0.183 C 
BRANCH  15  16
ATOM     16  O   LIG    1      -26.184  73.800  34.302  0.00  0.00    -0.393 OA
ATOM     17  H   LIG    1      -26.407  74.479  34.968  0.00  0.00    +0.209 HD
ENDBRANCH  15  16
ENDBRANCH  13  15
ENDBRANCH   3  13
BRANCH   6  18
ATOM     18  N   LIG    1      -27.840  77.048  31.775  0.00  0.00    -0.327 N 
ATOM     19  H   LIG    1      -28.347  77.321  30.946  0.00  0.00    +0.145 HD
ATOM     20  H   LIG    1      -27.913  77.650  32.584  0.00  0.00    +0.145 HD
ENDBRANCH   6  18
ENDBRANCH   1  10
BRANCH   1  21
ATOM     21  C   LIG    1      -20.415  77.042  30.752  0.00  0.00    +0.042 A 
ATOM     22  C   LIG    1      -20.642  77.898  31.828  0.00  0.00    +0.038 A 
ATOM     23  C   LIG    1      -19.570  78.459  32.529  0.00  0.00    +0.052 A 
ATOM     24  C   LIG    1      -18.289  78.104  32.111  0.00  0.00    +0.134 A 
ATOM     25  N   LIG    1      -18.032  77.234  31.098  0.00  0.00    -0.261 NA
ATOM     26  C   LIG    1      -19.100  76.709  30.448  0.00  0.00    +0.122 A 
BRANCH  23  27
ATOM     27  N   LIG    1      -19.875  79.333  33.594  0.00  0.00    -0.283 N 
ATOM     28  H   LIG    1      -20.316  80.214  33.346  0.00  0.00    +0.155 HD
ATOM     29  C   LIG    1      -19.734  79.073  34.953  0.00  0.00    +0.239 C 
ATOM     30  O   LIG    1      -19.281  78.036  35.428  0.00  0.00    -0.273 OA
BRANCH  29  31
ATOM     31  C   LIG    1      -20.174  80.210  35.843  0.00  0.00    +0.239 C 
BRANCH  31  32
ATOM     32  N   LIG    1      -21.607  80.177  36.044  0.00  0.00    -0.261 N 
ATOM     33  N   LIG    1      -22.343  79.250  35.386  0.00  0.00    -0.171 NA
ATOM     34  C   LIG    1      -23.608  79.477  35.787  0.00  0.00    +0.093 A 
ATOM     35  C   LIG    1      -24.800  78.810  35.456  0.00  0.00    +0.030 A 
ATOM     36  C   LIG    1      -25.945  79.332  36.103  0.00  0.00    +0.002 A 
ATOM     37  C   LIG    1      -25.906  80.444  37.004  0.00  0.00    +0.001 A 
ATOM     38  C   LIG    1      -24.728  81.138  37.345  0.00  0.00    +0.011 A 
ATOM     39  C   LIG    1      -23.625  80.594  36.699  0.00  0.00    +0.020 A 
ATOM     40  C   LIG    1      -22.335  81.026  36.829  0.00  0.00    +0.117 A 
ENDBRANCH  31  32
ENDBRANCH  29  31
ENDBRANCH  23  27
ENDBRANCH   1  21
TORSDOF 9
ENDMDL
MODEL 8
REMARK VINA RESULT:      -5.6      2.292      8.610
REMARK  Name = pdb/CHEMBL3671427.pdb
REMARK                            x       y       z     vdW  Elec       q    Type
REMARK                         _______ _______ _______ _____ _____    ______ ____
ROOT
ATOM      1  C   LIG    1      -39.114  72.067  25.395  0.00  0.00    +0.197 C 
ATOM      2  O   LIG    1      -40.259  71.655  25.446  0.00  0.00    -0.287 OA
ENDROOT
BRANCH   1  10
ATOM      3  N   LIG    1      -36.263  69.987  26.473  0.00  0.00    -0.323 N 
ATOM      4  C   LIG    1      -36.363  69.614  25.148  0.00  0.00    +0.147 A 
ATOM      5  N   LIG    1      -35.584  68.720  24.522  0.00  0.00    -0.197 NA
ATOM      6  C   LIG    1      -35.904  68.519  23.242  0.00  0.00    +0.214 A 
ATOM      7  N   LIG    1      -36.879  69.140  22.567  0.00  0.00    -0.222 NA
ATOM      8  C   LIG    1      -37.659  70.032  23.224  0.00  0.00    +0.126 A 
ATOM      9  C   LIG    1      -37.410  70.315  24.564  0.00  0.00    +0.048 A 
ATOM     10  C   LIG    1      -37.959  71.176  25.560  0.00  0.00    +0.051 A 
ATOM     11  C   LIG    1      -37.215  70.960  26.707  0.00  0.00    +0.100 A 
BRANCH   3  13
ATOM     12  C   LIG    1      -35.637  70.050  28.855  0.00  0.00    +0.036 C 
ATOM     13  C   LIG    1      -35.378  69.372  27.494  0.00  0.00    +0.064 C 
ATOM     14  C   LIG    1      -33.875  69.568  27.163  0.00  0.00    +0.036 C 
BRANCH  13  15
ATOM     15  C   LIG    1      -35.619  67.845  27.663  0.00  0.00    +0.183 C 
BRANCH  15  16
ATOM     16  O   LIG    1      -34.660  67.069  26.947  0.00  0.00    -0.393 OA
ATOM     17  H   LIG    1      -34.582  67.483  26.066  0.00  0.00    +0.209 HD
ENDBRANCH  15  16
ENDBRANCH  13  15
ENDBRANCH   3  13
BRANCH   6  18
ATOM     18  N   LIG    1      -35.112  67.634  22.540  0.00  0.00    -0.327 N 
ATOM     19  H   LIG    1      -35.598  67.305  21.719  0.00  0.00    +0.145 HD
ATOM     20  H   LIG    1      -34.739  66.936  23.170  0.00  0.00    +0.145 HD
ENDBRANCH   6  18
ENDBRANCH   1  10
BRANCH   1  21
ATOM     21  C   LIG    1      -38.876  73.517  25.163  0.00  0.00    +0.042 A 
ATOM     22  C   LIG    1      -37.776  74.203  25.673  0.00  0.00    +0.038 A 
ATOM     23  C   LIG    1      -37.627  75.575  25.450  0.00  0.00    +0.052 A 
ATOM     24  C   LIG    1      -38.611  76.199  24.687  0.00  0.00    +0.134 A 
ATOM     25  N   LIG    1      -39.671  75.553  24.133  0.00  0.00    -0.261 NA
ATOM     26  C   LIG    1      -39.775  74.221  24.370  0.00  0.00    +0.122 A 
BRANCH  23  27
ATOM     27  N   LIG    1      -36.498  76.208  26.014  0.00  0.00    -0.283 N 
ATOM     28  H   LIG    1      -35.677  76.284  25.422  0.00  0.00    +0.155 HD
ATOM     29  C   LIG    1      -36.425  76.830  27.255  0.00  0.00    +0.239 C 
ATOM     30  O   LIG    1      -37.342  76.889  28.069  0.00  0.00    -0.273 OA
BRANCH  29  31
ATOM     31  C   LIG    1      -35.077  77.437  27.557  0.00  0.00    +0.239 C 
BRANCH  31  32
ATOM     32  N   LIG    1      -34.181  76.445  28.111  0.00  0.00    -0.261 N 
ATOM     33  N   LIG    1      -34.482  75.132  27.965  0.00  0.00    -0.171 NA
ATOM     34  C   LIG    1      -33.469  74.484  28.572  0.00  0.00    +0.093 A 
ATOM     35  C   LIG    1      -33.228  73.108  28.716  0.00  0.00    +0.030 A 
ATOM     36  C   LIG    1      -32.030  72.808  29.407  0.00  0.00    +0.002 A 
ATOM     37  C   LIG    1      -31.144  73.806  29.925  0.00  0.00    +0.001 A 
ATOM     38  C   LIG    1      -31.367  75.193  29.805  0.00  0.00    +0.011 A 
ATOM     39  C   LIG    1      -32.546  75.450  29.116  0.00  0.00    +0.020 A 
ATOM     40  C   LIG    1      -33.037  76.689  28.817  0.00  0.00    +0.117 A 
ENDBRANCH  31  32
ENDBRANCH  29  31
ENDBRANCH  23  27
ENDBRANCH   1  21
TORSDOF 9
ENDMDL
MODEL 9
REMARK VINA RESULT:      -5.6      2.900      4.593
REMARK  Name = pdb/CHEMBL3671427.pdb
REMARK                            x       y       z     vdW  Elec       q    Type
REMARK                         _______ _______ _______ _____ _____    ______ ____
ROOT
ATOM      1  C   LIG    1      -35.016  72.547  28.796  0.00  0.00    +0.197 C 
ATOM      2  O   LIG    1      -35.236  72.212  29.946  0.00  0.00    -0.287 OA
ENDROOT
BRANCH   1  10
ATOM      3  N   LIG    1      -33.972  75.997  28.002  0.00  0.00    -0.323 N 
ATOM      4  C   LIG    1      -35.273  76.012  27.542  0.00  0.00    +0.147 A 
ATOM      5  N   LIG    1      -35.893  77.056  26.970  0.00  0.00    -0.197 NA
ATOM      6  C   LIG    1      -37.147  76.804  26.591  0.00  0.00    +0.214 A 
ATOM      7  N   LIG    1      -37.806  75.651  26.761  0.00  0.00    -0.222 NA
ATOM      8  C   LIG    1      -37.156  74.609  27.332  0.00  0.00    +0.126 A 
ATOM      9  C   LIG    1      -35.841  74.765  27.765  0.00  0.00    +0.048 A 
ATOM     10  C   LIG    1      -34.862  73.956  28.413  0.00  0.00    +0.051 A 
ATOM     11  C   LIG    1      -33.740  74.754  28.559  0.00  0.00    +0.100 A 
BRANCH   3  13
ATOM     12  C   LIG    1      -31.741  76.764  28.709  0.00  0.00    +0.036 C 
ATOM     13  C   LIG    1      -32.964  77.072  27.823  0.00  0.00    +0.064 C 
ATOM     14  C   LIG    1      -33.506  78.460  28.255  0.00  0.00    +0.036 C 
BRANCH  13  15
ATOM     15  C   LIG    1      -32.473  77.203  26.353  0.00  0.00    +0.183 C 
BRANCH  15  16
ATOM     16  O   LIG    1      -32.675  78.518  25.837  0.00  0.00    -0.393 OA
ATOM     17  H   LIG    1      -32.472  78.466  24.882  0.00  0.00    +0.209 HD
ENDBRANCH  15  16
ENDBRANCH  13  15
ENDBRANCH   3  13
BRANCH   6  18
ATOM     18  N   LIG    1      -37.843  77.854  26.028  0.00  0.00    -0.327 N 
ATOM     19  H   LIG    1      -37.259  78.344  25.365  0.00  0.00    +0.145 HD
ATOM     20  H   LIG    1      -38.281  78.402  26.755  0.00  0.00    +0.145 HD
ENDBRANCH   6  18
ENDBRANCH   1  10
BRANCH   1  21
ATOM     21  C   LIG    1      -34.903  71.500  27.746  0.00  0.00    +0.042 A 
ATOM     22  C   LIG    1      -35.772  71.408  26.660  0.00  0.00    +0.038 A 
ATOM     23  C   LIG    1      -35.637  70.378  25.725  0.00  0.00    +0.052 A 
ATOM     24  C   LIG    1      -34.591  69.480  25.925  0.00  0.00    +0.134 A 
ATOM     25  N   LIG    1      -33.695  69.567  26.944  0.00  0.00    -0.261 NA
ATOM     26  C   LIG    1      -33.860  70.584  27.826  0.00  0.00    +0.122 A 
BRANCH  23  27
ATOM     27  N   LIG    1      -36.565  70.337  24.663  0.00  0.00    -0.283 N 
ATOM     28  H   LIG    1      -36.293  70.804  23.803  0.00  0.00    +0.155 HD
ATOM     29  C   LIG    1      -37.766  69.636  24.632  0.00  0.00    +0.239 C 
ATOM     30  O   LIG    1      -38.214  68.967  25.558  0.00  0.00    -0.273 OA
BRANCH  29  31
ATOM     31  C   LIG    1      -38.523  69.776  23.334  0.00  0.00    +0.239 C 
BRANCH  31  32
ATOM     32  N   LIG    1      -37.865  69.043  22.275  0.00  0.00    -0.261 N 
ATOM     33  N   LIG    1      -36.803  68.259  22.578  0.00  0.00    -0.171 NA
ATOM     34  C   LIG    1      -36.432  67.722  21.401  0.00  0.00    +0.093 A 
ATOM     35  C   LIG    1      -35.406  66.810  21.101  0.00  0.00    +0.030 A 
ATOM     36  C   LIG    1      -35.338  66.458  19.732  0.00  0.00    +0.002 A 
ATOM     37  C   LIG    1      -36.221  66.983  18.735  0.00  0.00    +0.001 A 
ATOM     38  C   LIG    1      -37.251  67.906  19.005  0.00  0.00    +0.011 A 
ATOM     39  C   LIG    1      -37.293  68.223  20.358  0.00  0.00    +0.020 A 
ATOM     40  C   LIG    1      -38.185  69.074  20.947  0.00  0.00    +0.117 A 
ENDBRANCH  31  32
ENDBRANCH  29  31
ENDBRANCH  23  27
ENDBRANCH   1  21
TORSDOF 9
ENDMDL
