MODEL 1
REMARK VINA RESULT:      -6.6      0.000      0.000
REMARK  Name = pdb/CHEMBL3961646.pdb
REMARK                            x       y       z     vdW  Elec       q    Type
REMARK                         _______ _______ _______ _____ _____    ______ ____
ROOT
ATOM      1  C   LIG    1      -31.589  74.679  29.849  0.00  0.00    +0.149 A 
ATOM      2  N   LIG    1      -31.627  75.966  29.480  0.00  0.00    -0.160 NA
ATOM      3  N   LIG    1      -32.756  76.104  28.749  0.00  0.00    -0.218 N 
ATOM      4  C   LIG    1      -33.374  74.864  28.529  0.00  0.00    +0.129 A 
ATOM      5  C   LIG    1      -32.636  73.950  29.249  0.00  0.00    +0.078 A 
ENDROOT
BRANCH   3   6
ATOM      6  C   LIG    1      -33.125  77.411  28.309  0.00  0.00    +0.067 A 
ATOM      7  C   LIG    1      -32.390  78.023  27.274  0.00  0.00    +0.028 A 
ATOM      8  C   LIG    1      -32.724  79.306  26.829  0.00  0.00    +0.002 A 
ATOM      9  C   LIG    1      -33.763  80.004  27.436  0.00  0.00    +0.000 A 
ATOM     10  C   LIG    1      -34.477  79.416  28.478  0.00  0.00    +0.002 A 
ATOM     11  C   LIG    1      -34.166  78.123  28.912  0.00  0.00    +0.028 A 
ENDBRANCH   3   6
BRANCH   4  12
ATOM     12  N   LIG    1      -34.472  74.556  27.724  0.00  0.00    -0.266 N 
ATOM     13  H   LIG    1      -34.291  74.100  26.835  0.00  0.00    +0.157 HD
ATOM     14  C   LIG    1      -35.845  74.705  28.122  0.00  0.00    +0.251 C 
ATOM     15  O   LIG    1      -36.147  75.125  29.247  0.00  0.00    -0.270 OA
BRANCH  14  16
ATOM     16  C   LIG    1      -36.893  74.347  27.147  0.00  0.00    +0.056 A 
ATOM     17  C   LIG    1      -37.187  73.032  26.779  0.00  0.00    +0.054 A 
ATOM     18 CL   LIG    1      -36.374  71.652  27.423  0.00  0.00    -0.083 Cl
ATOM     19  C   LIG    1      -38.173  72.788  25.828  0.00  0.00    +0.041 A 
ATOM     20  C   LIG    1      -38.866  73.841  25.208  0.00  0.00    +0.052 A 
ATOM     21 CL   LIG    1      -39.878  73.348  23.894  0.00  0.00    -0.083 Cl
ATOM     22  C   LIG    1      -38.643  75.182  25.580  0.00  0.00    +0.022 A 
ATOM     23  C   LIG    1      -37.638  75.394  26.562  0.00  0.00    +0.026 A 
BRANCH  22  24
ATOM     24  C   LIG    1      -39.316  76.371  24.987  0.00  0.00    +0.107 A 
ATOM     25  C   LIG    1      -38.740  77.272  24.086  0.00  0.00    +0.149 A 
ATOM     26  F   LIG    1      -37.517  77.084  23.576  0.00  0.00    -0.203 F 
ATOM     27  C   LIG    1      -39.464  78.376  23.641  0.00  0.00    +0.042 A 
ATOM     28  C   LIG    1      -40.783  78.530  24.038  0.00  0.00    +0.023 A 
ATOM     29  C   LIG    1      -41.321  77.570  24.875  0.00  0.00    +0.111 A 
ATOM     30  N   LIG    1      -40.621  76.517  25.366  0.00  0.00    -0.252 NA
ENDBRANCH  22  24
ENDBRANCH  14  16
ENDBRANCH   4  12
BRANCH   1  31
ATOM     31  C   LIG    1      -30.552  74.152  30.724  0.00  0.00    +0.236 C 
ATOM     32  N   LIG    1      -29.862  74.953  31.453  0.00  0.00    -0.241 NA
BRANCH  31  33
ATOM     33  O   LIG    1      -30.442  72.806  30.698  0.00  0.00    -0.491 OA
ATOM     34  H   LIG    1      -30.309  72.483  29.796  0.00  0.00    +0.294 HD
ENDBRANCH  31  33
BRANCH  32  35
ATOM     35  C   LIG    1      -28.818  74.458  32.353  0.00  0.00    +0.221 C 
BRANCH  35  36
ATOM     36  C   LIG    1      -27.469  74.934  31.955  0.00  0.00    +0.146 A 
ATOM     37  C   LIG    1      -26.225  74.364  31.819  0.00  0.00    +0.157 A 
ATOM     38  N   LIG    1      -25.319  75.310  31.399  0.00  0.00    -0.224 NA
ATOM     39  C   LIG    1      -26.033  76.404  31.296  0.00  0.00    +0.308 A 
ATOM     40  O   LIG    1      -27.335  76.262  31.643  0.00  0.00    -0.446 OA
ENDBRANCH  35  36
ENDBRANCH  32  35
ENDBRANCH   1  31
TORSDOF 8
ENDMDL
MODEL 2
REMARK VINA RESULT:      -6.6      6.735     13.398
REMARK  Name = pdb/CHEMBL3961646.pdb
REMARK                            x       y       z     vdW  Elec       q    Type
REMARK                         _______ _______ _______ _____ _____    ______ ____
ROOT
ATOM      1  C   LIG    1      -29.782  75.983  31.288  0.00  0.00    +0.149 A 
ATOM      2  N   LIG    1      -29.302  74.734  31.357  0.00  0.00    -0.160 NA
ATOM      3  N   LIG    1      -28.102  74.837  31.972  0.00  0.00    -0.218 N 
ATOM      4  C   LIG    1      -27.747  76.180  32.171  0.00  0.00    +0.129 A 
ATOM      5  C   LIG    1      -28.832  76.916  31.749  0.00  0.00    +0.078 A 
ENDROOT
BRANCH   3   6
ATOM      6  C   LIG    1      -27.395  73.638  32.290  0.00  0.00    +0.067 A 
ATOM      7  C   LIG    1      -26.152  73.387  31.675  0.00  0.00    +0.028 A 
ATOM      8  C   LIG    1      -25.443  72.217  31.961  0.00  0.00    +0.002 A 
ATOM      9  C   LIG    1      -25.982  71.271  32.827  0.00  0.00    +0.000 A 
ATOM     10  C   LIG    1      -27.223  71.500  33.418  0.00  0.00    +0.002 A 
ATOM     11  C   LIG    1      -27.927  72.680  33.157  0.00  0.00    +0.028 A 
ENDBRANCH   3   6
BRANCH   4  12
ATOM     12  N   LIG    1      -26.548  76.714  32.646  0.00  0.00    -0.266 N 
ATOM     13  H   LIG    1      -26.399  76.717  33.650  0.00  0.00    +0.157 HD
ATOM     14  C   LIG    1      -25.450  77.126  31.815  0.00  0.00    +0.251 C 
ATOM     15  O   LIG    1      -25.502  77.022  30.582  0.00  0.00    -0.270 OA
BRANCH  14  16
ATOM     16  C   LIG    1      -24.254  77.685  32.472  0.00  0.00    +0.056 A 
ATOM     17  C   LIG    1      -22.953  77.248  32.208  0.00  0.00    +0.054 A 
ATOM     18 CL   LIG    1      -22.572  76.006  31.071  0.00  0.00    -0.083 Cl
ATOM     19  C   LIG    1      -21.884  77.813  32.897  0.00  0.00    +0.041 A 
ATOM     20  C   LIG    1      -22.086  78.801  33.875  0.00  0.00    +0.052 A 
ATOM     21 CL   LIG    1      -20.668  79.204  34.779  0.00  0.00    -0.083 Cl
ATOM     22  C   LIG    1      -23.373  79.312  34.143  0.00  0.00    +0.022 A 
ATOM     23  C   LIG    1      -24.439  78.721  33.413  0.00  0.00    +0.026 A 
BRANCH  22  24
ATOM     24  C   LIG    1      -23.699  80.352  35.159  0.00  0.00    +0.107 A 
ATOM     25  C   LIG    1      -22.926  81.479  35.450  0.00  0.00    +0.149 A 
ATOM     26  F   LIG    1      -21.833  81.795  34.745  0.00  0.00    -0.203 F 
ATOM     27  C   LIG    1      -23.317  82.354  36.461  0.00  0.00    +0.042 A 
ATOM     28  C   LIG    1      -24.517  82.138  37.121  0.00  0.00    +0.023 A 
ATOM     29  C   LIG    1      -25.274  81.045  36.742  0.00  0.00    +0.111 A 
ATOM     30  N   LIG    1      -24.888  80.148  35.800  0.00  0.00    -0.252 NA
ENDBRANCH  22  24
ENDBRANCH  14  16
ENDBRANCH   4  12
BRANCH   1  31
ATOM     31  C   LIG    1      -31.105  76.277  30.756  0.00  0.00    +0.236 C 
ATOM     32  N   LIG    1      -31.350  76.093  29.509  0.00  0.00    -0.241 NA
BRANCH  31  33
ATOM     33  O   LIG    1      -31.987  76.706  31.685  0.00  0.00    -0.491 OA
ATOM     34  H   LIG    1      -32.009  77.672  31.729  0.00  0.00    +0.294 HD
ENDBRANCH  31  33
BRANCH  32  35
ATOM     35  C   LIG    1      -32.671  76.369  28.942  0.00  0.00    +0.221 C 
BRANCH  35  36
ATOM     36  C   LIG    1      -32.612  77.387  27.863  0.00  0.00    +0.146 A 
ATOM     37  C   LIG    1      -32.249  77.396  26.537  0.00  0.00    +0.157 A 
ATOM     38  N   LIG    1      -32.411  78.658  26.014  0.00  0.00    -0.224 NA
ATOM     39  C   LIG    1      -32.860  79.360  27.026  0.00  0.00    +0.308 A 
ATOM     40  O   LIG    1      -32.980  78.668  28.184  0.00  0.00    -0.446 OA
ENDBRANCH  35  36
ENDBRANCH  32  35
ENDBRANCH   1  31
TORSDOF 8
ENDMDL
MODEL 3
REMARK VINA RESULT:      -6.5     17.321     19.805
REMARK  Name = pdb/CHEMBL3961646.pdb
REMARK                            x       y       z     vdW  Elec       q    Type
REMARK                         _______ _______ _______ _____ _____    ______ ____
ROOT
ATOM      1  C   LIG    1      -26.225  77.683  14.060  0.00  0.00    +0.149 A 
ATOM      2  N   LIG    1      -24.999  77.665  14.601  0.00  0.00    -0.160 NA
ATOM      3  N   LIG    1      -24.557  78.942  14.545  0.00  0.00    -0.218 N 
ATOM      4  C   LIG    1      -25.450  79.758  13.834  0.00  0.00    +0.129 A 
ATOM      5  C   LIG    1      -26.529  78.956  13.537  0.00  0.00    +0.078 A 
ENDROOT
BRANCH   3   6
ATOM      6  C   LIG    1      -23.307  79.256  15.158  0.00  0.00    +0.067 A 
ATOM      7  C   LIG    1      -23.239  80.320  16.080  0.00  0.00    +0.028 A 
ATOM      8  C   LIG    1      -22.025  80.655  16.688  0.00  0.00    +0.002 A 
ATOM      9  C   LIG    1      -20.865  79.963  16.354  0.00  0.00    +0.000 A 
ATOM     10  C   LIG    1      -20.920  78.928  15.422  0.00  0.00    +0.002 A 
ATOM     11  C   LIG    1      -22.135  78.570  14.829  0.00  0.00    +0.028 A 
ENDBRANCH   3   6
BRANCH   4  12
ATOM     12  N   LIG    1      -25.305  81.090  13.441  0.00  0.00    -0.266 N 
ATOM     13  H   LIG    1      -25.820  81.793  13.961  0.00  0.00    +0.157 HD
ATOM     14  C   LIG    1      -24.372  81.554  12.450  0.00  0.00    +0.251 C 
ATOM     15  O   LIG    1      -23.609  80.772  11.869  0.00  0.00    -0.270 OA
BRANCH  14  16
ATOM     16  C   LIG    1      -24.352  82.995  12.137  0.00  0.00    +0.056 A 
ATOM     17  C   LIG    1      -25.243  83.604  11.250  0.00  0.00    +0.054 A 
ATOM     18 CL   LIG    1      -26.491  82.754  10.411  0.00  0.00    -0.083 Cl
ATOM     19  C   LIG    1      -25.134  84.966  10.991  0.00  0.00    +0.041 A 
ATOM     20  C   LIG    1      -24.127  85.744  11.587  0.00  0.00    +0.052 A 
ATOM     21 CL   LIG    1      -24.011  87.353  10.962  0.00  0.00    -0.083 Cl
ATOM     22  C   LIG    1      -23.235  85.190  12.527  0.00  0.00    +0.022 A 
ATOM     23  C   LIG    1      -23.384  83.799  12.776  0.00  0.00    +0.026 A 
BRANCH  22  24
ATOM     24  C   LIG    1      -22.133  85.920  13.213  0.00  0.00    +0.107 A 
ATOM     25  C   LIG    1      -20.807  85.992  12.777  0.00  0.00    +0.149 A 
ATOM     26  F   LIG    1      -20.413  85.479  11.605  0.00  0.00    -0.203 F 
ATOM     27  C   LIG    1      -19.856  86.670  13.537  0.00  0.00    +0.042 A 
ATOM     28  C   LIG    1      -20.252  87.334  14.688  0.00  0.00    +0.023 A 
ATOM     29  C   LIG    1      -21.591  87.286  15.032  0.00  0.00    +0.111 A 
ATOM     30  N   LIG    1      -22.525  86.588  14.338  0.00  0.00    -0.252 NA
ENDBRANCH  22  24
ENDBRANCH  14  16
ENDBRANCH   4  12
BRANCH   1  31
ATOM     31  C   LIG    1      -27.069  76.497  14.011  0.00  0.00    +0.236 C 
ATOM     32  N   LIG    1      -26.536  75.329  14.050  0.00  0.00    -0.241 NA
BRANCH  31  33
ATOM     33  O   LIG    1      -28.391  76.766  13.958  0.00  0.00    -0.491 OA
ATOM     34  H   LIG    1      -28.755  76.913  14.842  0.00  0.00    +0.294 HD
ENDBRANCH  31  33
BRANCH  32  35
ATOM     35  C   LIG    1      -27.353  74.116  14.014  0.00  0.00    +0.221 C 
BRANCH  35  36
ATOM     36  C   LIG    1      -26.914  73.119  15.023  0.00  0.00    +0.146 A 
ATOM     37  C   LIG    1      -27.486  72.037  15.650  0.00  0.00    +0.157 A 
ATOM     38  N   LIG    1      -26.580  71.460  16.511  0.00  0.00    -0.224 NA
ATOM     39  C   LIG    1      -25.507  72.201  16.377  0.00  0.00    +0.308 A 
ATOM     40  O   LIG    1      -25.642  73.239  15.518  0.00  0.00    -0.446 OA
ENDBRANCH  35  36
ENDBRANCH  32  35
ENDBRANCH   1  31
TORSDOF 8
ENDMDL
MODEL 4
REMARK VINA RESULT:      -6.4     14.101     17.544
REMARK  Name = pdb/CHEMBL3961646.pdb
REMARK                            x       y       z     vdW  Elec       q    Type
REMARK                         _______ _______ _______ _____ _____    ______ ____
ROOT
ATOM      1  C   LIG    1      -24.118  82.925  37.200  0.00  0.00    +0.149 A 
ATOM      2  N   LIG    1      -23.164  83.224  38.091  0.00  0.00    -0.160 NA
ATOM      3  N   LIG    1      -22.024  82.686  37.600  0.00  0.00    -0.218 N 
ATOM      4  C   LIG    1      -22.279  81.915  36.455  0.00  0.00    +0.129 A 
ATOM      5  C   LIG    1      -23.619  82.082  36.187  0.00  0.00    +0.078 A 
ENDROOT
BRANCH   3   6
ATOM      6  C   LIG    1      -20.800  82.942  38.288  0.00  0.00    +0.067 A 
ATOM      7  C   LIG    1      -20.159  84.185  38.116  0.00  0.00    +0.028 A 
ATOM      8  C   LIG    1      -18.954  84.458  38.770  0.00  0.00    +0.002 A 
ATOM      9  C   LIG    1      -18.358  83.485  39.566  0.00  0.00    +0.000 A 
ATOM     10  C   LIG    1      -18.972  82.244  39.719  0.00  0.00    +0.002 A 
ATOM     11  C   LIG    1      -20.191  81.972  39.088  0.00  0.00    +0.028 A 
ENDBRANCH   3   6
BRANCH   4  12
ATOM     12  N   LIG    1      -21.409  81.097  35.732  0.00  0.00    -0.266 N 
ATOM     13  H   LIG    1      -20.948  81.499  34.922  0.00  0.00    +0.157 HD
ATOM     14  C   LIG    1      -21.007  79.776  36.131  0.00  0.00    +0.251 C 
ATOM     15  O   LIG    1      -21.419  79.267  37.182  0.00  0.00    -0.270 OA
BRANCH  14  16
ATOM     16  C   LIG    1      -20.089  79.033  35.246  0.00  0.00    +0.056 A 
ATOM     17  C   LIG    1      -18.723  78.886  35.500  0.00  0.00    +0.054 A 
ATOM     18 CL   LIG    1      -17.931  79.543  36.886  0.00  0.00    -0.083 Cl
ATOM     19  C   LIG    1      -17.926  78.193  34.596  0.00  0.00    +0.041 A 
ATOM     20  C   LIG    1      -18.461  77.655  33.413  0.00  0.00    +0.052 A 
ATOM     21 CL   LIG    1      -17.276  77.040  32.313  0.00  0.00    -0.083 Cl
ATOM     22  C   LIG    1      -19.841  77.731  33.135  0.00  0.00    +0.022 A 
ATOM     23  C   LIG    1      -20.627  78.436  34.086  0.00  0.00    +0.026 A 
BRANCH  22  24
ATOM     24  C   LIG    1      -20.511  77.201  31.914  0.00  0.00    +0.107 A 
ATOM     25  C   LIG    1      -21.414  76.135  31.875  0.00  0.00    +0.149 A 
ATOM     26  F   LIG    1      -21.856  75.537  32.988  0.00  0.00    -0.203 F 
ATOM     27  C   LIG    1      -21.934  75.703  30.658  0.00  0.00    +0.042 A 
ATOM     28  C   LIG    1      -21.609  76.387  29.497  0.00  0.00    +0.023 A 
ATOM     29  C   LIG    1      -20.765  77.477  29.606  0.00  0.00    +0.111 A 
ATOM     30  N   LIG    1      -20.202  77.884  30.771  0.00  0.00    -0.252 NA
ENDBRANCH  22  24
ENDBRANCH  14  16
ENDBRANCH   4  12
BRANCH   1  31
ATOM     31  C   LIG    1      -25.486  83.405  37.338  0.00  0.00    +0.236 C 
ATOM     32  N   LIG    1      -26.075  83.957  36.339  0.00  0.00    -0.241 NA
BRANCH  31  33
ATOM     33  O   LIG    1      -26.028  83.179  38.554  0.00  0.00    -0.491 OA
ATOM     34  H   LIG    1      -25.973  82.244  38.795  0.00  0.00    +0.294 HD
ENDBRANCH  31  33
BRANCH  32  35
ATOM     35  C   LIG    1      -27.452  84.442  36.437  0.00  0.00    +0.221 C 
BRANCH  35  36
ATOM     36  C   LIG    1      -27.684  85.636  35.585  0.00  0.00    +0.146 A 
ATOM     37  C   LIG    1      -28.692  86.075  34.759  0.00  0.00    +0.157 A 
ATOM     38  N   LIG    1      -28.358  87.295  34.219  0.00  0.00    -0.224 NA
ATOM     39  C   LIG    1      -27.178  87.551  34.728  0.00  0.00    +0.308 A 
ATOM     40  O   LIG    1      -26.693  86.582  35.540  0.00  0.00    -0.446 OA
ENDBRANCH  35  36
ENDBRANCH  32  35
ENDBRANCH   1  31
TORSDOF 8
ENDMDL
MODEL 5
REMARK VINA RESULT:      -6.4      7.864     14.660
REMARK  Name = pdb/CHEMBL3961646.pdb
REMARK                            x       y       z     vdW  Elec       q    Type
REMARK                         _______ _______ _______ _____ _____    ______ ____
ROOT
ATOM      1  C   LIG    1      -26.695  75.844  32.123  0.00  0.00    +0.149 A 
ATOM      2  N   LIG    1      -25.637  75.622  31.331  0.00  0.00    -0.160 NA
ATOM      3  N   LIG    1      -24.669  76.457  31.772  0.00  0.00    -0.218 N 
ATOM      4  C   LIG    1      -25.157  77.322  32.763  0.00  0.00    +0.129 A 
ATOM      5  C   LIG    1      -26.451  76.918  33.002  0.00  0.00    +0.078 A 
ENDROOT
BRANCH   3   6
ATOM      6  C   LIG    1      -23.372  76.365  31.183  0.00  0.00    +0.067 A 
ATOM      7  C   LIG    1      -22.333  75.736  31.898  0.00  0.00    +0.028 A 
ATOM      8  C   LIG    1      -21.051  75.640  31.350  0.00  0.00    +0.002 A 
ATOM      9  C   LIG    1      -20.782  76.203  30.106  0.00  0.00    +0.000 A 
ATOM     10  C   LIG    1      -21.798  76.850  29.405  0.00  0.00    +0.002 A 
ATOM     11  C   LIG    1      -23.090  76.928  29.936  0.00  0.00    +0.028 A 
ENDBRANCH   3   6
BRANCH   4  12
ATOM     12  N   LIG    1      -24.526  78.406  33.375  0.00  0.00    -0.266 N 
ATOM     13  H   LIG    1      -24.804  79.338  33.085  0.00  0.00    +0.157 HD
ATOM     14  C   LIG    1      -23.620  78.305  34.487  0.00  0.00    +0.251 C 
ATOM     15  O   LIG    1      -23.338  77.209  34.989  0.00  0.00    -0.270 OA
BRANCH  14  16
ATOM     16  C   LIG    1      -23.024  79.548  35.012  0.00  0.00    +0.056 A 
ATOM     17  C   LIG    1      -21.682  79.894  34.837  0.00  0.00    +0.054 A 
ATOM     18 CL   LIG    1      -20.547  78.920  33.974  0.00  0.00    -0.083 Cl
ATOM     19  C   LIG    1      -21.197  81.073  35.392  0.00  0.00    +0.041 A 
ATOM     20  C   LIG    1      -22.025  81.918  36.150  0.00  0.00    +0.052 A 
ATOM     21 CL   LIG    1      -21.187  83.204  36.947  0.00  0.00    -0.083 Cl
ATOM     22  C   LIG    1      -23.398  81.641  36.314  0.00  0.00    +0.022 A 
ATOM     23  C   LIG    1      -23.861  80.434  35.723  0.00  0.00    +0.026 A 
BRANCH  22  24
ATOM     24  C   LIG    1      -24.361  82.463  37.098  0.00  0.00    +0.107 A 
ATOM     25  C   LIG    1      -24.332  82.656  38.482  0.00  0.00    +0.149 A 
ATOM     26  F   LIG    1      -23.338  82.188  39.246  0.00  0.00    -0.203 F 
ATOM     27  C   LIG    1      -25.324  83.411  39.103  0.00  0.00    +0.042 A 
ATOM     28  C   LIG    1      -26.294  84.031  38.330  0.00  0.00    +0.023 A 
ATOM     29  C   LIG    1      -26.231  83.860  36.959  0.00  0.00    +0.111 A 
ATOM     30  N   LIG    1      -25.309  83.085  36.335  0.00  0.00    -0.252 NA
ENDBRANCH  22  24
ENDBRANCH  14  16
ENDBRANCH   4  12
BRANCH   1  31
ATOM     31  C   LIG    1      -27.923  75.070  32.013  0.00  0.00    +0.236 C 
ATOM     32  N   LIG    1      -29.048  75.671  31.866  0.00  0.00    -0.241 NA
BRANCH  31  33
ATOM     33  O   LIG    1      -27.735  73.733  32.048  0.00  0.00    -0.491 OA
ATOM     34  H   LIG    1      -27.669  73.364  31.156  0.00  0.00    +0.294 HD
ENDBRANCH  31  33
BRANCH  32  35
ATOM     35  C   LIG    1      -30.301  74.926  31.742  0.00  0.00    +0.221 C 
BRANCH  35  36
ATOM     36  C   LIG    1      -31.098  75.367  30.570  0.00  0.00    +0.146 A 
ATOM     37  C   LIG    1      -32.291  74.997  29.995  0.00  0.00    +0.157 A 
ATOM     38  N   LIG    1      -32.547  75.784  28.896  0.00  0.00    -0.224 NA
ATOM     39  C   LIG    1      -31.517  76.593  28.844  0.00  0.00    +0.308 A 
ATOM     40  O   LIG    1      -30.586  76.383  29.804  0.00  0.00    -0.446 OA
ENDBRANCH  35  36
ENDBRANCH  32  35
ENDBRANCH   1  31
TORSDOF 8
ENDMDL
MODEL 6
REMARK VINA RESULT:      -6.4      4.579      9.781
REMARK  Name = pdb/CHEMBL3961646.pdb
REMARK                            x       y       z     vdW  Elec       q    Type
REMARK                         _______ _______ _______ _____ _____    ______ ____
ROOT
ATOM      1  C   LIG    1      -38.548  71.390  24.292  0.00  0.00    +0.149 A 
ATOM      2  N   LIG    1      -39.621  72.129  23.982  0.00  0.00    -0.160 NA
ATOM      3  N   LIG    1      -39.296  73.401  24.308  0.00  0.00    -0.218 N 
ATOM      4  C   LIG    1      -38.056  73.456  24.964  0.00  0.00    +0.129 A 
ATOM      5  C   LIG    1      -37.567  72.169  24.938  0.00  0.00    +0.078 A 
ENDROOT
BRANCH   3   6
ATOM      6  C   LIG    1      -40.216  74.443  23.983  0.00  0.00    +0.067 A 
ATOM      7  C   LIG    1      -41.518  74.106  23.562  0.00  0.00    +0.028 A 
ATOM      8  C   LIG    1      -42.436  75.106  23.228  0.00  0.00    +0.002 A 
ATOM      9  C   LIG    1      -42.054  76.444  23.271  0.00  0.00    +0.000 A 
ATOM     10  C   LIG    1      -40.760  76.782  23.659  0.00  0.00    +0.002 A 
ATOM     11  C   LIG    1      -39.843  75.789  24.020  0.00  0.00    +0.028 A 
ENDBRANCH   3   6
BRANCH   4  12
ATOM     12  N   LIG    1      -37.429  74.544  25.572  0.00  0.00    -0.266 N 
ATOM     13  H   LIG    1      -36.813  75.114  25.000  0.00  0.00    +0.157 HD
ATOM     14  C   LIG    1      -37.700  75.003  26.907  0.00  0.00    +0.251 C 
ATOM     15  O   LIG    1      -38.541  74.444  27.622  0.00  0.00    -0.270 OA
BRANCH  14  16
ATOM     16  C   LIG    1      -36.938  76.162  27.410  0.00  0.00    +0.056 A 
ATOM     17  C   LIG    1      -37.367  77.485  27.272  0.00  0.00    +0.054 A 
ATOM     18 CL   LIG    1      -38.847  77.937  26.507  0.00  0.00    -0.083 Cl
ATOM     19  C   LIG    1      -36.570  78.520  27.751  0.00  0.00    +0.041 A 
ATOM     20  C   LIG    1      -35.326  78.265  28.352  0.00  0.00    +0.052 A 
ATOM     21 CL   LIG    1      -34.386  79.684  28.666  0.00  0.00    -0.083 Cl
ATOM     22  C   LIG    1      -34.871  76.948  28.561  0.00  0.00    +0.022 A 
ATOM     23  C   LIG    1      -35.715  75.916  28.070  0.00  0.00    +0.026 A 
BRANCH  22  24
ATOM     24  C   LIG    1      -33.571  76.567  29.182  0.00  0.00    +0.107 A 
ATOM     25  C   LIG    1      -32.324  76.604  28.553  0.00  0.00    +0.149 A 
ATOM     26  F   LIG    1      -32.162  77.102  27.321  0.00  0.00    -0.203 F 
ATOM     27  C   LIG    1      -31.186  76.173  29.230  0.00  0.00    +0.042 A 
ATOM     28  C   LIG    1      -31.290  75.780  30.556  0.00  0.00    +0.023 A 
ATOM     29  C   LIG    1      -32.539  75.831  31.146  0.00  0.00    +0.111 A 
ATOM     30  N   LIG    1      -33.671  76.193  30.492  0.00  0.00    -0.252 NA
ENDBRANCH  22  24
ENDBRANCH  14  16
ENDBRANCH   4  12
BRANCH   1  31
ATOM     31  C   LIG    1      -38.480  69.963  24.010  0.00  0.00    +0.236 C 
ATOM     32  N   LIG    1      -38.095  69.556  22.854  0.00  0.00    -0.241 NA
BRANCH  31  33
ATOM     33  O   LIG    1      -38.818  69.180  25.057  0.00  0.00    -0.491 OA
ATOM     34  H   LIG    1      -38.401  69.486  25.874  0.00  0.00    +0.294 HD
ENDBRANCH  31  33
BRANCH  32  35
ATOM     35  C   LIG    1      -38.005  68.130  22.538  0.00  0.00    +0.221 C 
BRANCH  35  36
ATOM     36  C   LIG    1      -36.599  67.686  22.364  0.00  0.00    +0.146 A 
ATOM     37  C   LIG    1      -35.440  67.779  23.098  0.00  0.00    +0.157 A 
ATOM     38  N   LIG    1      -34.410  67.158  22.429  0.00  0.00    -0.224 NA
ATOM     39  C   LIG    1      -34.972  66.717  21.330  0.00  0.00    +0.308 A 
ATOM     40  O   LIG    1      -36.285  67.022  21.207  0.00  0.00    -0.446 OA
ENDBRANCH  35  36
ENDBRANCH  32  35
ENDBRANCH   1  31
TORSDOF 8
ENDMDL
MODEL 7
REMARK VINA RESULT:      -6.3      4.577     10.967
REMARK  Name = pdb/CHEMBL3961646.pdb
REMARK                            x       y       z     vdW  Elec       q    Type
REMARK                         _______ _______ _______ _____ _____    ______ ____
ROOT
ATOM      1  C   LIG    1      -40.250  71.795  23.889  0.00  0.00    +0.149 A 
ATOM      2  N   LIG    1      -40.663  73.063  23.770  0.00  0.00    -0.160 NA
ATOM      3  N   LIG    1      -39.643  73.824  24.229  0.00  0.00    -0.218 N 
ATOM      4  C   LIG    1      -38.625  73.030  24.779  0.00  0.00    +0.129 A 
ATOM      5  C   LIG    1      -39.004  71.727  24.544  0.00  0.00    +0.078 A 
ENDROOT
BRANCH   3   6
ATOM      6  C   LIG    1      -39.751  75.243  24.121  0.00  0.00    +0.067 A 
ATOM      7  C   LIG    1      -40.934  75.807  23.601  0.00  0.00    +0.028 A 
ATOM      8  C   LIG    1      -41.062  77.193  23.475  0.00  0.00    +0.002 A 
ATOM      9  C   LIG    1      -40.004  78.026  23.827  0.00  0.00    +0.000 A 
ATOM     10  C   LIG    1      -38.822  77.473  24.316  0.00  0.00    +0.002 A 
ATOM     11  C   LIG    1      -38.695  76.089  24.469  0.00  0.00    +0.028 A 
ENDBRANCH   3   6
BRANCH   4  12
ATOM     12  N   LIG    1      -37.476  73.422  25.468  0.00  0.00    -0.266 N 
ATOM     13  H   LIG    1      -36.658  73.669  24.919  0.00  0.00    +0.157 HD
ATOM     14  C   LIG    1      -37.409  73.643  26.887  0.00  0.00    +0.251 C 
ATOM     15  O   LIG    1      -38.404  73.498  27.608  0.00  0.00    -0.270 OA
BRANCH  14  16
ATOM     16  C   LIG    1      -36.112  74.042  27.466  0.00  0.00    +0.056 A 
ATOM     17  C   LIG    1      -35.258  73.157  28.129  0.00  0.00    +0.054 A 
ATOM     18 CL   LIG    1      -35.601  71.479  28.348  0.00  0.00    -0.083 Cl
ATOM     19  C   LIG    1      -34.066  73.626  28.670  0.00  0.00    +0.041 A 
ATOM     20  C   LIG    1      -33.710  74.983  28.586  0.00  0.00    +0.052 A 
ATOM     21 CL   LIG    1      -32.316  75.410  29.518  0.00  0.00    -0.083 Cl
ATOM     22  C   LIG    1      -34.511  75.907  27.885  0.00  0.00    +0.022 A 
ATOM     23  C   LIG    1      -35.715  75.390  27.335  0.00  0.00    +0.026 A 
BRANCH  22  24
ATOM     24  C   LIG    1      -34.231  77.363  27.739  0.00  0.00    +0.107 A 
ATOM     25  C   LIG    1      -33.104  77.921  27.129  0.00  0.00    +0.149 A 
ATOM     26  F   LIG    1      -32.188  77.171  26.505  0.00  0.00    -0.203 F 
ATOM     27  C   LIG    1      -32.936  79.303  27.100  0.00  0.00    +0.042 A 
ATOM     28  C   LIG    1      -33.931  80.121  27.613  0.00  0.00    +0.023 A 
ATOM     29  C   LIG    1      -35.056  79.514  28.141  0.00  0.00    +0.111 A 
ATOM     30  N   LIG    1      -35.218  78.170  28.230  0.00  0.00    -0.252 NA
ENDBRANCH  22  24
ENDBRANCH  14  16
ENDBRANCH   4  12
BRANCH   1  31
ATOM     31  C   LIG    1      -41.049  70.671  23.419  0.00  0.00    +0.236 C 
ATOM     32  N   LIG    1      -41.080  70.387  22.167  0.00  0.00    -0.241 NA
BRANCH  31  33
ATOM     33  O   LIG    1      -41.679  69.995  24.403  0.00  0.00    -0.491 OA
ATOM     34  H   LIG    1      -42.221  70.586  24.943  0.00  0.00    +0.294 HD
ENDBRANCH  31  33
BRANCH  32  35
ATOM     35  C   LIG    1      -41.863  69.260  21.659  0.00  0.00    +0.221 C 
BRANCH  35  36
ATOM     36  C   LIG    1      -42.970  69.704  20.774  0.00  0.00    +0.146 A 
ATOM     37  C   LIG    1      -44.306  69.406  20.644  0.00  0.00    +0.157 A 
ATOM     38  N   LIG    1      -44.857  70.152  19.628  0.00  0.00    -0.224 NA
ATOM     39  C   LIG    1      -43.851  70.866  19.184  0.00  0.00    +0.308 A 
ATOM     40  O   LIG    1      -42.672  70.629  19.808  0.00  0.00    -0.446 OA
ENDBRANCH  35  36
ENDBRANCH  32  35
ENDBRANCH   1  31
TORSDOF 8
ENDMDL
MODEL 8
REMARK VINA RESULT:      -6.2      5.053      9.550
REMARK  Name = pdb/CHEMBL3961646.pdb
REMARK                            x       y       z     vdW  Elec       q    Type
REMARK                         _______ _______ _______ _____ _____    ______ ____
ROOT
ATOM      1  C   LIG    1      -36.371  69.323  25.431  0.00  0.00    +0.149 A 
ATOM      2  N   LIG    1      -37.351  70.236  25.453  0.00  0.00    -0.160 NA
ATOM      3  N   LIG    1      -36.764  71.393  25.835  0.00  0.00    -0.218 N 
ATOM      4  C   LIG    1      -35.424  71.188  26.196  0.00  0.00    +0.129 A 
ATOM      5  C   LIG    1      -35.165  69.864  25.920  0.00  0.00    +0.078 A 
ENDROOT
BRANCH   3   6
ATOM      6  C   LIG    1      -37.550  72.585  25.841  0.00  0.00    +0.067 A 
ATOM      7  C   LIG    1      -38.304  72.920  24.698  0.00  0.00    +0.028 A 
ATOM      8  C   LIG    1      -39.075  74.086  24.673  0.00  0.00    +0.002 A 
ATOM      9  C   LIG    1      -39.070  74.946  25.767  0.00  0.00    +0.000 A 
ATOM     10  C   LIG    1      -38.306  74.635  26.890  0.00  0.00    +0.002 A 
ATOM     11  C   LIG    1      -37.552  73.457  26.932  0.00  0.00    +0.028 A 
ENDBRANCH   3   6
BRANCH   4  12
ATOM     12  N   LIG    1      -34.516  72.084  26.763  0.00  0.00    -0.266 N 
ATOM     13  H   LIG    1      -33.942  72.635  26.133  0.00  0.00    +0.157 HD
ATOM     14  C   LIG    1      -34.436  72.390  28.166  0.00  0.00    +0.251 C 
ATOM     15  O   LIG    1      -35.199  71.862  28.984  0.00  0.00    -0.270 OA
BRANCH  14  16
ATOM     16  C   LIG    1      -33.409  73.352  28.608  0.00  0.00    +0.056 A 
ATOM     17  C   LIG    1      -32.285  72.990  29.355  0.00  0.00    +0.054 A 
ATOM     18 CL   LIG    1      -31.943  71.372  29.849  0.00  0.00    -0.083 Cl
ATOM     19  C   LIG    1      -31.380  73.969  29.755  0.00  0.00    +0.041 A 
ATOM     20  C   LIG    1      -31.586  75.323  29.444  0.00  0.00    +0.052 A 
ATOM     21 CL   LIG    1      -30.485  76.406  30.225  0.00  0.00    -0.083 Cl
ATOM     22  C   LIG    1      -32.676  75.735  28.650  0.00  0.00    +0.022 A 
ATOM     23  C   LIG    1      -33.572  74.707  28.249  0.00  0.00    +0.026 A 
BRANCH  22  24
ATOM     24  C   LIG    1      -32.989  77.139  28.266  0.00  0.00    +0.107 A 
ATOM     25  C   LIG    1      -32.446  77.829  27.178  0.00  0.00    +0.149 A 
ATOM     26  F   LIG    1      -31.644  77.235  26.287  0.00  0.00    -0.203 F 
ATOM     27  C   LIG    1      -32.785  79.161  26.955  0.00  0.00    +0.042 A 
ATOM     28  C   LIG    1      -33.722  79.772  27.775  0.00  0.00    +0.023 A 
ATOM     29  C   LIG    1      -34.277  79.019  28.793  0.00  0.00    +0.111 A 
ATOM     30  N   LIG    1      -33.923  77.738  29.065  0.00  0.00    -0.252 NA
ENDBRANCH  22  24
ENDBRANCH  14  16
ENDBRANCH   4  12
BRANCH   1  31
ATOM     31  C   LIG    1      -36.595  67.955  24.986  0.00  0.00    +0.236 C 
ATOM     32  N   LIG    1      -37.136  67.734  23.843  0.00  0.00    -0.241 NA
BRANCH  31  33
ATOM     33  O   LIG    1      -36.160  67.017  25.855  0.00  0.00    -0.491 OA
ATOM     34  H   LIG    1      -36.538  67.151  26.734  0.00  0.00    +0.294 HD
ENDBRANCH  31  33
BRANCH  32  35
ATOM     35  C   LIG    1      -37.367  66.372  23.359  0.00  0.00    +0.221 C 
BRANCH  35  36
ATOM     36  C   LIG    1      -36.688  66.118  22.063  0.00  0.00    +0.146 A 
ATOM     37  C   LIG    1      -36.052  65.049  21.478  0.00  0.00    +0.157 A 
ATOM     38  N   LIG    1      -35.608  65.395  20.223  0.00  0.00    -0.224 NA
ATOM     39  C   LIG    1      -35.985  66.644  20.091  0.00  0.00    +0.308 A 
ATOM     40  O   LIG    1      -36.617  67.159  21.173  0.00  0.00    -0.446 OA
ENDBRANCH  35  36
ENDBRANCH  32  35
ENDBRANCH   1  31
TORSDOF 8
ENDMDL
MODEL 9
REMARK VINA RESULT:      -6.2      4.588      8.164
REMARK  Name = pdb/CHEMBL3961646.pdb
REMARK                            x       y       z     vdW  Elec       q    Type
REMARK                         _______ _______ _______ _____ _____    ______ ____
ROOT
ATOM      1  C   LIG    1      -38.121  76.693  25.426  0.00  0.00    +0.149 A 
ATOM      2  N   LIG    1      -38.423  77.965  25.136  0.00  0.00    -0.160 NA
ATOM      3  N   LIG    1      -39.544  77.912  24.381  0.00  0.00    -0.218 N 
ATOM      4  C   LIG    1      -39.882  76.587  24.066  0.00  0.00    +0.129 A 
ATOM      5  C   LIG    1      -38.980  75.802  24.751  0.00  0.00    +0.078 A 
ENDROOT
BRANCH   3   6
ATOM      6  C   LIG    1      -40.173  79.138  24.010  0.00  0.00    +0.067 A 
ATOM      7  C   LIG    1      -41.555  79.299  24.235  0.00  0.00    +0.028 A 
ATOM      8  C   LIG    1      -42.199  80.486  23.873  0.00  0.00    +0.002 A 
ATOM      9  C   LIG    1      -41.483  81.504  23.249  0.00  0.00    +0.000 A 
ATOM     10  C   LIG    1      -40.123  81.341  23.000  0.00  0.00    +0.002 A 
ATOM     11  C   LIG    1      -39.466  80.166  23.382  0.00  0.00    +0.028 A 
ENDBRANCH   3   6
BRANCH   4  12
ATOM     12  N   LIG    1      -40.876  76.110  23.211  0.00  0.00    -0.266 N 
ATOM     13  H   LIG    1      -40.635  75.981  22.233  0.00  0.00    +0.157 HD
ATOM     14  C   LIG    1      -42.170  75.649  23.637  0.00  0.00    +0.251 C 
ATOM     15  O   LIG    1      -42.489  75.643  24.833  0.00  0.00    -0.270 OA
BRANCH  14  16
ATOM     16  C   LIG    1      -43.116  75.187  22.604  0.00  0.00    +0.056 A 
ATOM     17  C   LIG    1      -43.342  73.840  22.312  0.00  0.00    +0.054 A 
ATOM     18 CL   LIG    1      -42.554  72.538  23.128  0.00  0.00    -0.083 Cl
ATOM     19  C   LIG    1      -44.233  73.495  21.301  0.00  0.00    +0.041 A 
ATOM     20  C   LIG    1      -44.895  74.476  20.545  0.00  0.00    +0.052 A 
ATOM     21 CL   LIG    1      -45.772  73.856  19.189  0.00  0.00    -0.083 Cl
ATOM     22  C   LIG    1      -44.741  75.848  20.833  0.00  0.00    +0.022 A 
ATOM     23  C   LIG    1      -43.834  76.163  21.880  0.00  0.00    +0.026 A 
BRANCH  22  24
ATOM     24  C   LIG    1      -45.390  76.967  20.095  0.00  0.00    +0.107 A 
ATOM     25  C   LIG    1      -45.060  77.397  18.806  0.00  0.00    +0.149 A 
ATOM     26  F   LIG    1      -44.166  76.750  18.048  0.00  0.00    -0.203 F 
ATOM     27  C   LIG    1      -45.712  78.492  18.245  0.00  0.00    +0.042 A 
ATOM     28  C   LIG    1      -46.742  79.102  18.943  0.00  0.00    +0.023 A 
ATOM     29  C   LIG    1      -47.072  78.590  20.184  0.00  0.00    +0.111 A 
ATOM     30  N   LIG    1      -46.415  77.561  20.776  0.00  0.00    -0.252 NA
ENDBRANCH  22  24
ENDBRANCH  14  16
ENDBRANCH   4  12
BRANCH   1  31
ATOM     31  C   LIG    1      -37.011  76.338  26.299  0.00  0.00    +0.236 C 
ATOM     32  N   LIG    1      -36.398  77.253  26.960  0.00  0.00    -0.241 NA
BRANCH  31  33
ATOM     33  O   LIG    1      -36.750  75.014  26.346  0.00  0.00    -0.491 OA
ATOM     34  H   LIG    1      -36.131  74.753  25.650  0.00  0.00    +0.294 HD
ENDBRANCH  31  33
BRANCH  32  35
ATOM     35  C   LIG    1      -35.285  76.933  27.854  0.00  0.00    +0.221 C 
BRANCH  35  36
ATOM     36  C   LIG    1      -34.008  77.534  27.392  0.00  0.00    +0.146 A 
ATOM     37  C   LIG    1      -32.787  77.055  26.979  0.00  0.00    +0.157 A 
ATOM     38  N   LIG    1      -31.958  78.103  26.650  0.00  0.00    -0.224 NA
ATOM     39  C   LIG    1      -32.694  79.165  26.871  0.00  0.00    +0.308 A 
ATOM     40  O   LIG    1      -33.935  78.902  27.348  0.00  0.00    -0.446 OA
ENDBRANCH  35  36
ENDBRANCH  32  35
ENDBRANCH   1  31
TORSDOF 8
ENDMDL
