MODEL 1
REMARK VINA RESULT:      -6.2      0.000      0.000
REMARK  Name = pdb/CHEMBL3676003.pdb
REMARK                            x       y       z     vdW  Elec       q    Type
REMARK                         _______ _______ _______ _____ _____    ______ ____
ROOT
ATOM      1  C   LIG    1      -25.697  77.135  32.954  0.00  0.00    +0.100 A 
ATOM      2  C   LIG    1      -25.207  77.995  33.924  0.00  0.00    +0.170 A 
ATOM      3  N   LIG    1      -24.011  78.657  34.039  0.00  0.00    -0.212 NA
ATOM      4  C   LIG    1      -23.839  79.453  35.073  0.00  0.00    +0.126 A 
ATOM      5  C   LIG    1      -24.918  79.655  36.113  0.00  0.00    +0.063 A 
ATOM      6  C   LIG    1      -26.056  78.970  35.960  0.00  0.00    +0.118 A 
ATOM      7  N   LIG    1      -26.223  78.132  34.871  0.00  0.00    -0.221 N 
ATOM      8  N   LIG    1      -27.313  77.393  34.560  0.00  0.00    -0.173 NA
ATOM      9  C   LIG    1      -26.998  76.822  33.397  0.00  0.00    +0.150 A 
ENDROOT
BRANCH   4  10
ATOM     10  N   LIG    1      -22.639  80.135  35.206  0.00  0.00    -0.308 N 
ATOM     11  C   LIG    1      -21.454  79.544  35.844  0.00  0.00    +0.107 C 
ATOM     12  C   LIG    1      -20.959  80.699  36.730  0.00  0.00    +0.029 C 
ATOM     13  C   LIG    1      -21.224  81.927  35.876  0.00  0.00    +0.021 C 
ATOM     14  C   LIG    1      -22.544  81.598  35.190  0.00  0.00    +0.107 C 
BRANCH  11  15
ATOM     15  C   LIG    1      -20.429  79.076  34.824  0.00  0.00    -0.006 A 
ATOM     16  C   LIG    1      -19.082  78.903  35.178  0.00  0.00    +0.046 A 
ATOM     17  C   LIG    1      -18.164  78.474  34.226  0.00  0.00    +0.142 A 
ATOM     18  F   LIG    1      -16.875  78.321  34.553  0.00  0.00    -0.204 F 
ATOM     19  C   LIG    1      -18.599  78.214  32.941  0.00  0.00    +0.149 A 
ATOM     20  N   LIG    1      -19.886  78.347  32.555  0.00  0.00    -0.260 NA
ATOM     21  C   LIG    1      -20.765  78.760  33.504  0.00  0.00    +0.116 A 
ENDBRANCH  11  15
ENDBRANCH   4  10
BRANCH   1  24
ATOM     22  N   LIG    1      -23.691  76.454  31.864  0.00  0.00    -0.300 N 
ATOM     23  H   LIG    1      -23.278  76.636  32.778  0.00  0.00    +0.150 HD
ATOM     24  C   LIG    1      -25.043  76.666  31.750  0.00  0.00    +0.250 C 
ATOM     25  O   LIG    1      -25.658  76.457  30.704  0.00  0.00    -0.270 OA
BRANCH  22  27
ATOM     26  C   LIG    1      -21.670  75.195  31.338  0.00  0.00    +0.037 C 
ATOM     27  C   LIG    1      -22.861  75.961  30.755  0.00  0.00    +0.174 C 
BRANCH  27  28
ATOM     28  C   LIG    1      -22.391  77.026  29.725  0.00  0.00    +0.407 C 
ATOM     29  F   LIG    1      -23.412  77.632  29.082  0.00  0.00    -0.169 F 
ATOM     30  F   LIG    1      -21.581  76.468  28.792  0.00  0.00    -0.169 F 
ATOM     31  F   LIG    1      -21.672  78.011  30.319  0.00  0.00    -0.169 F 
ENDBRANCH  27  28
ENDBRANCH  22  27
ENDBRANCH   1  24
TORSDOF 5
ENDMDL
MODEL 2
REMARK VINA RESULT:      -6.1     18.559     21.513
REMARK  Name = pdb/CHEMBL3676003.pdb
REMARK                            x       y       z     vdW  Elec       q    Type
REMARK                         _______ _______ _______ _____ _____    ______ ____
ROOT
ATOM      1  C   LIG    1      -18.502  85.381  13.059  0.00  0.00    +0.100 A 
ATOM      2  C   LIG    1      -18.797  84.069  13.394  0.00  0.00    +0.170 A 
ATOM      3  N   LIG    1      -19.832  83.517  14.106  0.00  0.00    -0.212 NA
ATOM      4  C   LIG    1      -19.871  82.208  14.231  0.00  0.00    +0.126 A 
ATOM      5  C   LIG    1      -18.821  81.315  13.610  0.00  0.00    +0.063 A 
ATOM      6  C   LIG    1      -17.825  81.909  12.943  0.00  0.00    +0.118 A 
ATOM      7  N   LIG    1      -17.792  83.287  12.822  0.00  0.00    -0.221 N 
ATOM      8  N   LIG    1      -16.876  84.035  12.165  0.00  0.00    -0.173 NA
ATOM      9  C   LIG    1      -17.325  85.284  12.291  0.00  0.00    +0.150 A 
ENDROOT
BRANCH   4  10
ATOM     10  N   LIG    1      -20.910  81.630  14.944  0.00  0.00    -0.308 N 
ATOM     11  C   LIG    1      -22.126  82.367  15.317  0.00  0.00    +0.107 C 
ATOM     12  C   LIG    1      -22.325  81.934  16.779  0.00  0.00    +0.029 C 
ATOM     13  C   LIG    1      -21.913  80.472  16.766  0.00  0.00    +0.021 C 
ATOM     14  C   LIG    1      -20.737  80.450  15.796  0.00  0.00    +0.107 C 
BRANCH  11  15
ATOM     15  C   LIG    1      -23.301  82.026  14.415  0.00  0.00    -0.006 A 
ATOM     16  C   LIG    1      -23.425  82.601  13.140  0.00  0.00    +0.046 A 
ATOM     17  C   LIG    1      -24.510  82.273  12.335  0.00  0.00    +0.142 A 
ATOM     18  F   LIG    1      -24.641  82.827  11.123  0.00  0.00    -0.204 F 
ATOM     19  C   LIG    1      -25.447  81.373  12.802  0.00  0.00    +0.149 A 
ATOM     20  N   LIG    1      -25.364  80.779  14.012  0.00  0.00    -0.260 NA
ATOM     21  C   LIG    1      -24.293  81.111  14.778  0.00  0.00    +0.116 A 
ENDBRANCH  11  15
ENDBRANCH   4  10
BRANCH   1  24
ATOM     22  N   LIG    1      -20.418  86.383  14.063  0.00  0.00    -0.300 N 
ATOM     23  H   LIG    1      -20.669  85.414  14.259  0.00  0.00    +0.150 HD
ATOM     24  C   LIG    1      -19.231  86.585  13.401  0.00  0.00    +0.250 C 
ATOM     25  O   LIG    1      -18.809  87.710  13.131  0.00  0.00    -0.270 OA
BRANCH  22  27
ATOM     26  C   LIG    1      -21.706  87.220  15.956  0.00  0.00    +0.037 C 
ATOM     27  C   LIG    1      -21.284  87.483  14.508  0.00  0.00    +0.174 C 
BRANCH  27  28
ATOM     28  C   LIG    1      -22.519  87.788  13.612  0.00  0.00    +0.407 C 
ATOM     29  F   LIG    1      -23.305  88.769  14.105  0.00  0.00    -0.169 F 
ATOM     30  F   LIG    1      -23.282  86.680  13.453  0.00  0.00    -0.169 F 
ATOM     31  F   LIG    1      -22.147  88.182  12.369  0.00  0.00    -0.169 F 
ENDBRANCH  27  28
ENDBRANCH  22  27
ENDBRANCH   1  24
TORSDOF 5
ENDMDL
MODEL 3
REMARK VINA RESULT:      -6.1      3.212      7.168
REMARK  Name = pdb/CHEMBL3676003.pdb
REMARK                            x       y       z     vdW  Elec       q    Type
REMARK                         _______ _______ _______ _____ _____    ______ ____
ROOT
ATOM      1  C   LIG    1      -18.418  78.095  33.188  0.00  0.00    +0.100 A 
ATOM      2  C   LIG    1      -19.391  77.749  32.264  0.00  0.00    +0.170 A 
ATOM      3  N   LIG    1      -20.761  77.784  32.323  0.00  0.00    -0.212 NA
ATOM      4  C   LIG    1      -21.439  77.424  31.254  0.00  0.00    +0.126 A 
ATOM      5  C   LIG    1      -20.748  76.988  29.981  0.00  0.00    +0.063 A 
ATOM      6  C   LIG    1      -19.411  76.956  29.987  0.00  0.00    +0.118 A 
ATOM      7  N   LIG    1      -18.710  77.332  31.119  0.00  0.00    -0.221 N 
ATOM      8  N   LIG    1      -17.368  77.379  31.279  0.00  0.00    -0.173 NA
ATOM      9  C   LIG    1      -17.203  77.862  32.511  0.00  0.00    +0.150 A 
ENDROOT
BRANCH   4  10
ATOM     10  N   LIG    1      -22.824  77.456  31.291  0.00  0.00    -0.308 N 
ATOM     11  C   LIG    1      -23.609  76.740  32.307  0.00  0.00    +0.107 C 
ATOM     12  C   LIG    1      -24.729  76.112  31.461  0.00  0.00    +0.029 C 
ATOM     13  C   LIG    1      -25.026  77.185  30.428  0.00  0.00    +0.021 C 
ATOM     14  C   LIG    1      -23.650  77.763  30.120  0.00  0.00    +0.107 C 
BRANCH  11  15
ATOM     15  C   LIG    1      -24.118  77.671  33.397  0.00  0.00    -0.006 A 
ATOM     16  C   LIG    1      -23.516  78.919  33.621  0.00  0.00    +0.046 A 
ATOM     17  C   LIG    1      -24.001  79.752  34.624  0.00  0.00    +0.142 A 
ATOM     18  F   LIG    1      -23.423  80.938  34.852  0.00  0.00    -0.204 F 
ATOM     19  C   LIG    1      -25.080  79.338  35.380  0.00  0.00    +0.149 A 
ATOM     20  N   LIG    1      -25.704  78.155  35.192  0.00  0.00    -0.260 NA
ATOM     21  C   LIG    1      -25.217  77.363  34.202  0.00  0.00    +0.116 A 
ENDBRANCH  11  15
ENDBRANCH   4  10
BRANCH   1  24
ATOM     22  N   LIG    1      -19.888  78.640  34.982  0.00  0.00    -0.300 N 
ATOM     23  H   LIG    1      -20.603  78.314  34.332  0.00  0.00    +0.150 HD
ATOM     24  C   LIG    1      -18.590  78.593  34.537  0.00  0.00    +0.250 C 
ATOM     25  O   LIG    1      -17.639  78.936  35.239  0.00  0.00    -0.270 OA
BRANCH  22  27
ATOM     26  C   LIG    1      -21.489  78.315  36.792  0.00  0.00    +0.037 C 
ATOM     27  C   LIG    1      -20.257  79.098  36.329  0.00  0.00    +0.174 C 
BRANCH  27  28
ATOM     28  C   LIG    1      -20.472  80.629  36.496  0.00  0.00    +0.407 C 
ATOM     29  F   LIG    1      -21.594  80.938  37.181  0.00  0.00    -0.169 F 
ATOM     30  F   LIG    1      -20.536  81.240  35.289  0.00  0.00    -0.169 F 
ATOM     31  F   LIG    1      -19.443  81.206  37.166  0.00  0.00    -0.169 F 
ENDBRANCH  27  28
ENDBRANCH  22  27
ENDBRANCH   1  24
TORSDOF 5
ENDMDL
MODEL 4
REMARK VINA RESULT:      -6.0      2.942      5.335
REMARK  Name = pdb/CHEMBL3676003.pdb
REMARK                            x       y       z     vdW  Elec       q    Type
REMARK                         _______ _______ _______ _____ _____    ______ ____
ROOT
ATOM      1  C   LIG    1      -22.885  77.032  30.543  0.00  0.00    +0.100 A 
ATOM      2  C   LIG    1      -21.938  77.565  31.403  0.00  0.00    +0.170 A 
ATOM      3  N   LIG    1      -22.055  78.170  32.629  0.00  0.00    -0.212 NA
ATOM      4  C   LIG    1      -20.953  78.550  33.241  0.00  0.00    +0.126 A 
ATOM      5  C   LIG    1      -19.586  78.328  32.635  0.00  0.00    +0.063 A 
ATOM      6  C   LIG    1      -19.534  77.750  31.430  0.00  0.00    +0.118 A 
ATOM      7  N   LIG    1      -20.700  77.360  30.794  0.00  0.00    -0.221 N 
ATOM      8  N   LIG    1      -20.818  76.746  29.594  0.00  0.00    -0.173 NA
ATOM      9  C   LIG    1      -22.127  76.530  29.466  0.00  0.00    +0.150 A 
ENDROOT
BRANCH   4  10
ATOM     10  N   LIG    1      -21.048  79.160  34.482  0.00  0.00    -0.308 N 
ATOM     11  C   LIG    1      -22.048  80.194  34.787  0.00  0.00    +0.107 C 
ATOM     12  C   LIG    1      -21.209  81.234  35.548  0.00  0.00    +0.029 C 
ATOM     13  C   LIG    1      -20.259  80.379  36.368  0.00  0.00    +0.021 C 
ATOM     14  C   LIG    1      -19.932  79.223  35.431  0.00  0.00    +0.107 C 
BRANCH  11  15
ATOM     15  C   LIG    1      -23.213  79.642  35.593  0.00  0.00    -0.006 A 
ATOM     16  C   LIG    1      -24.347  80.427  35.855  0.00  0.00    +0.046 A 
ATOM     17  C   LIG    1      -25.399  79.899  36.595  0.00  0.00    +0.142 A 
ATOM     18  F   LIG    1      -26.478  80.646  36.860  0.00  0.00    -0.204 F 
ATOM     19  C   LIG    1      -25.313  78.599  37.055  0.00  0.00    +0.149 A 
ATOM     20  N   LIG    1      -24.253  77.799  36.815  0.00  0.00    -0.260 NA
ATOM     21  C   LIG    1      -23.241  78.334  36.084  0.00  0.00    +0.116 A 
ENDBRANCH  11  15
ENDBRANCH   4  10
BRANCH   1  24
ATOM     22  N   LIG    1      -24.762  76.737  31.982  0.00  0.00    -0.300 N 
ATOM     23  H   LIG    1      -24.041  76.624  32.695  0.00  0.00    +0.150 HD
ATOM     24  C   LIG    1      -24.324  76.981  30.703  0.00  0.00    +0.250 C 
ATOM     25  O   LIG    1      -25.098  77.159  29.763  0.00  0.00    -0.270 OA
BRANCH  22  27
ATOM     26  C   LIG    1      -26.362  77.242  33.751  0.00  0.00    +0.037 C 
ATOM     27  C   LIG    1      -26.185  76.669  32.342  0.00  0.00    +0.174 C 
BRANCH  27  28
ATOM     28  C   LIG    1      -26.857  75.272  32.218  0.00  0.00    +0.407 C 
ATOM     29  F   LIG    1      -26.174  74.421  31.423  0.00  0.00    -0.169 F 
ATOM     30  F   LIG    1      -28.115  75.385  31.727  0.00  0.00    -0.169 F 
ATOM     31  F   LIG    1      -26.967  74.663  33.426  0.00  0.00    -0.169 F 
ENDBRANCH  27  28
ENDBRANCH  22  27
ENDBRANCH   1  24
TORSDOF 5
ENDMDL
MODEL 5
REMARK VINA RESULT:      -5.9      2.631      5.474
REMARK  Name = pdb/CHEMBL3676003.pdb
REMARK                            x       y       z     vdW  Elec       q    Type
REMARK                         _______ _______ _______ _____ _____    ______ ____
ROOT
ATOM      1  C   LIG    1      -20.431  77.085  30.621  0.00  0.00    +0.100 A 
ATOM      2  C   LIG    1      -19.945  77.714  31.756  0.00  0.00    +0.170 A 
ATOM      3  N   LIG    1      -20.583  78.335  32.800  0.00  0.00    -0.212 NA
ATOM      4  C   LIG    1      -19.846  78.818  33.778  0.00  0.00    +0.126 A 
ATOM      5  C   LIG    1      -18.339  78.697  33.777  0.00  0.00    +0.063 A 
ATOM      6  C   LIG    1      -17.771  78.099  32.725  0.00  0.00    +0.118 A 
ATOM      7  N   LIG    1      -18.556  77.599  31.700  0.00  0.00    -0.221 N 
ATOM      8  N   LIG    1      -18.142  76.951  30.587  0.00  0.00    -0.173 NA
ATOM      9  C   LIG    1      -19.273  76.624  29.961  0.00  0.00    +0.150 A 
ENDROOT
BRANCH   4  10
ATOM     10  N   LIG    1      -20.471  79.446  34.845  0.00  0.00    -0.308 N 
ATOM     11  C   LIG    1      -21.748  80.162  34.711  0.00  0.00    +0.107 C 
ATOM     12  C   LIG    1      -21.482  81.443  35.518  0.00  0.00    +0.029 C 
ATOM     13  C   LIG    1      -20.640  80.950  36.682  0.00  0.00    +0.021 C 
ATOM     14  C   LIG    1      -19.754  79.885  36.046  0.00  0.00    +0.107 C 
BRANCH  11  15
ATOM     15  C   LIG    1      -22.919  79.344  35.233  0.00  0.00    -0.006 A 
ATOM     16  C   LIG    1      -24.164  79.942  35.483  0.00  0.00    +0.046 A 
ATOM     17  C   LIG    1      -25.219  79.172  35.961  0.00  0.00    +0.142 A 
ATOM     18  F   LIG    1      -26.405  79.738  36.214  0.00  0.00    -0.204 F 
ATOM     19  C   LIG    1      -25.024  77.821  36.173  0.00  0.00    +0.149 A 
ATOM     20  N   LIG    1      -23.852  77.196  35.932  0.00  0.00    -0.260 NA
ATOM     21  C   LIG    1      -22.839  77.968  35.459  0.00  0.00    +0.116 A 
ENDBRANCH  11  15
ENDBRANCH   4  10
BRANCH   1  24
ATOM     22  N   LIG    1      -22.750  77.190  31.160  0.00  0.00    -0.300 N 
ATOM     23  H   LIG    1      -22.398  77.489  32.069  0.00  0.00    +0.150 HD
ATOM     24  C   LIG    1      -21.806  76.919  30.199  0.00  0.00    +0.250 C 
ATOM     25  O   LIG    1      -22.108  76.574  29.057  0.00  0.00    -0.270 OA
BRANCH  22  27
ATOM     26  C   LIG    1      -24.667  78.399  30.262  0.00  0.00    +0.037 C 
ATOM     27  C   LIG    1      -24.195  77.096  30.913  0.00  0.00    +0.174 C 
BRANCH  27  28
ATOM     28  C   LIG    1      -25.078  76.732  32.140  0.00  0.00    +0.407 C 
ATOM     29  F   LIG    1      -25.460  77.809  32.859  0.00  0.00    -0.169 F 
ATOM     30  F   LIG    1      -24.421  75.886  32.970  0.00  0.00    -0.169 F 
ATOM     31  F   LIG    1      -26.217  76.098  31.765  0.00  0.00    -0.169 F 
ENDBRANCH  27  28
ENDBRANCH  22  27
ENDBRANCH   1  24
TORSDOF 5
ENDMDL
MODEL 6
REMARK VINA RESULT:      -5.9     18.435     21.539
REMARK  Name = pdb/CHEMBL3676003.pdb
REMARK                            x       y       z     vdW  Elec       q    Type
REMARK                         _______ _______ _______ _____ _____    ______ ____
ROOT
ATOM      1  C   LIG    1      -19.291  82.251  13.645  0.00  0.00    +0.100 A 
ATOM      2  C   LIG    1      -19.400  83.630  13.555  0.00  0.00    +0.170 A 
ATOM      3  N   LIG    1      -20.469  84.475  13.719  0.00  0.00    -0.212 NA
ATOM      4  C   LIG    1      -20.260  85.769  13.607  0.00  0.00    +0.126 A 
ATOM      5  C   LIG    1      -18.888  86.334  13.314  0.00  0.00    +0.063 A 
ATOM      6  C   LIG    1      -17.888  85.462  13.144  0.00  0.00    +0.118 A 
ATOM      7  N   LIG    1      -18.121  84.103  13.260  0.00  0.00    -0.221 N 
ATOM      8  N   LIG    1      -17.221  83.100  13.143  0.00  0.00    -0.173 NA
ATOM      9  C   LIG    1      -17.926  81.998  13.401  0.00  0.00    +0.150 A 
ENDROOT
BRANCH   4  10
ATOM     10  N   LIG    1      -21.325  86.641  13.774  0.00  0.00    -0.308 N 
ATOM     11  C   LIG    1      -21.841  87.485  12.687  0.00  0.00    +0.107 C 
ATOM     12  C   LIG    1      -22.032  88.836  13.395  0.00  0.00    +0.029 C 
ATOM     13  C   LIG    1      -22.524  88.437  14.776  0.00  0.00    +0.021 C 
ATOM     14  C   LIG    1      -21.725  87.175  15.079  0.00  0.00    +0.107 C 
BRANCH  11  15
ATOM     15  C   LIG    1      -23.121  86.925  12.087  0.00  0.00    -0.006 A 
ATOM     16  C   LIG    1      -23.468  85.575  12.253  0.00  0.00    +0.046 A 
ATOM     17  C   LIG    1      -24.644  85.088  11.694  0.00  0.00    +0.142 A 
ATOM     18  F   LIG    1      -24.974  83.798  11.837  0.00  0.00    -0.204 F 
ATOM     19  C   LIG    1      -25.461  85.949  10.988  0.00  0.00    +0.149 A 
ATOM     20  N   LIG    1      -25.181  87.259  10.816  0.00  0.00    -0.260 NA
ATOM     21  C   LIG    1      -24.031  87.712  11.377  0.00  0.00    +0.116 A 
ENDBRANCH  11  15
ENDBRANCH   4  10
BRANCH   1  24
ATOM     22  N   LIG    1      -21.490  81.801  14.445  0.00  0.00    -0.300 N 
ATOM     23  H   LIG    1      -21.522  82.814  14.562  0.00  0.00    +0.150 HD
ATOM     24  C   LIG    1      -20.326  81.280  13.935  0.00  0.00    +0.250 C 
ATOM     25  O   LIG    1      -20.178  80.077  13.725  0.00  0.00    -0.270 OA
BRANCH  22  27
ATOM     26  C   LIG    1      -23.928  81.768  14.465  0.00  0.00    +0.037 C 
ATOM     27  C   LIG    1      -22.658  80.974  14.782  0.00  0.00    +0.174 C 
BRANCH  27  28
ATOM     28  C   LIG    1      -22.700  80.405  16.228  0.00  0.00    +0.407 C 
ATOM     29  F   LIG    1      -23.792  79.650  16.472  0.00  0.00    -0.169 F 
ATOM     30  F   LIG    1      -22.672  81.407  17.140  0.00  0.00    -0.169 F 
ATOM     31  F   LIG    1      -21.624  79.620  16.486  0.00  0.00    -0.169 F 
ENDBRANCH  27  28
ENDBRANCH  22  27
ENDBRANCH   1  24
TORSDOF 5
ENDMDL
MODEL 7
REMARK VINA RESULT:      -5.7     18.435     21.032
REMARK  Name = pdb/CHEMBL3676003.pdb
REMARK                            x       y       z     vdW  Elec       q    Type
REMARK                         _______ _______ _______ _____ _____    ______ ____
ROOT
ATOM      1  C   LIG    1      -24.424  82.167  12.182  0.00  0.00    +0.100 A 
ATOM      2  C   LIG    1      -24.287  83.546  12.163  0.00  0.00    +0.170 A 
ATOM      3  N   LIG    1      -23.409  84.386  12.801  0.00  0.00    -0.212 NA
ATOM      4  C   LIG    1      -23.495  85.676  12.555  0.00  0.00    +0.126 A 
ATOM      5  C   LIG    1      -24.519  86.239  11.595  0.00  0.00    +0.063 A 
ATOM      6  C   LIG    1      -25.360  85.375  11.017  0.00  0.00    +0.118 A 
ATOM      7  N   LIG    1      -25.263  84.022  11.287  0.00  0.00    -0.221 N 
ATOM      8  N   LIG    1      -26.015  83.023  10.771  0.00  0.00    -0.173 NA
ATOM      9  C   LIG    1      -25.488  81.915  11.293  0.00  0.00    +0.150 A 
ENDROOT
BRANCH   4  10
ATOM     10  N   LIG    1      -22.616  86.542  13.186  0.00  0.00    -0.308 N 
ATOM     11  C   LIG    1      -21.720  86.117  14.271  0.00  0.00    +0.107 C 
ATOM     12  C   LIG    1      -21.872  87.267  15.280  0.00  0.00    +0.029 C 
ATOM     13  C   LIG    1      -21.981  88.494  14.391  0.00  0.00    +0.021 C 
ATOM     14  C   LIG    1      -22.801  87.996  13.207  0.00  0.00    +0.107 C 
BRANCH  11  15
ATOM     15  C   LIG    1      -20.293  85.913  13.789  0.00  0.00    -0.006 A 
ATOM     16  C   LIG    1      -19.784  84.626  13.557  0.00  0.00    +0.046 A 
ATOM     17  C   LIG    1      -18.475  84.468  13.116  0.00  0.00    +0.142 A 
ATOM     18  F   LIG    1      -17.978  83.242  12.905  0.00  0.00    -0.204 F 
ATOM     19  C   LIG    1      -17.696  85.588  12.902  0.00  0.00    +0.149 A 
ATOM     20  N   LIG    1      -18.144  86.848  13.093  0.00  0.00    -0.260 NA
ATOM     21  C   LIG    1      -19.428  86.977  13.517  0.00  0.00    +0.116 A 
ENDBRANCH  11  15
ENDBRANCH   4  10
BRANCH   1  24
ATOM     22  N   LIG    1      -23.483  81.479  14.261  0.00  0.00    -0.300 N 
ATOM     23  H   LIG    1      -23.918  82.337  14.601  0.00  0.00    +0.150 HD
ATOM     24  C   LIG    1      -23.654  81.193  12.929  0.00  0.00    +0.250 C 
ATOM     25  O   LIG    1      -23.198  80.175  12.408  0.00  0.00    -0.270 OA
BRANCH  22  27
ATOM     26  C   LIG    1      -23.742  79.644  15.845  0.00  0.00    +0.037 C 
ATOM     27  C   LIG    1      -22.748  80.600  15.181  0.00  0.00    +0.174 C 
BRANCH  27  28
ATOM     28  C   LIG    1      -21.860  81.310  16.243  0.00  0.00    +0.407 C 
ATOM     29  F   LIG    1      -21.114  82.312  15.730  0.00  0.00    -0.169 F 
ATOM     30  F   LIG    1      -21.022  80.426  16.836  0.00  0.00    -0.169 F 
ATOM     31  F   LIG    1      -22.608  81.856  17.233  0.00  0.00    -0.169 F 
ENDBRANCH  27  28
ENDBRANCH  22  27
ENDBRANCH   1  24
TORSDOF 5
ENDMDL
MODEL 8
REMARK VINA RESULT:      -5.6     13.245     17.260
REMARK  Name = pdb/CHEMBL3676003.pdb
REMARK                            x       y       z     vdW  Elec       q    Type
REMARK                         _______ _______ _______ _____ _____    ______ ____
ROOT
ATOM      1  C   LIG    1      -37.605  76.526  26.430  0.00  0.00    +0.100 A 
ATOM      2  C   LIG    1      -38.158  75.458  25.743  0.00  0.00    +0.170 A 
ATOM      3  N   LIG    1      -37.888  74.112  25.775  0.00  0.00    -0.212 NA
ATOM      4  C   LIG    1      -38.618  73.315  25.024  0.00  0.00    +0.126 A 
ATOM      5  C   LIG    1      -39.733  73.842  24.149  0.00  0.00    +0.063 A 
ATOM      6  C   LIG    1      -39.938  75.164  24.143  0.00  0.00    +0.118 A 
ATOM      7  N   LIG    1      -39.161  75.992  24.933  0.00  0.00    -0.221 N 
ATOM      8  N   LIG    1      -39.256  77.336  25.060  0.00  0.00    -0.173 NA
ATOM      9  C   LIG    1      -38.338  77.642  25.977  0.00  0.00    +0.150 A 
ENDROOT
BRANCH   4  10
ATOM     10  N   LIG    1      -38.365  71.952  25.044  0.00  0.00    -0.308 N 
ATOM     11  C   LIG    1      -37.055  71.381  24.701  0.00  0.00    +0.107 C 
ATOM     12  C   LIG    1      -37.449  70.194  23.806  0.00  0.00    +0.029 C 
ATOM     13  C   LIG    1      -38.714  69.671  24.463  0.00  0.00    +0.021 C 
ATOM     14  C   LIG    1      -39.419  70.941  24.924  0.00  0.00    +0.107 C 
BRANCH  11  15
ATOM     15  C   LIG    1      -36.266  70.977  25.937  0.00  0.00    -0.006 A 
ATOM     16  C   LIG    1      -35.030  70.323  25.824  0.00  0.00    +0.046 A 
ATOM     17  C   LIG    1      -34.329  69.964  26.970  0.00  0.00    +0.142 A 
ATOM     18  F   LIG    1      -33.155  69.328  26.871  0.00  0.00    -0.204 F 
ATOM     19  C   LIG    1      -34.861  70.268  28.208  0.00  0.00    +0.149 A 
ATOM     20  N   LIG    1      -36.037  70.911  28.369  0.00  0.00    -0.260 NA
ATOM     21  C   LIG    1      -36.700  71.257  27.235  0.00  0.00    +0.116 A 
ENDBRANCH  11  15
ENDBRANCH   4  10
BRANCH   1  24
ATOM     22  N   LIG    1      -35.448  75.739  27.068  0.00  0.00    -0.300 N 
ATOM     23  H   LIG    1      -35.497  75.253  26.173  0.00  0.00    +0.150 HD
ATOM     24  C   LIG    1      -36.530  76.517  27.400  0.00  0.00    +0.250 C 
ATOM     25  O   LIG    1      -36.577  77.171  28.442  0.00  0.00    -0.270 OA
BRANCH  22  27
ATOM     26  C   LIG    1      -33.098  76.364  27.246  0.00  0.00    +0.037 C 
ATOM     27  C   LIG    1      -34.255  75.620  27.918  0.00  0.00    +0.174 C 
BRANCH  27  28
ATOM     28  C   LIG    1      -33.837  74.175  28.311  0.00  0.00    +0.407 C 
ATOM     29  F   LIG    1      -32.598  74.105  28.845  0.00  0.00    -0.169 F 
ATOM     30  F   LIG    1      -33.876  73.353  27.235  0.00  0.00    -0.169 F 
ATOM     31  F   LIG    1      -34.681  73.645  29.231  0.00  0.00    -0.169 F 
ENDBRANCH  27  28
ENDBRANCH  22  27
ENDBRANCH   1  24
TORSDOF 5
ENDMDL
MODEL 9
REMARK VINA RESULT:      -5.6     13.137     17.091
REMARK  Name = pdb/CHEMBL3676003.pdb
REMARK                            x       y       z     vdW  Elec       q    Type
REMARK                         _______ _______ _______ _____ _____    ______ ____
ROOT
ATOM      1  C   LIG    1      -33.832  73.574  28.330  0.00  0.00    +0.100 A 
ATOM      2  C   LIG    1      -34.493  74.737  27.970  0.00  0.00    +0.170 A 
ATOM      3  N   LIG    1      -35.680  74.950  27.316  0.00  0.00    -0.212 NA
ATOM      4  C   LIG    1      -36.081  76.192  27.145  0.00  0.00    +0.126 A 
ATOM      5  C   LIG    1      -35.277  77.367  27.654  0.00  0.00    +0.063 A 
ATOM      6  C   LIG    1      -34.119  77.101  28.268  0.00  0.00    +0.118 A 
ATOM      7  N   LIG    1      -33.706  75.791  28.436  0.00  0.00    -0.221 N 
ATOM      8  N   LIG    1      -32.582  75.355  29.052  0.00  0.00    -0.173 NA
ATOM      9  C   LIG    1      -32.681  74.026  29.006  0.00  0.00    +0.150 A 
ENDROOT
BRANCH   4  10
ATOM     10  N   LIG    1      -37.280  76.429  26.490  0.00  0.00    -0.308 N 
ATOM     11  C   LIG    1      -37.608  75.828  25.189  0.00  0.00    +0.107 C 
ATOM     12  C   LIG    1      -38.207  77.023  24.429  0.00  0.00    +0.029 C 
ATOM     13  C   LIG    1      -38.988  77.760  25.504  0.00  0.00    +0.021 C 
ATOM     14  C   LIG    1      -38.107  77.613  26.738  0.00  0.00    +0.107 C 
BRANCH  11  15
ATOM     15  C   LIG    1      -38.562  74.652  25.327  0.00  0.00    -0.006 A 
ATOM     16  C   LIG    1      -39.277  74.167  24.220  0.00  0.00    +0.046 A 
ATOM     17  C   LIG    1      -40.143  73.091  24.373  0.00  0.00    +0.142 A 
ATOM     18  F   LIG    1      -40.837  72.631  23.325  0.00  0.00    -0.204 F 
ATOM     19  C   LIG    1      -40.279  72.507  25.617  0.00  0.00    +0.149 A 
ATOM     20  N   LIG    1      -39.602  72.925  26.708  0.00  0.00    -0.260 NA
ATOM     21  C   LIG    1      -38.756  73.973  26.532  0.00  0.00    +0.116 A 
ENDBRANCH  11  15
ENDBRANCH   4  10
BRANCH   1  24
ATOM     22  N   LIG    1      -34.851  71.975  26.886  0.00  0.00    -0.300 N 
ATOM     23  H   LIG    1      -34.971  72.784  26.278  0.00  0.00    +0.150 HD
ATOM     24  C   LIG    1      -34.225  72.201  28.088  0.00  0.00    +0.250 C 
ATOM     25  O   LIG    1      -34.002  71.299  28.895  0.00  0.00    -0.270 OA
BRANCH  22  27
ATOM     26  C   LIG    1      -34.128  69.914  25.802  0.00  0.00    +0.037 C 
ATOM     27  C   LIG    1      -35.304  70.644  26.457  0.00  0.00    +0.174 C 
BRANCH  27  28
ATOM     28  C   LIG    1      -36.561  70.611  25.542  0.00  0.00    +0.407 C 
ATOM     29  F   LIG    1      -36.786  71.779  24.903  0.00  0.00    -0.169 F 
ATOM     30  F   LIG    1      -37.669  70.307  26.260  0.00  0.00    -0.169 F 
ATOM     31  F   LIG    1      -36.453  69.662  24.580  0.00  0.00    -0.169 F 
ENDBRANCH  27  28
ENDBRANCH  22  27
ENDBRANCH   1  24
TORSDOF 5
ENDMDL
