MODEL 1
REMARK VINA RESULT:      -7.1      0.000      0.000
REMARK  Name = pdb/CHEMBL3582442.pdb
REMARK                            x       y       z     vdW  Elec       q    Type
REMARK                         _______ _______ _______ _____ _____    ______ ____
ROOT
ATOM      1  C   LIG    1      -34.086  75.730  27.921  0.00  0.00    +0.093 A 
ATOM      2  N   LIG    1      -35.364  75.216  27.727  0.00  0.00    -0.211 N 
ATOM      3  N   LIG    1      -36.397  75.822  27.056  0.00  0.00    -0.149 NA
ATOM      4  C   LIG    1      -37.512  75.133  27.006  0.00  0.00    +0.143 A 
ATOM      5  C   LIG    1      -37.656  73.815  27.719  0.00  0.00    +0.049 A 
ATOM      6  C   LIG    1      -36.603  73.272  28.321  0.00  0.00    +0.051 A 
ATOM      7  C   LIG    1      -35.378  73.959  28.309  0.00  0.00    +0.155 A 
ATOM      8  N   LIG    1      -34.206  73.611  28.782  0.00  0.00    -0.234 NA
ATOM      9  C   LIG    1      -33.404  74.692  28.543  0.00  0.00    +0.141 A 
ENDROOT
BRANCH   1  14
ATOM     10  C   LIG    1      -33.691  79.478  27.770  0.00  0.00    +0.122 A 
ATOM     11  N   LIG    1      -32.792  79.643  26.780  0.00  0.00    -0.240 NA
ATOM     12  C   LIG    1      -32.301  78.536  26.185  0.00  0.00    +0.113 A 
ATOM     13  C   LIG    1      -32.671  77.245  26.516  0.00  0.00    +0.030 A 
ATOM     14  C   LIG    1      -33.603  77.061  27.533  0.00  0.00    +0.007 A 
ATOM     15  C   LIG    1      -34.114  78.204  28.161  0.00  0.00    +0.053 A 
BRANCH  10  19
ATOM     16  C   LIG    1      -36.196  82.282  29.730  0.00  0.00    +0.118 C 
ATOM     17  C   LIG    1      -35.761  82.507  28.284  0.00  0.00    +0.050 C 
ATOM     18  C   LIG    1      -35.282  81.216  27.620  0.00  0.00    +0.109 C 
ATOM     19  N   LIG    1      -34.228  80.601  28.450  0.00  0.00    -0.315 N 
ATOM     20  C   LIG    1      -34.724  80.238  29.789  0.00  0.00    +0.109 C 
ATOM     21  C   LIG    1      -35.142  81.513  30.524  0.00  0.00    +0.050 C 
BRANCH  16  22
ATOM     22  O   LIG    1      -37.435  81.573  29.741  0.00  0.00    -0.392 OA
ATOM     23  H   LIG    1      -37.336  80.819  30.349  0.00  0.00    +0.210 HD
ENDBRANCH  16  22
ENDBRANCH  10  19
ENDBRANCH   1  14
BRANCH   4  24
ATOM     24  N   LIG    1      -38.583  75.639  26.283  0.00  0.00    -0.307 N 
ATOM     25  C   LIG    1      -38.727  75.509  24.827  0.00  0.00    +0.105 C 
ATOM     26  C   LIG    1      -39.568  76.723  24.418  0.00  0.00    +0.029 C 
ATOM     27  C   LIG    1      -40.417  77.000  25.647  0.00  0.00    +0.021 C 
ATOM     28  C   LIG    1      -39.463  76.690  26.798  0.00  0.00    +0.107 C 
BRANCH  25  29
ATOM     29  C   LIG    1      -39.358  74.179  24.442  0.00  0.00    -0.024 A 
ATOM     30  C   LIG    1      -40.624  74.163  23.835  0.00  0.00    +0.043 A 
ATOM     31  C   LIG    1      -41.192  72.955  23.433  0.00  0.00    +0.124 A 
ATOM     32  F   LIG    1      -42.394  72.958  22.843  0.00  0.00    -0.205 F 
ATOM     33  C   LIG    1      -40.530  71.750  23.625  0.00  0.00    +0.038 A 
ATOM     34  C   LIG    1      -39.276  71.748  24.229  0.00  0.00    +0.003 A 
ATOM     35  C   LIG    1      -38.698  72.953  24.636  0.00  0.00    +0.005 A 
ENDBRANCH  25  29
ENDBRANCH   4  24
TORSDOF 5
ENDMDL
MODEL 2
REMARK VINA RESULT:      -6.9     13.293     17.106
REMARK  Name = pdb/CHEMBL3582442.pdb
REMARK                            x       y       z     vdW  Elec       q    Type
REMARK                         _______ _______ _______ _____ _____    ______ ____
ROOT
ATOM      1  C   LIG    1      -25.161  77.440  32.483  0.00  0.00    +0.093 A 
ATOM      2  N   LIG    1      -23.923  77.425  31.852  0.00  0.00    -0.211 N 
ATOM      3  N   LIG    1      -22.693  77.490  32.458  0.00  0.00    -0.149 NA
ATOM      4  C   LIG    1      -21.665  77.457  31.644  0.00  0.00    +0.143 A 
ATOM      5  C   LIG    1      -21.844  77.441  30.149  0.00  0.00    +0.049 A 
ATOM      6  C   LIG    1      -23.064  77.344  29.632  0.00  0.00    +0.051 A 
ATOM      7  C   LIG    1      -24.171  77.292  30.495  0.00  0.00    +0.155 A 
ATOM      8  N   LIG    1      -25.447  77.147  30.230  0.00  0.00    -0.234 NA
ATOM      9  C   LIG    1      -26.063  77.232  31.448  0.00  0.00    +0.141 A 
ENDROOT
BRANCH   1  14
ATOM     10  C   LIG    1      -25.090  78.893  35.964  0.00  0.00    +0.122 A 
ATOM     11  N   LIG    1      -25.789  77.989  36.678  0.00  0.00    -0.240 NA
ATOM     12  C   LIG    1      -26.301  76.927  36.021  0.00  0.00    +0.113 A 
ATOM     13  C   LIG    1      -26.142  76.700  34.666  0.00  0.00    +0.030 A 
ATOM     14  C   LIG    1      -25.417  77.622  33.917  0.00  0.00    +0.007 A 
ATOM     15  C   LIG    1      -24.887  78.732  34.590  0.00  0.00    +0.053 A 
BRANCH  10  19
ATOM     16  C   LIG    1      -24.161  82.832  37.228  0.00  0.00    +0.118 C 
ATOM     17  C   LIG    1      -23.249  82.095  36.251  0.00  0.00    +0.050 C 
ATOM     18  C   LIG    1      -23.964  80.929  35.566  0.00  0.00    +0.109 C 
ATOM     19  N   LIG    1      -24.545  80.042  36.592  0.00  0.00    -0.315 N 
ATOM     20  C   LIG    1      -25.550  80.738  37.415  0.00  0.00    +0.109 C 
ATOM     21  C   LIG    1      -24.863  81.868  38.183  0.00  0.00    +0.050 C 
BRANCH  16  22
ATOM     22  O   LIG    1      -25.126  83.585  36.493  0.00  0.00    -0.392 OA
ATOM     23  H   LIG    1      -26.002  83.382  36.865  0.00  0.00    +0.210 HD
ENDBRANCH  16  22
ENDBRANCH  10  19
ENDBRANCH   1  14
BRANCH   4  24
ATOM     24  N   LIG    1      -20.385  77.443  32.178  0.00  0.00    -0.307 N 
ATOM     25  C   LIG    1      -19.740  78.607  32.801  0.00  0.00    +0.105 C 
ATOM     26  C   LIG    1      -18.241  78.370  32.590  0.00  0.00    +0.029 C 
ATOM     27  C   LIG    1      -18.119  76.856  32.558  0.00  0.00    +0.021 C 
ATOM     28  C   LIG    1      -19.389  76.425  31.829  0.00  0.00    +0.107 C 
BRANCH  25  29
ATOM     29  C   LIG    1      -20.129  78.747  34.265  0.00  0.00    -0.024 A 
ATOM     30  C   LIG    1      -19.893  79.960  34.932  0.00  0.00    +0.043 A 
ATOM     31  C   LIG    1      -20.288  80.117  36.258  0.00  0.00    +0.124 A 
ATOM     32  F   LIG    1      -20.068  81.285  36.876  0.00  0.00    -0.205 F 
ATOM     33  C   LIG    1      -20.915  79.089  36.949  0.00  0.00    +0.038 A 
ATOM     34  C   LIG    1      -21.154  77.879  36.304  0.00  0.00    +0.003 A 
ATOM     35  C   LIG    1      -20.760  77.710  34.975  0.00  0.00    +0.005 A 
ENDBRANCH  25  29
ENDBRANCH   4  24
TORSDOF 5
ENDMDL
MODEL 3
REMARK VINA RESULT:      -6.9     12.616     16.842
REMARK  Name = pdb/CHEMBL3582442.pdb
REMARK                            x       y       z     vdW  Elec       q    Type
REMARK                         _______ _______ _______ _____ _____    ______ ____
ROOT
ATOM      1  C   LIG    1      -21.154  76.971  30.850  0.00  0.00    +0.093 A 
ATOM      2  N   LIG    1      -20.424  77.684  31.795  0.00  0.00    -0.211 N 
ATOM      3  N   LIG    1      -20.923  78.329  32.899  0.00  0.00    -0.149 NA
ATOM      4  C   LIG    1      -20.029  78.933  33.645  0.00  0.00    +0.143 A 
ATOM      5  C   LIG    1      -18.577  78.984  33.250  0.00  0.00    +0.049 A 
ATOM      6  C   LIG    1      -18.160  78.308  32.185  0.00  0.00    +0.051 A 
ATOM      7  C   LIG    1      -19.093  77.584  31.424  0.00  0.00    +0.155 A 
ATOM      8  N   LIG    1      -18.919  76.811  30.379  0.00  0.00    -0.234 NA
ATOM      9  C   LIG    1      -20.181  76.426  30.022  0.00  0.00    +0.141 A 
ENDROOT
BRANCH   1  14
ATOM     10  C   LIG    1      -24.631  75.561  31.251  0.00  0.00    +0.122 A 
ATOM     11  N   LIG    1      -25.395  76.470  30.614  0.00  0.00    -0.240 NA
ATOM     12  C   LIG    1      -24.781  77.546  30.081  0.00  0.00    +0.113 A 
ATOM     13  C   LIG    1      -23.417  77.770  30.134  0.00  0.00    +0.030 A 
ATOM     14  C   LIG    1      -22.615  76.836  30.784  0.00  0.00    +0.007 A 
ATOM     15  C   LIG    1      -23.245  75.718  31.346  0.00  0.00    +0.053 A 
BRANCH  10  19
ATOM     16  C   LIG    1      -26.949  72.126  32.150  0.00  0.00    +0.118 C 
ATOM     17  C   LIG    1      -27.278  73.474  32.787  0.00  0.00    +0.050 C 
ATOM     18  C   LIG    1      -26.668  74.641  32.010  0.00  0.00    +0.109 C 
ATOM     19  N   LIG    1      -25.219  74.418  31.852  0.00  0.00    -0.315 N 
ATOM     20  C   LIG    1      -24.931  73.195  31.084  0.00  0.00    +0.109 C 
ATOM     21  C   LIG    1      -25.455  71.987  31.863  0.00  0.00    +0.050 C 
BRANCH  16  22
ATOM     22  O   LIG    1      -27.697  71.983  30.942  0.00  0.00    -0.392 OA
ATOM     23  H   LIG    1      -28.625  72.197  31.145  0.00  0.00    +0.210 HD
ENDBRANCH  16  22
ENDBRANCH  10  19
ENDBRANCH   1  14
BRANCH   4  24
ATOM     24  N   LIG    1      -20.438  79.546  34.821  0.00  0.00    -0.307 N 
ATOM     25  C   LIG    1      -21.646  80.374  34.940  0.00  0.00    +0.105 C 
ATOM     26  C   LIG    1      -21.330  81.344  36.084  0.00  0.00    +0.029 C 
ATOM     27  C   LIG    1      -20.370  80.561  36.962  0.00  0.00    +0.021 C 
ATOM     28  C   LIG    1      -19.533  79.786  35.948  0.00  0.00    +0.107 C 
BRANCH  25  29
ATOM     29  C   LIG    1      -22.884  79.527  35.191  0.00  0.00    -0.024 A 
ATOM     30  C   LIG    1      -23.738  79.213  34.122  0.00  0.00    +0.043 A 
ATOM     31  C   LIG    1      -24.849  78.398  34.329  0.00  0.00    +0.124 A 
ATOM     32  F   LIG    1      -25.645  78.096  33.295  0.00  0.00    -0.205 F 
ATOM     33  C   LIG    1      -25.140  77.885  35.586  0.00  0.00    +0.038 A 
ATOM     34  C   LIG    1      -24.306  78.190  36.658  0.00  0.00    +0.003 A 
ATOM     35  C   LIG    1      -23.191  79.006  36.461  0.00  0.00    +0.005 A 
ENDBRANCH  25  29
ENDBRANCH   4  24
TORSDOF 5
ENDMDL
MODEL 4
REMARK VINA RESULT:      -6.7      4.084      9.528
REMARK  Name = pdb/CHEMBL3582442.pdb
REMARK                            x       y       z     vdW  Elec       q    Type
REMARK                         _______ _______ _______ _____ _____    ______ ____
ROOT
ATOM      1  C   LIG    1      -39.674  76.249  24.406  0.00  0.00    +0.093 A 
ATOM      2  N   LIG    1      -39.136  77.059  25.400  0.00  0.00    -0.211 N 
ATOM      3  N   LIG    1      -38.366  76.652  26.461  0.00  0.00    -0.149 NA
ATOM      4  C   LIG    1      -37.973  77.609  27.267  0.00  0.00    +0.143 A 
ATOM      5  C   LIG    1      -38.423  79.033  27.077  0.00  0.00    +0.049 A 
ATOM      6  C   LIG    1      -39.140  79.362  26.008  0.00  0.00    +0.051 A 
ATOM      7  C   LIG    1      -39.496  78.360  25.089  0.00  0.00    +0.155 A 
ATOM      8  N   LIG    1      -40.145  78.444  23.953  0.00  0.00    -0.234 NA
ATOM      9  C   LIG    1      -40.255  77.151  23.523  0.00  0.00    +0.141 A 
ENDROOT
BRANCH   1  14
ATOM     10  C   LIG    1      -40.625  72.667  23.702  0.00  0.00    +0.122 A 
ATOM     11  N   LIG    1      -39.601  71.976  24.240  0.00  0.00    -0.240 NA
ATOM     12  C   LIG    1      -38.596  72.678  24.804  0.00  0.00    +0.113 A 
ATOM     13  C   LIG    1      -38.557  74.058  24.880  0.00  0.00    +0.030 A 
ATOM     14  C   LIG    1      -39.611  74.784  24.333  0.00  0.00    +0.007 A 
ATOM     15  C   LIG    1      -40.656  74.064  23.739  0.00  0.00    +0.053 A 
BRANCH  10  19
ATOM     16  C   LIG    1      -43.374  70.991  20.943  0.00  0.00    +0.118 C 
ATOM     17  C   LIG    1      -43.730  72.254  21.724  0.00  0.00    +0.050 C 
ATOM     18  C   LIG    1      -42.489  72.952  22.282  0.00  0.00    +0.109 C 
ATOM     19  N   LIG    1      -41.701  71.989  23.074  0.00  0.00    -0.315 N 
ATOM     20  C   LIG    1      -41.226  70.861  22.254  0.00  0.00    +0.109 C 
ATOM     21  C   LIG    1      -42.437  70.082  21.736  0.00  0.00    +0.050 C 
BRANCH  16  22
ATOM     22  O   LIG    1      -42.771  71.360  19.704  0.00  0.00    -0.392 OA
ATOM     23  H   LIG    1      -42.850  72.326  19.615  0.00  0.00    +0.210 HD
ENDBRANCH  16  22
ENDBRANCH  10  19
ENDBRANCH   1  14
BRANCH   4  24
ATOM     24  N   LIG    1      -37.129  77.295  28.322  0.00  0.00    -0.307 N 
ATOM     25  C   LIG    1      -35.865  76.561  28.175  0.00  0.00    +0.105 C 
ATOM     26  C   LIG    1      -35.670  75.865  29.527  0.00  0.00    +0.029 C 
ATOM     27  C   LIG    1      -36.364  76.792  30.510  0.00  0.00    +0.021 C 
ATOM     28  C   LIG    1      -37.573  77.286  29.719  0.00  0.00    +0.107 C 
BRANCH  25  29
ATOM     29  C   LIG    1      -34.718  77.486  27.801  0.00  0.00    -0.024 A 
ATOM     30  C   LIG    1      -33.604  76.970  27.119  0.00  0.00    +0.043 A 
ATOM     31  C   LIG    1      -32.569  77.817  26.728  0.00  0.00    +0.124 A 
ATOM     32  F   LIG    1      -31.521  77.311  26.066  0.00  0.00    -0.205 F 
ATOM     33  C   LIG    1      -32.609  79.178  27.003  0.00  0.00    +0.038 A 
ATOM     34  C   LIG    1      -33.705  79.705  27.682  0.00  0.00    +0.003 A 
ATOM     35  C   LIG    1      -34.747  78.865  28.079  0.00  0.00    +0.005 A 
ENDBRANCH  25  29
ENDBRANCH   4  24
TORSDOF 5
ENDMDL
MODEL 5
REMARK VINA RESULT:      -6.6      4.937      7.914
REMARK  Name = pdb/CHEMBL3582442.pdb
REMARK                            x       y       z     vdW  Elec       q    Type
REMARK                         _______ _______ _______ _____ _____    ______ ____
ROOT
ATOM      1  C   LIG    1      -36.045  68.297  24.515  0.00  0.00    +0.093 A 
ATOM      2  N   LIG    1      -36.940  68.589  23.492  0.00  0.00    -0.211 N 
ATOM      3  N   LIG    1      -38.159  69.207  23.621  0.00  0.00    -0.149 NA
ATOM      4  C   LIG    1      -38.823  69.374  22.502  0.00  0.00    +0.143 A 
ATOM      5  C   LIG    1      -38.309  68.835  21.193  0.00  0.00    +0.049 A 
ATOM      6  C   LIG    1      -37.105  68.277  21.137  0.00  0.00    +0.051 A 
ATOM      7  C   LIG    1      -36.345  68.169  22.314  0.00  0.00    +0.155 A 
ATOM      8  N   LIG    1      -35.130  67.712  22.500  0.00  0.00    -0.234 NA
ATOM      9  C   LIG    1      -34.936  67.791  23.850  0.00  0.00    +0.141 A 
ENDROOT
BRANCH   1  14
ATOM     10  C   LIG    1      -36.023  69.896  27.933  0.00  0.00    +0.122 A 
ATOM     11  N   LIG    1      -36.542  68.930  28.716  0.00  0.00    -0.240 NA
ATOM     12  C   LIG    1      -36.921  67.777  28.126  0.00  0.00    +0.113 A 
ATOM     13  C   LIG    1      -36.796  67.517  26.773  0.00  0.00    +0.030 A 
ATOM     14  C   LIG    1      -36.255  68.503  25.954  0.00  0.00    +0.007 A 
ATOM     15  C   LIG    1      -35.865  69.707  26.556  0.00  0.00    +0.053 A 
BRANCH  10  19
ATOM     16  C   LIG    1      -34.399  73.748  28.640  0.00  0.00    +0.118 C 
ATOM     17  C   LIG    1      -33.720  72.503  29.205  0.00  0.00    +0.050 C 
ATOM     18  C   LIG    1      -34.153  71.231  28.476  0.00  0.00    +0.109 C 
ATOM     19  N   LIG    1      -35.626  71.139  28.488  0.00  0.00    -0.315 N 
ATOM     20  C   LIG    1      -36.254  72.271  27.786  0.00  0.00    +0.109 C 
ATOM     21  C   LIG    1      -35.911  73.564  28.529  0.00  0.00    +0.050 C 
BRANCH  16  22
ATOM     22  O   LIG    1      -33.844  74.045  27.359  0.00  0.00    -0.392 OA
ATOM     23  H   LIG    1      -33.433  74.926  27.415  0.00  0.00    +0.210 HD
ENDBRANCH  16  22
ENDBRANCH  10  19
ENDBRANCH   1  14
BRANCH   4  24
ATOM     24  N   LIG    1      -40.030  70.056  22.532  0.00  0.00    -0.307 N 
ATOM     25  C   LIG    1      -40.606  70.658  23.742  0.00  0.00    +0.105 C 
ATOM     26  C   LIG    1      -42.117  70.647  23.491  0.00  0.00    +0.029 C 
ATOM     27  C   LIG    1      -42.230  70.750  21.980  0.00  0.00    +0.021 C 
ATOM     28  C   LIG    1      -41.051  69.911  21.491  0.00  0.00    +0.107 C 
BRANCH  25  29
ATOM     29  C   LIG    1      -40.046  72.049  23.999  0.00  0.00    -0.024 A 
ATOM     30  C   LIG    1      -40.806  73.177  23.651  0.00  0.00    +0.043 A 
ATOM     31  C   LIG    1      -40.326  74.456  23.925  0.00  0.00    +0.124 A 
ATOM     32  F   LIG    1      -41.070  75.521  23.600  0.00  0.00    -0.205 F 
ATOM     33  C   LIG    1      -39.094  74.646  24.538  0.00  0.00    +0.038 A 
ATOM     34  C   LIG    1      -38.326  73.538  24.886  0.00  0.00    +0.003 A 
ATOM     35  C   LIG    1      -38.798  72.252  24.615  0.00  0.00    +0.005 A 
ENDBRANCH  25  29
ENDBRANCH   4  24
TORSDOF 5
ENDMDL
MODEL 6
REMARK VINA RESULT:      -6.6      4.880      8.467
REMARK  Name = pdb/CHEMBL3582442.pdb
REMARK                            x       y       z     vdW  Elec       q    Type
REMARK                         _______ _______ _______ _____ _____    ______ ____
ROOT
ATOM      1  C   LIG    1      -37.043  70.203  27.823  0.00  0.00    +0.093 A 
ATOM      2  N   LIG    1      -37.556  71.481  28.016  0.00  0.00    -0.211 N 
ATOM      3  N   LIG    1      -37.551  72.511  27.109  0.00  0.00    -0.149 NA
ATOM      4  C   LIG    1      -38.100  73.627  27.526  0.00  0.00    +0.143 A 
ATOM      5  C   LIG    1      -38.609  73.776  28.935  0.00  0.00    +0.049 A 
ATOM      6  C   LIG    1      -38.613  72.725  29.749  0.00  0.00    +0.051 A 
ATOM      7  C   LIG    1      -38.107  71.499  29.287  0.00  0.00    +0.155 A 
ATOM      8  N   LIG    1      -38.052  70.328  29.875  0.00  0.00    -0.234 NA
ATOM      9  C   LIG    1      -37.403  69.524  28.980  0.00  0.00    +0.141 A 
ENDROOT
BRANCH   1  14
ATOM     10  C   LIG    1      -36.312  68.724  24.430  0.00  0.00    +0.122 A 
ATOM     11  N   LIG    1      -34.965  68.688  24.406  0.00  0.00    -0.240 NA
ATOM     12  C   LIG    1      -34.303  69.167  25.479  0.00  0.00    +0.113 A 
ATOM     13  C   LIG    1      -34.917  69.679  26.608  0.00  0.00    +0.030 A 
ATOM     14  C   LIG    1      -36.307  69.717  26.649  0.00  0.00    +0.007 A 
ATOM     15  C   LIG    1      -37.004  69.227  25.536  0.00  0.00    +0.053 A 
BRANCH  10  19
ATOM     16  C   LIG    1      -38.137  68.163  20.645  0.00  0.00    +0.118 C 
ATOM     17  C   LIG    1      -38.932  68.745  21.812  0.00  0.00    +0.050 C 
ATOM     18  C   LIG    1      -38.021  69.300  22.907  0.00  0.00    +0.109 C 
ATOM     19  N   LIG    1      -37.066  68.255  23.324  0.00  0.00    -0.315 N 
ATOM     20  C   LIG    1      -36.195  67.832  22.215  0.00  0.00    +0.109 C 
ATOM     21  C   LIG    1      -37.058  67.195  21.124  0.00  0.00    +0.050 C 
BRANCH  16  22
ATOM     22  O   LIG    1      -37.548  69.229  19.901  0.00  0.00    -0.392 OA
ATOM     23  H   LIG    1      -38.023  70.046  20.133  0.00  0.00    +0.210 HD
ENDBRANCH  16  22
ENDBRANCH  10  19
ENDBRANCH   1  14
BRANCH   4  24
ATOM     24  N   LIG    1      -38.204  74.695  26.647  0.00  0.00    -0.307 N 
ATOM     25  C   LIG    1      -38.006  74.588  25.195  0.00  0.00    +0.105 C 
ATOM     26  C   LIG    1      -37.528  75.981  24.773  0.00  0.00    +0.029 C 
ATOM     27  C   LIG    1      -38.177  76.905  25.789  0.00  0.00    +0.021 C 
ATOM     28  C   LIG    1      -38.114  76.092  27.079  0.00  0.00    +0.107 C 
BRANCH  25  29
ATOM     29  C   LIG    1      -39.276  74.144  24.486  0.00  0.00    -0.024 A 
ATOM     30  C   LIG    1      -39.491  72.780  24.238  0.00  0.00    +0.043 A 
ATOM     31  C   LIG    1      -40.673  72.356  23.633  0.00  0.00    +0.124 A 
ATOM     32  F   LIG    1      -40.869  71.049  23.416  0.00  0.00    -0.205 F 
ATOM     33  C   LIG    1      -41.655  73.263  23.259  0.00  0.00    +0.038 A 
ATOM     34  C   LIG    1      -41.456  74.621  23.495  0.00  0.00    +0.003 A 
ATOM     35  C   LIG    1      -40.275  75.056  24.100  0.00  0.00    +0.005 A 
ENDBRANCH  25  29
ENDBRANCH   4  24
TORSDOF 5
ENDMDL
MODEL 7
REMARK VINA RESULT:      -6.5     14.082     17.247
REMARK  Name = pdb/CHEMBL3582442.pdb
REMARK                            x       y       z     vdW  Elec       q    Type
REMARK                         _______ _______ _______ _____ _____    ______ ____
ROOT
ATOM      1  C   LIG    1      -18.492  78.210  32.921  0.00  0.00    +0.093 A 
ATOM      2  N   LIG    1      -19.441  77.761  32.008  0.00  0.00    -0.211 N 
ATOM      3  N   LIG    1      -20.803  77.761  32.175  0.00  0.00    -0.149 NA
ATOM      4  C   LIG    1      -21.491  77.286  31.165  0.00  0.00    +0.143 A 
ATOM      5  C   LIG    1      -20.812  76.700  29.955  0.00  0.00    +0.049 A 
ATOM      6  C   LIG    1      -19.489  76.764  29.846  0.00  0.00    +0.051 A 
ATOM      7  C   LIG    1      -18.744  77.349  30.884  0.00  0.00    +0.155 A 
ATOM      8  N   LIG    1      -17.455  77.570  30.982  0.00  0.00    -0.234 NA
ATOM      9  C   LIG    1      -17.292  78.104  32.230  0.00  0.00    +0.141 A 
ENDROOT
BRANCH   1  14
ATOM     10  C   LIG    1      -20.182  79.820  35.885  0.00  0.00    +0.122 A 
ATOM     11  N   LIG    1      -19.251  79.713  36.853  0.00  0.00    -0.240 NA
ATOM     12  C   LIG    1      -18.091  79.095  36.545  0.00  0.00    +0.113 A 
ATOM     13  C   LIG    1      -17.791  78.580  35.297  0.00  0.00    +0.030 A 
ATOM     14  C   LIG    1      -18.742  78.690  34.286  0.00  0.00    +0.007 A 
ATOM     15  C   LIG    1      -19.952  79.323  34.598  0.00  0.00    +0.053 A 
BRANCH  10  19
ATOM     16  C   LIG    1      -23.324  82.290  37.301  0.00  0.00    +0.118 C 
ATOM     17  C   LIG    1      -23.129  80.883  37.862  0.00  0.00    +0.050 C 
ATOM     18  C   LIG    1      -21.722  80.349  37.595  0.00  0.00    +0.109 C 
ATOM     19  N   LIG    1      -21.431  80.438  36.151  0.00  0.00    -0.315 N 
ATOM     20  C   LIG    1      -21.459  81.830  35.670  0.00  0.00    +0.109 C 
ATOM     21  C   LIG    1      -22.875  82.384  35.845  0.00  0.00    +0.050 C 
BRANCH  16  22
ATOM     22  O   LIG    1      -22.595  83.219  38.103  0.00  0.00    -0.392 OA
ATOM     23  H   LIG    1      -23.207  83.934  38.353  0.00  0.00    +0.210 HD
ENDBRANCH  16  22
ENDBRANCH  10  19
ENDBRANCH   1  14
BRANCH   4  24
ATOM     24  N   LIG    1      -22.877  77.319  31.220  0.00  0.00    -0.307 N 
ATOM     25  C   LIG    1      -23.689  76.421  32.052  0.00  0.00    +0.105 C 
ATOM     26  C   LIG    1      -25.026  76.322  31.311  0.00  0.00    +0.029 C 
ATOM     27  C   LIG    1      -25.139  77.657  30.595  0.00  0.00    +0.021 C 
ATOM     28  C   LIG    1      -23.698  77.946  30.181  0.00  0.00    +0.107 C 
BRANCH  25  29
ATOM     29  C   LIG    1      -23.824  76.943  33.474  0.00  0.00    -0.024 A 
ATOM     30  C   LIG    1      -24.284  78.250  33.693  0.00  0.00    +0.043 A 
ATOM     31  C   LIG    1      -24.458  78.723  34.992  0.00  0.00    +0.124 A 
ATOM     32  F   LIG    1      -24.912  79.969  35.183  0.00  0.00    -0.205 F 
ATOM     33  C   LIG    1      -24.179  77.924  36.092  0.00  0.00    +0.038 A 
ATOM     34  C   LIG    1      -23.718  76.625  35.893  0.00  0.00    +0.003 A 
ATOM     35  C   LIG    1      -23.539  76.142  34.595  0.00  0.00    +0.005 A 
ENDBRANCH  25  29
ENDBRANCH   4  24
TORSDOF 5
ENDMDL
MODEL 8
REMARK VINA RESULT:      -6.5     17.685     21.768
REMARK  Name = pdb/CHEMBL3582442.pdb
REMARK                            x       y       z     vdW  Elec       q    Type
REMARK                         _______ _______ _______ _____ _____    ______ ____
ROOT
ATOM      1  C   LIG    1      -19.928  82.100  14.297  0.00  0.00    +0.093 A 
ATOM      2  N   LIG    1      -19.865  83.416  13.852  0.00  0.00    -0.211 N 
ATOM      3  N   LIG    1      -20.800  84.399  14.065  0.00  0.00    -0.149 NA
ATOM      4  C   LIG    1      -20.512  85.568  13.544  0.00  0.00    +0.143 A 
ATOM      5  C   LIG    1      -19.284  85.771  12.696  0.00  0.00    +0.049 A 
ATOM      6  C   LIG    1      -18.405  84.784  12.560  0.00  0.00    +0.051 A 
ATOM      7  C   LIG    1      -18.659  83.551  13.185  0.00  0.00    +0.155 A 
ATOM      8  N   LIG    1      -17.930  82.462  13.239  0.00  0.00    -0.234 NA
ATOM      9  C   LIG    1      -18.702  81.566  13.925  0.00  0.00    +0.141 A 
ENDROOT
BRANCH   1  14
ATOM     10  C   LIG    1      -23.049  80.086  14.959  0.00  0.00    +0.122 A 
ATOM     11  N   LIG    1      -23.257  80.284  16.275  0.00  0.00    -0.240 NA
ATOM     12  C   LIG    1      -22.369  81.048  16.945  0.00  0.00    +0.113 A 
ATOM     13  C   LIG    1      -21.269  81.653  16.365  0.00  0.00    +0.030 A 
ATOM     14  C   LIG    1      -21.046  81.462  15.004  0.00  0.00    +0.007 A 
ATOM     15  C   LIG    1      -21.959  80.665  14.302  0.00  0.00    +0.053 A 
BRANCH  10  19
ATOM     16  C   LIG    1      -26.203  77.586  13.624  0.00  0.00    +0.118 C 
ATOM     17  C   LIG    1      -24.815  77.009  13.894  0.00  0.00    +0.050 C 
ATOM     18  C   LIG    1      -23.978  77.922  14.790  0.00  0.00    +0.109 C 
ATOM     19  N   LIG    1      -23.934  79.276  14.203  0.00  0.00    -0.315 N 
ATOM     20  C   LIG    1      -25.275  79.878  14.110  0.00  0.00    +0.109 C 
ATOM     21  C   LIG    1      -26.129  79.038  13.158  0.00  0.00    +0.050 C 
BRANCH  16  22
ATOM     22  O   LIG    1      -26.990  77.489  14.811  0.00  0.00    -0.392 OA
ATOM     23  H   LIG    1      -27.607  78.242  14.816  0.00  0.00    +0.210 HD
ENDBRANCH  16  22
ENDBRANCH  10  19
ENDBRANCH   1  14
BRANCH   4  24
ATOM     24  N   LIG    1      -21.366  86.636  13.776  0.00  0.00    -0.307 N 
ATOM     25  C   LIG    1      -21.792  87.588  12.741  0.00  0.00    +0.105 C 
ATOM     26  C   LIG    1      -22.086  88.880  13.512  0.00  0.00    +0.029 C 
ATOM     27  C   LIG    1      -22.517  88.389  14.883  0.00  0.00    +0.021 C 
ATOM     28  C   LIG    1      -21.612  87.181  15.113  0.00  0.00    +0.107 C 
BRANCH  25  29
ATOM     29  C   LIG    1      -22.986  87.068  11.956  0.00  0.00    -0.024 A 
ATOM     30  C   LIG    1      -23.546  85.825  12.289  0.00  0.00    +0.043 A 
ATOM     31  C   LIG    1      -24.670  85.360  11.609  0.00  0.00    +0.124 A 
ATOM     32  F   LIG    1      -25.201  84.178  11.949  0.00  0.00    -0.205 F 
ATOM     33  C   LIG    1      -25.255  86.103  10.593  0.00  0.00    +0.038 A 
ATOM     34  C   LIG    1      -24.710  87.336  10.248  0.00  0.00    +0.003 A 
ATOM     35  C   LIG    1      -23.583  87.811  10.922  0.00  0.00    +0.005 A 
ENDBRANCH  25  29
ENDBRANCH   4  24
TORSDOF 5
ENDMDL
MODEL 9
REMARK VINA RESULT:      -6.4     12.424     15.291
REMARK  Name = pdb/CHEMBL3582442.pdb
REMARK                            x       y       z     vdW  Elec       q    Type
REMARK                         _______ _______ _______ _____ _____    ______ ____
ROOT
ATOM      1  C   LIG    1      -23.876  77.041  30.915  0.00  0.00    +0.093 A 
ATOM      2  N   LIG    1      -24.604  75.948  31.373  0.00  0.00    -0.211 N 
ATOM      3  N   LIG    1      -24.103  74.718  31.722  0.00  0.00    -0.149 NA
ATOM      4  C   LIG    1      -24.994  73.847  32.129  0.00  0.00    +0.143 A 
ATOM      5  C   LIG    1      -26.466  74.161  32.119  0.00  0.00    +0.049 A 
ATOM      6  C   LIG    1      -26.877  75.384  31.801  0.00  0.00    +0.051 A 
ATOM      7  C   LIG    1      -25.926  76.355  31.445  0.00  0.00    +0.155 A 
ATOM      8  N   LIG    1      -26.079  77.622  31.147  0.00  0.00    -0.234 NA
ATOM      9  C   LIG    1      -24.822  78.054  30.824  0.00  0.00    +0.141 A 
ENDROOT
BRANCH   1  14
ATOM     10  C   LIG    1      -20.184  77.744  31.241  0.00  0.00    +0.122 A 
ATOM     11  N   LIG    1      -19.687  77.273  30.081  0.00  0.00    -0.240 NA
ATOM     12  C   LIG    1      -20.550  76.707  29.211  0.00  0.00    +0.113 A 
ATOM     13  C   LIG    1      -21.911  76.593  29.428  0.00  0.00    +0.030 A 
ATOM     14  C   LIG    1      -22.438  77.081  30.620  0.00  0.00    +0.007 A 
ATOM     15  C   LIG    1      -21.549  77.664  31.532  0.00  0.00    +0.053 A 
BRANCH  10  19
ATOM     16  C   LIG    1      -17.420  78.487  34.370  0.00  0.00    +0.118 C 
ATOM     17  C   LIG    1      -18.920  78.654  34.602  0.00  0.00    +0.050 C 
ATOM     18  C   LIG    1      -19.749  77.910  33.556  0.00  0.00    +0.109 C 
ATOM     19  N   LIG    1      -19.326  78.330  32.207  0.00  0.00    -0.315 N 
ATOM     20  C   LIG    1      -17.913  78.003  31.947  0.00  0.00    +0.109 C 
ATOM     21  C   LIG    1      -17.036  78.789  32.923  0.00  0.00    +0.050 C 
BRANCH  16  22
ATOM     22  O   LIG    1      -17.038  77.155  34.713  0.00  0.00    -0.392 OA
ATOM     23  H   LIG    1      -16.075  77.153  34.853  0.00  0.00    +0.210 HD
ENDBRANCH  16  22
ENDBRANCH  10  19
ENDBRANCH   1  14
BRANCH   4  24
ATOM     24  N   LIG    1      -24.565  72.604  32.572  0.00  0.00    -0.307 N 
ATOM     25  C   LIG    1      -25.416  71.407  32.618  0.00  0.00    +0.105 C 
ATOM     26  C   LIG    1      -24.820  70.559  33.746  0.00  0.00    +0.029 C 
ATOM     27  C   LIG    1      -23.349  70.934  33.737  0.00  0.00    +0.021 C 
ATOM     28  C   LIG    1      -23.378  72.426  33.413  0.00  0.00    +0.107 C 
BRANCH  25  29
ATOM     29  C   LIG    1      -25.450  70.691  31.276  0.00  0.00    -0.024 A 
ATOM     30  C   LIG    1      -24.513  71.028  30.287  0.00  0.00    +0.043 A 
ATOM     31  C   LIG    1      -24.503  70.345  29.072  0.00  0.00    +0.124 A 
ATOM     32  F   LIG    1      -23.594  70.669  28.143  0.00  0.00    -0.205 F 
ATOM     33  C   LIG    1      -25.412  69.328  28.810  0.00  0.00    +0.038 A 
ATOM     34  C   LIG    1      -26.349  68.984  29.779  0.00  0.00    +0.003 A 
ATOM     35  C   LIG    1      -26.369  69.663  31.000  0.00  0.00    +0.005 A 
ENDBRANCH  25  29
ENDBRANCH   4  24
TORSDOF 5
ENDMDL
