MODEL 1
REMARK VINA RESULT:      -6.3      0.000      0.000
REMARK  Name = pdb/CHEMBL211095.pdb
REMARK                            x       y       z     vdW  Elec       q    Type
REMARK                         _______ _______ _______ _____ _____    ______ ____
ROOT
ATOM      1  C   LIG    1      -35.670  78.061  28.136  0.00  0.00    +0.106 A 
ATOM      2  C   LIG    1      -36.393  76.897  27.870  0.00  0.00    +0.098 A 
ATOM      3  C   LIG    1      -37.723  77.281  27.466  0.00  0.00    +0.121 A 
ATOM      4  N   LIG    1      -38.022  78.574  27.523  0.00  0.00    -0.202 NA
ATOM      5  S   LIG    1      -36.663  79.415  27.867  0.00  0.00    +0.029 S 
ENDROOT
BRANCH   1  10
ATOM      6  N   LIG    1      -32.089  78.411  28.413  0.00  0.00    -0.313 N 
ATOM      7  H   LIG    1      -31.999  78.125  29.378  0.00  0.00    +0.146 HD
ATOM      8  H   LIG    1      -31.264  78.302  27.838  0.00  0.00    +0.146 HD
ATOM      9  C   LIG    1      -33.250  78.193  27.738  0.00  0.00    +0.302 C 
ATOM     10  N   LIG    1      -34.355  78.213  28.557  0.00  0.00    -0.262 N 
ATOM     11  H   LIG    1      -34.223  78.428  29.541  0.00  0.00    +0.157 HD
ATOM     12  O   LIG    1      -33.200  78.043  26.520  0.00  0.00    -0.253 OA
ENDBRANCH   1  10
BRANCH   2  13
ATOM     13  C   LIG    1      -35.823  75.570  28.001  0.00  0.00    +0.246 C 
ATOM     14  N   LIG    1      -34.811  75.235  27.153  0.00  0.00    -0.325 N 
ATOM     15  H   LIG    1      -34.366  74.333  27.255  0.00  0.00    +0.145 HD
ATOM     16  H   LIG    1      -34.417  75.892  26.489  0.00  0.00    +0.145 HD
ATOM     17  O   LIG    1      -36.257  74.734  28.805  0.00  0.00    -0.270 OA
ENDBRANCH   2  13
BRANCH   3  18
ATOM     18  S   LIG    1      -39.012  76.206  26.913  0.00  0.00    -0.096 S 
BRANCH  18  19
ATOM     19  C   LIG    1      -38.274  75.642  25.305  0.00  0.00    +0.083 C 
ATOM     20  C   LIG    1      -39.129  74.562  24.654  0.00  0.00    -0.031 A 
ATOM     21  C   LIG    1      -38.652  73.232  24.694  0.00  0.00    +0.005 A 
ATOM     22  C   LIG    1      -39.425  72.163  24.251  0.00  0.00    +0.000 A 
ATOM     23  C   LIG    1      -40.687  72.406  23.732  0.00  0.00    +0.000 A 
ATOM     24  C   LIG    1      -41.163  73.714  23.647  0.00  0.00    +0.004 A 
ATOM     25  C   LIG    1      -40.394  74.809  24.091  0.00  0.00    -0.043 A 
ATOM     26  C   LIG    1      -40.999  76.190  23.993  0.00  0.00    +0.035 C 
ATOM     27  C   LIG    1      -40.151  77.197  23.217  0.00  0.00    +0.005 C 
ATOM     28  C   LIG    1      -38.996  77.792  24.014  0.00  0.00    +0.002 C 
ATOM     29  C   LIG    1      -37.902  76.792  24.361  0.00  0.00    +0.019 C 
ENDBRANCH  18  19
ENDBRANCH   3  18
TORSDOF 4
ENDMDL
MODEL 2
REMARK VINA RESULT:      -5.9      2.081      2.658
REMARK  Name = pdb/CHEMBL211095.pdb
REMARK                            x       y       z     vdW  Elec       q    Type
REMARK                         _______ _______ _______ _____ _____    ______ ____
ROOT
ATOM      1  C   LIG    1      -36.364  78.859  28.265  0.00  0.00    +0.106 A 
ATOM      2  C   LIG    1      -37.600  78.553  27.694  0.00  0.00    +0.098 A 
ATOM      3  C   LIG    1      -37.639  77.131  27.452  0.00  0.00    +0.121 A 
ATOM      4  N   LIG    1      -36.528  76.446  27.700  0.00  0.00    -0.202 NA
ATOM      5  S   LIG    1      -35.449  77.435  28.429  0.00  0.00    +0.029 S 
ENDROOT
BRANCH   1  10
ATOM      6  N   LIG    1      -34.588  81.981  28.616  0.00  0.00    -0.313 N 
ATOM      7  H   LIG    1      -34.707  82.094  29.613  0.00  0.00    +0.146 HD
ATOM      8  H   LIG    1      -33.798  82.461  28.206  0.00  0.00    +0.146 HD
ATOM      9  C   LIG    1      -34.864  80.788  28.022  0.00  0.00    +0.302 C 
ATOM     10  N   LIG    1      -35.853  80.086  28.671  0.00  0.00    -0.262 N 
ATOM     11  H   LIG    1      -36.306  80.516  29.471  0.00  0.00    +0.157 HD
ATOM     12  O   LIG    1      -34.257  80.491  26.997  0.00  0.00    -0.253 OA
ENDBRANCH   1  10
BRANCH   2  13
ATOM     13  C   LIG    1      -38.614  79.555  27.427  0.00  0.00    +0.246 C 
ATOM     14  N   LIG    1      -39.573  79.744  28.376  0.00  0.00    -0.325 N 
ATOM     15  H   LIG    1      -40.264  80.469  28.235  0.00  0.00    +0.145 HD
ATOM     16  H   LIG    1      -39.564  79.258  29.265  0.00  0.00    +0.145 HD
ATOM     17  O   LIG    1      -38.662  80.188  26.365  0.00  0.00    -0.270 OA
ENDBRANCH   2  13
BRANCH   3  18
ATOM     18  S   LIG    1      -39.011  76.200  26.842  0.00  0.00    -0.096 S 
BRANCH  18  19
ATOM     19  C   LIG    1      -38.301  75.634  25.222  0.00  0.00    +0.083 C 
ATOM     20  C   LIG    1      -39.162  74.548  24.591  0.00  0.00    -0.031 A 
ATOM     21  C   LIG    1      -38.678  73.220  24.626  0.00  0.00    +0.005 A 
ATOM     22  C   LIG    1      -39.455  72.146  24.202  0.00  0.00    +0.000 A 
ATOM     23  C   LIG    1      -40.727  72.380  23.706  0.00  0.00    +0.000 A 
ATOM     24  C   LIG    1      -41.211  73.686  23.626  0.00  0.00    +0.004 A 
ATOM     25  C   LIG    1      -40.440  74.786  24.052  0.00  0.00    -0.043 A 
ATOM     26  C   LIG    1      -41.052  76.164  23.960  0.00  0.00    +0.035 C 
ATOM     27  C   LIG    1      -40.224  77.172  23.164  0.00  0.00    +0.005 C 
ATOM     28  C   LIG    1      -39.058  77.775  23.937  0.00  0.00    +0.002 C 
ATOM     29  C   LIG    1      -37.952  76.782  24.267  0.00  0.00    +0.019 C 
ENDBRANCH  18  19
ENDBRANCH   3  18
TORSDOF 4
ENDMDL
MODEL 3
REMARK VINA RESULT:      -5.7     19.288     21.999
REMARK  Name = pdb/CHEMBL211095.pdb
REMARK                            x       y       z     vdW  Elec       q    Type
REMARK                         _______ _______ _______ _____ _____    ______ ____
ROOT
ATOM      1  C   LIG    1      -22.537  87.011  12.815  0.00  0.00    +0.106 A 
ATOM      2  C   LIG    1      -22.216  86.434  14.044  0.00  0.00    +0.098 A 
ATOM      3  C   LIG    1      -22.617  85.049  14.005  0.00  0.00    +0.121 A 
ATOM      4  N   LIG    1      -23.268  84.640  12.921  0.00  0.00    -0.202 NA
ATOM      5  S   LIG    1      -23.252  85.839  11.810  0.00  0.00    +0.029 S 
ENDROOT
BRANCH   1  10
ATOM      6  N   LIG    1      -21.261  90.155  11.585  0.00  0.00    -0.313 N 
ATOM      7  H   LIG    1      -22.006  90.747  11.927  0.00  0.00    +0.146 HD
ATOM      8  H   LIG    1      -20.372  90.608  11.424  0.00  0.00    +0.146 HD
ATOM      9  C   LIG    1      -21.143  88.874  12.029  0.00  0.00    +0.302 C 
ATOM     10  N   LIG    1      -22.352  88.314  12.371  0.00  0.00    -0.262 N 
ATOM     11  H   LIG    1      -23.196  88.859  12.223  0.00  0.00    +0.157 HD
ATOM     12  O   LIG    1      -20.027  88.361  12.046  0.00  0.00    -0.253 OA
ENDBRANCH   1  10
BRANCH   2  13
ATOM     13  C   LIG    1      -21.587  87.174  15.121  0.00  0.00    +0.246 C 
ATOM     14  N   LIG    1      -20.231  87.299  15.088  0.00  0.00    -0.325 N 
ATOM     15  H   LIG    1      -19.773  87.849  15.801  0.00  0.00    +0.145 HD
ATOM     16  H   LIG    1      -19.671  86.947  14.319  0.00  0.00    +0.145 HD
ATOM     17  O   LIG    1      -22.226  87.637  16.075  0.00  0.00    -0.270 OA
ENDBRANCH   2  13
BRANCH   3  18
ATOM     18  S   LIG    1      -22.347  83.833  15.258  0.00  0.00    -0.096 S 
BRANCH  18  19
ATOM     19  C   LIG    1      -21.972  82.364  14.186  0.00  0.00    +0.083 C 
ATOM     20  C   LIG    1      -20.799  81.565  14.736  0.00  0.00    -0.031 A 
ATOM     21  C   LIG    1      -19.560  81.666  14.062  0.00  0.00    +0.005 A 
ATOM     22  C   LIG    1      -18.401  81.086  14.569  0.00  0.00    +0.000 A 
ATOM     23  C   LIG    1      -18.461  80.366  15.751  0.00  0.00    +0.000 A 
ATOM     24  C   LIG    1      -19.681  80.220  16.413  0.00  0.00    +0.004 A 
ATOM     25  C   LIG    1      -20.864  80.801  15.916  0.00  0.00    -0.043 A 
ATOM     26  C   LIG    1      -22.135  80.621  16.712  0.00  0.00    +0.035 C 
ATOM     27  C   LIG    1      -23.294  80.012  15.924  0.00  0.00    +0.005 C 
ATOM     28  C   LIG    1      -24.031  80.999  15.027  0.00  0.00    +0.002 C 
ATOM     29  C   LIG    1      -23.204  81.511  13.857  0.00  0.00    +0.019 C 
ENDBRANCH  18  19
ENDBRANCH   3  18
TORSDOF 4
ENDMDL
MODEL 4
REMARK VINA RESULT:      -5.6      1.906      2.505
REMARK  Name = pdb/CHEMBL211095.pdb
REMARK                            x       y       z     vdW  Elec       q    Type
REMARK                         _______ _______ _______ _____ _____    ______ ____
ROOT
ATOM      1  C   LIG    1      -35.102  75.278  29.100  0.00  0.00    +0.106 A 
ATOM      2  C   LIG    1      -35.880  75.951  28.157  0.00  0.00    +0.098 A 
ATOM      3  C   LIG    1      -37.134  75.250  28.032  0.00  0.00    +0.121 A 
ATOM      4  N   LIG    1      -37.261  74.114  28.710  0.00  0.00    -0.202 NA
ATOM      5  S   LIG    1      -35.965  73.936  29.690  0.00  0.00    +0.029 S 
ENDROOT
BRANCH   1  10
ATOM      6  N   LIG    1      -32.175  76.577  30.764  0.00  0.00    -0.313 N 
ATOM      7  H   LIG    1      -31.489  76.277  30.085  0.00  0.00    +0.146 HD
ATOM      8  H   LIG    1      -31.912  77.361  31.346  0.00  0.00    +0.146 HD
ATOM      9  C   LIG    1      -33.501  76.553  30.457  0.00  0.00    +0.302 C 
ATOM     10  N   LIG    1      -33.822  75.561  29.559  0.00  0.00    -0.262 N 
ATOM     11  H   LIG    1      -33.088  74.929  29.255  0.00  0.00    +0.157 HD
ATOM     12  O   LIG    1      -34.245  77.357  31.011  0.00  0.00    -0.253 OA
ENDBRANCH   1  10
BRANCH   2  13
ATOM     13  C   LIG    1      -35.427  77.145  27.470  0.00  0.00    +0.246 C 
ATOM     14  N   LIG    1      -36.234  78.241  27.520  0.00  0.00    -0.325 N 
ATOM     15  H   LIG    1      -35.919  79.100  27.089  0.00  0.00    +0.145 HD
ATOM     16  H   LIG    1      -37.092  78.262  28.059  0.00  0.00    +0.145 HD
ATOM     17  O   LIG    1      -34.380  77.179  26.811  0.00  0.00    -0.270 OA
ENDBRANCH   2  13
BRANCH   3  18
ATOM     18  S   LIG    1      -38.525  75.735  27.055  0.00  0.00    -0.096 S 
BRANCH  18  19
ATOM     19  C   LIG    1      -37.895  75.267  25.372  0.00  0.00    +0.083 C 
ATOM     20  C   LIG    1      -38.780  74.210  24.725  0.00  0.00    -0.031 A 
ATOM     21  C   LIG    1      -38.287  72.887  24.661  0.00  0.00    +0.005 A 
ATOM     22  C   LIG    1      -39.078  71.831  24.216  0.00  0.00    +0.000 A 
ATOM     23  C   LIG    1      -40.375  72.081  23.800  0.00  0.00    +0.000 A 
ATOM     24  C   LIG    1      -40.870  73.386  23.818  0.00  0.00    +0.004 A 
ATOM     25  C   LIG    1      -40.085  74.467  24.265  0.00  0.00    -0.043 A 
ATOM     26  C   LIG    1      -40.710  75.842  24.283  0.00  0.00    +0.035 C 
ATOM     27  C   LIG    1      -39.931  76.900  23.505  0.00  0.00    +0.005 C 
ATOM     28  C   LIG    1      -38.730  77.470  24.250  0.00  0.00    +0.002 C 
ATOM     29  C   LIG    1      -37.603  76.470  24.467  0.00  0.00    +0.019 C 
ENDBRANCH  18  19
ENDBRANCH   3  18
TORSDOF 4
ENDMDL
MODEL 5
REMARK VINA RESULT:      -5.6     18.915     21.441
REMARK  Name = pdb/CHEMBL211095.pdb
REMARK                            x       y       z     vdW  Elec       q    Type
REMARK                         _______ _______ _______ _____ _____    ______ ____
ROOT
ATOM      1  C   LIG    1      -19.959  85.562  13.718  0.00  0.00    +0.106 A 
ATOM      2  C   LIG    1      -20.941  84.570  13.717  0.00  0.00    +0.098 A 
ATOM      3  C   LIG    1      -20.318  83.327  13.335  0.00  0.00    +0.121 A 
ATOM      4  N   LIG    1      -19.040  83.377  12.977  0.00  0.00    -0.202 NA
ATOM      5  S   LIG    1      -18.466  84.878  13.276  0.00  0.00    +0.029 S 
ENDROOT
BRANCH   1  10
ATOM      6  N   LIG    1      -20.594  89.114  13.728  0.00  0.00    -0.313 N 
ATOM      7  H   LIG    1      -19.906  89.373  14.422  0.00  0.00    +0.146 HD
ATOM      8  H   LIG    1      -20.871  89.843  13.083  0.00  0.00    +0.146 HD
ATOM      9  C   LIG    1      -20.569  87.876  13.165  0.00  0.00    +0.302 C 
ATOM     10  N   LIG    1      -20.064  86.916  14.012  0.00  0.00    -0.262 N 
ATOM     11  H   LIG    1      -19.812  87.189  14.956  0.00  0.00    +0.157 HD
ATOM     12  O   LIG    1      -21.010  87.740  12.027  0.00  0.00    -0.253 OA
ENDBRANCH   1  10
BRANCH   2  13
ATOM     13  C   LIG    1      -22.326  84.833  14.057  0.00  0.00    +0.246 C 
ATOM     14  N   LIG    1      -23.266  84.561  13.111  0.00  0.00    -0.325 N 
ATOM     15  H   LIG    1      -24.243  84.691  13.339  0.00  0.00    +0.145 HD
ATOM     16  H   LIG    1      -23.035  84.136  12.219  0.00  0.00    +0.145 HD
ATOM     17  O   LIG    1      -22.664  85.336  15.137  0.00  0.00    -0.270 OA
ENDBRANCH   2  13
BRANCH   3  18
ATOM     18  S   LIG    1      -21.082  81.734  13.278  0.00  0.00    -0.096 S 
BRANCH  18  19
ATOM     19  C   LIG    1      -21.692  81.623  15.028  0.00  0.00    +0.083 C 
ATOM     20  C   LIG    1      -22.622  80.432  15.214  0.00  0.00    -0.031 A 
ATOM     21  C   LIG    1      -24.006  80.689  15.341  0.00  0.00    +0.005 A 
ATOM     22  C   LIG    1      -24.942  79.660  15.374  0.00  0.00    +0.000 A 
ATOM     23  C   LIG    1      -24.511  78.345  15.308  0.00  0.00    +0.000 A 
ATOM     24  C   LIG    1      -23.147  78.066  15.222  0.00  0.00    +0.004 A 
ATOM     25  C   LIG    1      -22.184  79.094  15.186  0.00  0.00    -0.043 A 
ATOM     26  C   LIG    1      -20.730  78.705  15.059  0.00  0.00    +0.035 C 
ATOM     27  C   LIG    1      -19.827  79.267  16.155  0.00  0.00    +0.005 C 
ATOM     28  C   LIG    1      -19.424  80.723  15.951  0.00  0.00    +0.002 C 
ATOM     29  C   LIG    1      -20.576  81.709  16.076  0.00  0.00    +0.019 C 
ENDBRANCH  18  19
ENDBRANCH   3  18
TORSDOF 4
ENDMDL
MODEL 6
REMARK VINA RESULT:      -5.4     15.119     16.608
REMARK  Name = pdb/CHEMBL211095.pdb
REMARK                            x       y       z     vdW  Elec       q    Type
REMARK                         _______ _______ _______ _____ _____    ______ ____
ROOT
ATOM      1  C   LIG    1      -25.889  65.048  19.428  0.00  0.00    +0.106 A 
ATOM      2  C   LIG    1      -26.858  66.030  19.223  0.00  0.00    +0.098 A 
ATOM      3  C   LIG    1      -26.405  66.888  18.156  0.00  0.00    +0.121 A 
ATOM      4  N   LIG    1      -25.187  66.663  17.676  0.00  0.00    -0.202 NA
ATOM      5  S   LIG    1      -24.606  65.285  18.336  0.00  0.00    +0.029 S 
ENDROOT
BRANCH   1  10
ATOM      6  N   LIG    1      -26.316  61.956  21.239  0.00  0.00    -0.313 N 
ATOM      7  H   LIG    1      -26.083  62.303  22.159  0.00  0.00    +0.146 HD
ATOM      8  H   LIG    1      -26.896  61.127  21.211  0.00  0.00    +0.146 HD
ATOM      9  C   LIG    1      -26.562  62.822  20.219  0.00  0.00    +0.302 C 
ATOM     10  N   LIG    1      -25.863  64.001  20.341  0.00  0.00    -0.262 N 
ATOM     11  H   LIG    1      -25.217  64.102  21.118  0.00  0.00    +0.157 HD
ATOM     12  O   LIG    1      -27.317  62.467  19.318  0.00  0.00    -0.253 OA
ENDBRANCH   1  10
BRANCH   2  13
ATOM     13  C   LIG    1      -28.083  66.100  19.996  0.00  0.00    +0.246 C 
ATOM     14  N   LIG    1      -28.157  67.049  20.971  0.00  0.00    -0.325 N 
ATOM     15  H   LIG    1      -29.017  67.149  21.492  0.00  0.00    +0.145 HD
ATOM     16  H   LIG    1      -27.420  67.727  21.127  0.00  0.00    +0.145 HD
ATOM     17  O   LIG    1      -29.020  65.307  19.835  0.00  0.00    -0.270 OA
ENDBRANCH   2  13
BRANCH   3  18
ATOM     18  S   LIG    1      -27.297  68.227  17.424  0.00  0.00    -0.096 S 
BRANCH  18  19
ATOM     19  C   LIG    1      -26.633  69.631  18.441  0.00  0.00    +0.083 C 
ATOM     20  C   LIG    1      -26.113  70.756  17.557  0.00  0.00    -0.031 A 
ATOM     21  C   LIG    1      -24.713  70.913  17.446  0.00  0.00    +0.005 A 
ATOM     22  C   LIG    1      -24.145  71.820  16.556  0.00  0.00    +0.000 A 
ATOM     23  C   LIG    1      -24.970  72.611  15.773  0.00  0.00    +0.000 A 
ATOM     24  C   LIG    1      -26.356  72.501  15.893  0.00  0.00    +0.004 A 
ATOM     25  C   LIG    1      -26.948  71.588  16.788  0.00  0.00    -0.043 A 
ATOM     26  C   LIG    1      -28.456  71.510  16.832  0.00  0.00    +0.035 C 
ATOM     27  C   LIG    1      -29.060  71.720  18.220  0.00  0.00    +0.005 C 
ATOM     28  C   LIG    1      -29.001  70.493  19.122  0.00  0.00    +0.002 C 
ATOM     29  C   LIG    1      -27.591  70.100  19.543  0.00  0.00    +0.019 C 
ENDBRANCH  18  19
ENDBRANCH   3  18
TORSDOF 4
ENDMDL
MODEL 7
REMARK VINA RESULT:      -5.4      1.535      1.607
REMARK  Name = pdb/CHEMBL211095.pdb
REMARK                            x       y       z     vdW  Elec       q    Type
REMARK                         _______ _______ _______ _____ _____    ______ ____
ROOT
ATOM      1  C   LIG    1      -37.055  78.868  27.595  0.00  0.00    +0.106 A 
ATOM      2  C   LIG    1      -37.431  77.539  27.395  0.00  0.00    +0.098 A 
ATOM      3  C   LIG    1      -38.842  77.516  27.096  0.00  0.00    +0.121 A 
ATOM      4  N   LIG    1      -39.494  78.671  27.169  0.00  0.00    -0.202 NA
ATOM      5  S   LIG    1      -38.412  79.875  27.397  0.00  0.00    +0.029 S 
ENDROOT
BRANCH   1  10
ATOM      6  N   LIG    1      -33.963  79.889  29.151  0.00  0.00    -0.313 N 
ATOM      7  H   LIG    1      -33.758  80.672  28.545  0.00  0.00    +0.146 HD
ATOM      8  H   LIG    1      -33.544  79.918  30.071  0.00  0.00    +0.146 HD
ATOM      9  C   LIG    1      -35.197  79.315  29.137  0.00  0.00    +0.302 C 
ATOM     10  N   LIG    1      -35.811  79.402  27.909  0.00  0.00    -0.262 N 
ATOM     11  H   LIG    1      -35.298  79.822  27.141  0.00  0.00    +0.157 HD
ATOM     12  O   LIG    1      -35.602  78.773  30.162  0.00  0.00    -0.253 OA
ENDBRANCH   1  10
BRANCH   2  13
ATOM     13  C   LIG    1      -36.497  76.434  27.490  0.00  0.00    +0.246 C 
ATOM     14  N   LIG    1      -35.629  76.256  26.456  0.00  0.00    -0.325 N 
ATOM     15  H   LIG    1      -34.937  75.522  26.518  0.00  0.00    +0.145 HD
ATOM     16  H   LIG    1      -35.582  76.894  25.669  0.00  0.00    +0.145 HD
ATOM     17  O   LIG    1      -36.503  75.635  28.436  0.00  0.00    -0.270 OA
ENDBRANCH   2  13
BRANCH   3  18
ATOM     18  S   LIG    1      -39.807  76.102  26.656  0.00  0.00    -0.096 S 
BRANCH  18  19
ATOM     19  C   LIG    1      -38.994  75.665  25.045  0.00  0.00    +0.083 C 
ATOM     20  C   LIG    1      -39.572  74.382  24.465  0.00  0.00    -0.031 A 
ATOM     21  C   LIG    1      -38.782  73.212  24.536  0.00  0.00    +0.005 A 
ATOM     22  C   LIG    1      -39.280  71.967  24.161  0.00  0.00    +0.000 A 
ATOM     23  C   LIG    1      -40.575  71.870  23.679  0.00  0.00    +0.000 A 
ATOM     24  C   LIG    1      -41.360  73.018  23.562  0.00  0.00    +0.004 A 
ATOM     25  C   LIG    1      -40.874  74.285  23.939  0.00  0.00    -0.043 A 
ATOM     26  C   LIG    1      -41.801  75.471  23.811  0.00  0.00    +0.035 C 
ATOM     27  C   LIG    1      -41.247  76.619  22.969  0.00  0.00    +0.005 C 
ATOM     28  C   LIG    1      -40.255  77.513  23.702  0.00  0.00    +0.002 C 
ATOM     29  C   LIG    1      -38.940  76.828  24.047  0.00  0.00    +0.019 C 
ENDBRANCH  18  19
ENDBRANCH   3  18
TORSDOF 4
ENDMDL
MODEL 8
REMARK VINA RESULT:      -5.3     18.403     20.616
REMARK  Name = pdb/CHEMBL211095.pdb
REMARK                            x       y       z     vdW  Elec       q    Type
REMARK                         _______ _______ _______ _____ _____    ______ ____
ROOT
ATOM      1  C   LIG    1      -21.805  84.658  13.712  0.00  0.00    +0.106 A 
ATOM      2  C   LIG    1      -22.516  83.653  14.369  0.00  0.00    +0.098 A 
ATOM      3  C   LIG    1      -23.301  82.947  13.387  0.00  0.00    +0.121 A 
ATOM      4  N   LIG    1      -23.285  83.421  12.146  0.00  0.00    -0.202 NA
ATOM      5  S   LIG    1      -22.168  84.612  12.050  0.00  0.00    +0.029 S 
ENDROOT
BRANCH   1  10
ATOM      6  N   LIG    1      -20.212  87.503  15.257  0.00  0.00    -0.313 N 
ATOM      7  H   LIG    1      -19.316  87.424  14.796  0.00  0.00    +0.146 HD
ATOM      8  H   LIG    1      -20.456  88.423  15.600  0.00  0.00    +0.146 HD
ATOM      9  C   LIG    1      -21.281  86.793  14.806  0.00  0.00    +0.302 C 
ATOM     10  N   LIG    1      -20.922  85.600  14.222  0.00  0.00    -0.262 N 
ATOM     11  H   LIG    1      -19.940  85.340  14.221  0.00  0.00    +0.157 HD
ATOM     12  O   LIG    1      -22.406  87.250  14.988  0.00  0.00    -0.253 OA
ENDBRANCH   1  10
BRANCH   2  13
ATOM     13  C   LIG    1      -22.420  83.427  15.798  0.00  0.00    +0.246 C 
ATOM     14  N   LIG    1      -22.898  84.402  16.621  0.00  0.00    -0.325 N 
ATOM     15  H   LIG    1      -22.885  84.249  17.620  0.00  0.00    +0.145 HD
ATOM     16  H   LIG    1      -23.360  85.234  16.269  0.00  0.00    +0.145 HD
ATOM     17  O   LIG    1      -21.880  82.423  16.280  0.00  0.00    -0.270 OA
ENDBRANCH   2  13
BRANCH   3  18
ATOM     18  S   LIG    1      -24.303  81.517  13.662  0.00  0.00    -0.096 S 
BRANCH  18  19
ATOM     19  C   LIG    1      -23.239  80.234  12.844  0.00  0.00    +0.083 C 
ATOM     20  C   LIG    1      -22.002  79.930  13.678  0.00  0.00    -0.031 A 
ATOM     21  C   LIG    1      -20.762  80.437  13.226  0.00  0.00    +0.005 A 
ATOM     22  C   LIG    1      -19.604  80.330  13.991  0.00  0.00    +0.000 A 
ATOM     23  C   LIG    1      -19.656  79.687  15.217  0.00  0.00    +0.000 A 
ATOM     24  C   LIG    1      -20.860  79.144  15.665  0.00  0.00    +0.004 A 
ATOM     25  C   LIG    1      -22.042  79.244  14.906  0.00  0.00    -0.043 A 
ATOM     26  C   LIG    1      -23.310  78.657  15.480  0.00  0.00    +0.035 C 
ATOM     27  C   LIG    1      -24.004  77.642  14.573  0.00  0.00    +0.005 C 
ATOM     28  C   LIG    1      -24.834  78.262  13.456  0.00  0.00    +0.002 C 
ATOM     29  C   LIG    1      -24.010  78.985  12.400  0.00  0.00    +0.019 C 
ENDBRANCH  18  19
ENDBRANCH   3  18
TORSDOF 4
ENDMDL
MODEL 9
REMARK VINA RESULT:      -5.3     18.971     21.277
REMARK  Name = pdb/CHEMBL211095.pdb
REMARK                            x       y       z     vdW  Elec       q    Type
REMARK                         _______ _______ _______ _____ _____    ______ ____
ROOT
ATOM      1  C   LIG    1      -19.824  84.962  13.354  0.00  0.00    +0.106 A 
ATOM      2  C   LIG    1      -20.820  84.195  13.961  0.00  0.00    +0.098 A 
ATOM      3  C   LIG    1      -20.249  82.916  14.305  0.00  0.00    +0.121 A 
ATOM      4  N   LIG    1      -19.002  82.685  13.911  0.00  0.00    -0.202 NA
ATOM      5  S   LIG    1      -18.381  84.063  13.288  0.00  0.00    +0.029 S 
ENDROOT
BRANCH   1  10
ATOM      6  N   LIG    1      -19.857  88.533  12.835  0.00  0.00    -0.313 N 
ATOM      7  H   LIG    1      -20.354  88.538  11.955  0.00  0.00    +0.146 HD
ATOM      8  H   LIG    1      -19.908  89.384  13.379  0.00  0.00    +0.146 HD
ATOM      9  C   LIG    1      -19.819  87.406  13.596  0.00  0.00    +0.302 C 
ATOM     10  N   LIG    1      -19.883  86.254  12.847  0.00  0.00    -0.262 N 
ATOM     11  H   LIG    1      -19.902  86.336  11.835  0.00  0.00    +0.157 HD
ATOM     12  O   LIG    1      -19.702  87.524  14.813  0.00  0.00    -0.253 OA
ENDBRANCH   1  10
BRANCH   2  13
ATOM     13  C   LIG    1      -22.170  84.682  14.171  0.00  0.00    +0.246 C 
ATOM     14  N   LIG    1      -22.598  84.805  15.458  0.00  0.00    -0.325 N 
ATOM     15  H   LIG    1      -23.518  85.186  15.633  0.00  0.00    +0.145 HD
ATOM     16  H   LIG    1      -21.995  84.626  16.253  0.00  0.00    +0.145 HD
ATOM     17  O   LIG    1      -22.942  84.930  13.236  0.00  0.00    -0.270 OA
ENDBRANCH   2  13
BRANCH   3  18
ATOM     18  S   LIG    1      -21.043  81.607  15.189  0.00  0.00    -0.096 S 
BRANCH  18  19
ATOM     19  C   LIG    1      -21.796  80.687  13.763  0.00  0.00    +0.083 C 
ATOM     20  C   LIG    1      -21.888  79.195  14.055  0.00  0.00    -0.031 A 
ATOM     21  C   LIG    1      -20.975  78.338  13.398  0.00  0.00    +0.005 A 
ATOM     22  C   LIG    1      -20.891  76.984  13.706  0.00  0.00    +0.000 A 
ATOM     23  C   LIG    1      -21.738  76.449  14.663  0.00  0.00    +0.000 A 
ATOM     24  C   LIG    1      -22.674  77.268  15.296  0.00  0.00    +0.004 A 
ATOM     25  C   LIG    1      -22.773  78.642  14.998  0.00  0.00    -0.043 A 
ATOM     26  C   LIG    1      -23.792  79.463  15.754  0.00  0.00    +0.035 C 
ATOM     27  C   LIG    1      -24.774  80.224  14.866  0.00  0.00    +0.005 C 
ATOM     28  C   LIG    1      -24.218  81.514  14.275  0.00  0.00    +0.002 C 
ATOM     29  C   LIG    1      -23.107  81.301  13.256  0.00  0.00    +0.019 C 
ENDBRANCH  18  19
ENDBRANCH   3  18
TORSDOF 4
ENDMDL
