MODEL 1
REMARK VINA RESULT:      -6.5      0.000      0.000
REMARK  Name = pdb/CHEMBL3950778.pdb
REMARK                            x       y       z     vdW  Elec       q    Type
REMARK                         _______ _______ _______ _____ _____    ______ ____
ROOT
ATOM      1  C   LIG    1      -22.703  82.894  15.291  0.00  0.00    +0.149 A 
ATOM      2  N   LIG    1      -23.883  82.358  14.936  0.00  0.00    -0.160 NA
ATOM      3  N   LIG    1      -23.646  81.014  14.888  0.00  0.00    -0.218 N 
ATOM      4  C   LIG    1      -22.389  80.692  15.413  0.00  0.00    +0.129 A 
ATOM      5  C   LIG    1      -21.746  81.900  15.589  0.00  0.00    +0.078 A 
ENDROOT
BRANCH   3   6
ATOM      6  C   LIG    1      -24.650  80.139  14.382  0.00  0.00    +0.067 A 
ATOM      7  C   LIG    1      -25.326  79.271  15.255  0.00  0.00    +0.028 A 
ATOM      8  C   LIG    1      -26.313  78.411  14.764  0.00  0.00    +0.002 A 
ATOM      9  C   LIG    1      -26.643  78.426  13.410  0.00  0.00    +0.000 A 
ATOM     10  C   LIG    1      -26.001  79.312  12.547  0.00  0.00    +0.002 A 
ATOM     11  C   LIG    1      -25.013  80.172  13.031  0.00  0.00    +0.028 A 
ENDBRANCH   3   6
BRANCH   4  12
ATOM     12  N   LIG    1      -21.876  79.434  15.758  0.00  0.00    -0.266 N 
ATOM     13  H   LIG    1      -21.735  79.232  16.746  0.00  0.00    +0.157 HD
ATOM     14  C   LIG    1      -21.430  78.452  14.797  0.00  0.00    +0.251 C 
ATOM     15  O   LIG    1      -21.433  78.703  13.594  0.00  0.00    -0.270 OA
BRANCH  14  16
ATOM     16  C   LIG    1      -20.878  77.171  15.299  0.00  0.00    +0.056 A 
ATOM     17  C   LIG    1      -19.556  77.017  15.730  0.00  0.00    +0.054 A 
ATOM     18 CL   LIG    1      -18.410  78.302  15.772  0.00  0.00    -0.083 Cl
ATOM     19  C   LIG    1      -19.130  75.785  16.220  0.00  0.00    +0.041 A 
ATOM     20  C   LIG    1      -20.006  74.690  16.315  0.00  0.00    +0.052 A 
ATOM     21 CL   LIG    1      -19.341  73.322  17.140  0.00  0.00    -0.083 Cl
ATOM     22  C   LIG    1      -21.339  74.779  15.862  0.00  0.00    +0.022 A 
ATOM     23  C   LIG    1      -21.742  76.051  15.373  0.00  0.00    +0.026 A 
BRANCH  22  24
ATOM     24  C   LIG    1      -22.334  73.669  15.910  0.00  0.00    +0.107 A 
ATOM     25  C   LIG    1      -23.118  73.333  17.018  0.00  0.00    +0.149 A 
ATOM     26  F   LIG    1      -22.961  73.931  18.206  0.00  0.00    -0.203 F 
ATOM     27  C   LIG    1      -24.056  72.308  16.934  0.00  0.00    +0.042 A 
ATOM     28  C   LIG    1      -24.153  71.572  15.763  0.00  0.00    +0.023 A 
ATOM     29  C   LIG    1      -23.306  71.906  14.721  0.00  0.00    +0.111 A 
ATOM     30  N   LIG    1      -22.417  72.932  14.762  0.00  0.00    -0.252 NA
ENDBRANCH  22  24
ENDBRANCH  14  16
ENDBRANCH   4  12
BRANCH   1  31
ATOM     31  C   LIG    1      -22.511  84.337  15.374  0.00  0.00    +0.236 C 
ATOM     32  N   LIG    1      -22.085  84.985  14.354  0.00  0.00    -0.249 NA
BRANCH  31  33
ATOM     33  O   LIG    1      -22.809  84.892  16.570  0.00  0.00    -0.491 OA
ATOM     34  H   LIG    1      -21.977  85.080  17.045  0.00  0.00    +0.294 HD
ENDBRANCH  31  33
BRANCH  32  35
ATOM     35  C   LIG    1      -21.885  86.427  14.489  0.00  0.00    +0.151 C 
BRANCH  35  36
ATOM     36  C   LIG    1      -20.410  86.776  14.284  0.00  0.00    +0.038 C 
ATOM     37  C   LIG    1      -20.179  88.054  13.495  0.00  0.00    +0.165 C 
ATOM     38  O   LIG    1      -18.878  87.950  12.895  0.00  0.00    -0.379 OA
ATOM     39  C   LIG    1      -18.404  86.608  13.063  0.00  0.00    +0.160 C 
ATOM     40  C   LIG    1      -19.585  85.770  13.508  0.00  0.00    +0.035 C 
ENDBRANCH  35  36
ENDBRANCH  32  35
ENDBRANCH   1  31
TORSDOF 8
ENDMDL
MODEL 2
REMARK VINA RESULT:      -6.5     17.569     20.125
REMARK  Name = pdb/CHEMBL3950778.pdb
REMARK                            x       y       z     vdW  Elec       q    Type
REMARK                         _______ _______ _______ _____ _____    ______ ____
ROOT
ATOM      1  C   LIG    1      -37.835  77.174  26.549  0.00  0.00    +0.149 A 
ATOM      2  N   LIG    1      -39.111  77.574  26.416  0.00  0.00    -0.160 NA
ATOM      3  N   LIG    1      -39.637  76.728  25.481  0.00  0.00    -0.218 N 
ATOM      4  C   LIG    1      -38.762  75.676  25.185  0.00  0.00    +0.129 A 
ATOM      5  C   LIG    1      -37.572  76.006  25.799  0.00  0.00    +0.078 A 
ENDROOT
BRANCH   3   6
ATOM      6  C   LIG    1      -40.945  76.968  24.971  0.00  0.00    +0.067 A 
ATOM      7  C   LIG    1      -41.950  77.453  25.824  0.00  0.00    +0.028 A 
ATOM      8  C   LIG    1      -43.236  77.692  25.329  0.00  0.00    +0.002 A 
ATOM      9  C   LIG    1      -43.519  77.468  23.983  0.00  0.00    +0.000 A 
ATOM     10  C   LIG    1      -42.516  77.023  23.125  0.00  0.00    +0.002 A 
ATOM     11  C   LIG    1      -41.230  76.780  23.614  0.00  0.00    +0.028 A 
ENDBRANCH   3   6
BRANCH   4  12
ATOM     12  N   LIG    1      -39.016  74.494  24.476  0.00  0.00    -0.266 N 
ATOM     13  H   LIG    1      -38.730  74.455  23.499  0.00  0.00    +0.157 HD
ATOM     14  C   LIG    1      -39.758  73.375  25.009  0.00  0.00    +0.251 C 
ATOM     15  O   LIG    1      -40.259  73.431  26.130  0.00  0.00    -0.270 OA
BRANCH  14  16
ATOM     16  C   LIG    1      -39.982  72.196  24.139  0.00  0.00    +0.056 A 
ATOM     17  C   LIG    1      -41.101  72.050  23.312  0.00  0.00    +0.054 A 
ATOM     18 CL   LIG    1      -42.342  73.235  23.166  0.00  0.00    -0.083 Cl
ATOM     19  C   LIG    1      -41.215  70.924  22.500  0.00  0.00    +0.041 A 
ATOM     20  C   LIG    1      -40.217  69.936  22.471  0.00  0.00    +0.052 A 
ATOM     21 CL   LIG    1      -40.448  68.732  21.249  0.00  0.00    -0.083 Cl
ATOM     22  C   LIG    1      -39.086  70.014  23.310  0.00  0.00    +0.022 A 
ATOM     23  C   LIG    1      -38.999  71.177  24.122  0.00  0.00    +0.026 A 
BRANCH  22  24
ATOM     24  C   LIG    1      -37.986  69.008  23.360  0.00  0.00    +0.107 A 
ATOM     25  C   LIG    1      -37.052  68.781  22.343  0.00  0.00    +0.149 A 
ATOM     26  F   LIG    1      -37.133  69.393  21.156  0.00  0.00    -0.203 F 
ATOM     27  C   LIG    1      -36.032  67.850  22.518  0.00  0.00    +0.042 A 
ATOM     28  C   LIG    1      -35.995  67.094  23.680  0.00  0.00    +0.023 A 
ATOM     29  C   LIG    1      -36.983  67.315  24.623  0.00  0.00    +0.111 A 
ATOM     30  N   LIG    1      -37.960  68.250  24.496  0.00  0.00    -0.252 NA
ENDBRANCH  22  24
ENDBRANCH  14  16
ENDBRANCH   4  12
BRANCH   1  31
ATOM     31  C   LIG    1      -36.895  77.884  27.408  0.00  0.00    +0.236 C 
ATOM     32  N   LIG    1      -35.928  77.250  27.961  0.00  0.00    -0.249 NA
BRANCH  31  33
ATOM     33  O   LIG    1      -37.133  79.206  27.557  0.00  0.00    -0.491 OA
ATOM     34  H   LIG    1      -38.041  79.325  27.897  0.00  0.00    +0.294 HD
ENDBRANCH  31  33
BRANCH  32  35
ATOM     35  C   LIG    1      -35.023  77.997  28.832  0.00  0.00    +0.151 C 
BRANCH  35  36
ATOM     36  C   LIG    1      -33.659  78.161  28.161  0.00  0.00    +0.038 C 
ATOM     37  C   LIG    1      -33.508  79.448  27.368  0.00  0.00    +0.165 C 
ATOM     38  O   LIG    1      -32.501  79.214  26.371  0.00  0.00    -0.379 OA
ATOM     39  C   LIG    1      -32.202  77.812  26.344  0.00  0.00    +0.160 C 
ATOM     40  C   LIG    1      -33.287  77.110  27.135  0.00  0.00    +0.035 C 
ENDBRANCH  35  36
ENDBRANCH  32  35
ENDBRANCH   1  31
TORSDOF 8
ENDMDL
MODEL 3
REMARK VINA RESULT:      -6.4     18.185     19.455
REMARK  Name = pdb/CHEMBL3950778.pdb
REMARK                            x       y       z     vdW  Elec       q    Type
REMARK                         _______ _______ _______ _____ _____    ______ ____
ROOT
ATOM      1  C   LIG    1      -37.205  80.060  27.496  0.00  0.00    +0.149 A 
ATOM      2  N   LIG    1      -36.070  79.404  27.793  0.00  0.00    -0.160 NA
ATOM      3  N   LIG    1      -36.401  78.083  27.676  0.00  0.00    -0.218 N 
ATOM      4  C   LIG    1      -37.669  77.916  27.107  0.00  0.00    +0.129 A 
ATOM      5  C   LIG    1      -38.224  79.179  27.074  0.00  0.00    +0.078 A 
ENDROOT
BRANCH   3   6
ATOM      6  C   LIG    1      -35.468  77.086  28.081  0.00  0.00    +0.067 A 
ATOM      7  C   LIG    1      -35.390  76.709  29.431  0.00  0.00    +0.028 A 
ATOM      8  C   LIG    1      -34.477  75.728  29.834  0.00  0.00    +0.002 A 
ATOM      9  C   LIG    1      -33.656  75.109  28.893  0.00  0.00    +0.000 A 
ATOM     10  C   LIG    1      -33.757  75.454  27.548  0.00  0.00    +0.002 A 
ATOM     11  C   LIG    1      -34.665  76.433  27.139  0.00  0.00    +0.028 A 
ENDBRANCH   3   6
BRANCH   4  12
ATOM     12  N   LIG    1      -38.262  76.749  26.610  0.00  0.00    -0.266 N 
ATOM     13  H   LIG    1      -38.853  76.209  27.239  0.00  0.00    +0.157 HD
ATOM     14  C   LIG    1      -37.998  76.203  25.298  0.00  0.00    +0.251 C 
ATOM     15  O   LIG    1      -37.174  76.730  24.554  0.00  0.00    -0.270 OA
BRANCH  14  16
ATOM     16  C   LIG    1      -38.670  74.941  24.908  0.00  0.00    +0.056 A 
ATOM     17  C   LIG    1      -39.871  74.896  24.192  0.00  0.00    +0.054 A 
ATOM     18 CL   LIG    1      -40.705  76.297  23.638  0.00  0.00    -0.083 Cl
ATOM     19  C   LIG    1      -40.415  73.665  23.837  0.00  0.00    +0.041 A 
ATOM     20  C   LIG    1      -39.772  72.457  24.159  0.00  0.00    +0.052 A 
ATOM     21 CL   LIG    1      -40.500  71.057  23.448  0.00  0.00    -0.083 Cl
ATOM     22  C   LIG    1      -38.578  72.442  24.909  0.00  0.00    +0.022 A 
ATOM     23  C   LIG    1      -38.048  73.715  25.252  0.00  0.00    +0.026 A 
BRANCH  22  24
ATOM     24  C   LIG    1      -37.835  71.213  25.310  0.00  0.00    +0.107 A 
ATOM     25  C   LIG    1      -37.203  70.328  24.430  0.00  0.00    +0.149 A 
ATOM     26  F   LIG    1      -37.304  70.455  23.101  0.00  0.00    -0.203 F 
ATOM     27  C   LIG    1      -36.490  69.237  24.919  0.00  0.00    +0.042 A 
ATOM     28  C   LIG    1      -36.476  68.992  26.284  0.00  0.00    +0.023 A 
ATOM     29  C   LIG    1      -37.174  69.863  27.101  0.00  0.00    +0.111 A 
ATOM     30  N   LIG    1      -37.836  70.961  26.653  0.00  0.00    -0.252 NA
ENDBRANCH  22  24
ENDBRANCH  14  16
ENDBRANCH   4  12
BRANCH   1  31
ATOM     31  C   LIG    1      -37.295  81.513  27.586  0.00  0.00    +0.236 C 
ATOM     32  N   LIG    1      -36.584  82.247  26.813  0.00  0.00    -0.249 NA
BRANCH  31  33
ATOM     33  O   LIG    1      -38.155  81.982  28.517  0.00  0.00    -0.491 OA
ATOM     34  H   LIG    1      -38.026  81.481  29.346  0.00  0.00    +0.294 HD
ENDBRANCH  31  33
BRANCH  32  35
ATOM     35  C   LIG    1      -36.690  83.699  26.954  0.00  0.00    +0.151 C 
BRANCH  35  36
ATOM     36  C   LIG    1      -37.551  84.276  25.830  0.00  0.00    +0.038 C 
ATOM     37  C   LIG    1      -37.703  83.358  24.630  0.00  0.00    +0.165 C 
ATOM     38  O   LIG    1      -37.993  84.189  23.495  0.00  0.00    -0.379 OA
ATOM     39  C   LIG    1      -37.792  85.558  23.870  0.00  0.00    +0.160 C 
ATOM     40  C   LIG    1      -37.050  85.555  25.191  0.00  0.00    +0.035 C 
ENDBRANCH  35  36
ENDBRANCH  32  35
ENDBRANCH   1  31
TORSDOF 8
ENDMDL
MODEL 4
REMARK VINA RESULT:      -6.4      4.196      7.114
REMARK  Name = pdb/CHEMBL3950778.pdb
REMARK                            x       y       z     vdW  Elec       q    Type
REMARK                         _______ _______ _______ _____ _____    ______ ____
ROOT
ATOM      1  C   LIG    1      -22.968  81.536  15.427  0.00  0.00    +0.149 A 
ATOM      2  N   LIG    1      -22.089  80.520  15.474  0.00  0.00    -0.160 NA
ATOM      3  N   LIG    1      -22.788  79.443  15.008  0.00  0.00    -0.218 N 
ATOM      4  C   LIG    1      -24.027  79.822  14.477  0.00  0.00    +0.129 A 
ATOM      5  C   LIG    1      -24.184  81.148  14.824  0.00  0.00    +0.078 A 
ENDROOT
BRANCH   3   6
ATOM      6  C   LIG    1      -22.207  78.144  15.072  0.00  0.00    +0.067 A 
ATOM      7  C   LIG    1      -20.819  77.991  14.920  0.00  0.00    +0.028 A 
ATOM      8  C   LIG    1      -20.243  76.719  14.983  0.00  0.00    +0.002 A 
ATOM      9  C   LIG    1      -21.041  75.600  15.216  0.00  0.00    +0.000 A 
ATOM     10  C   LIG    1      -22.412  75.752  15.405  0.00  0.00    +0.002 A 
ATOM     11  C   LIG    1      -22.995  77.020  15.341  0.00  0.00    +0.028 A 
ENDBRANCH   3   6
BRANCH   4  12
ATOM     12  N   LIG    1      -24.918  79.069  13.701  0.00  0.00    -0.266 N 
ATOM     13  H   LIG    1      -24.831  79.124  12.688  0.00  0.00    +0.157 HD
ATOM     14  C   LIG    1      -26.021  78.310  14.244  0.00  0.00    +0.251 C 
ATOM     15  O   LIG    1      -26.266  78.333  15.448  0.00  0.00    -0.270 OA
BRANCH  14  16
ATOM     16  C   LIG    1      -26.908  77.582  13.307  0.00  0.00    +0.056 A 
ATOM     17  C   LIG    1      -26.837  76.201  13.091  0.00  0.00    +0.054 A 
ATOM     18 CL   LIG    1      -25.736  75.163  13.914  0.00  0.00    -0.083 Cl
ATOM     19  C   LIG    1      -27.734  75.593  12.218  0.00  0.00    +0.041 A 
ATOM     20  C   LIG    1      -28.733  76.329  11.560  0.00  0.00    +0.052 A 
ATOM     21 CL   LIG    1      -29.870  75.359  10.687  0.00  0.00    -0.083 Cl
ATOM     22  C   LIG    1      -28.829  77.729  11.712  0.00  0.00    +0.022 A 
ATOM     23  C   LIG    1      -27.902  78.317  12.614  0.00  0.00    +0.026 A 
BRANCH  22  24
ATOM     24  C   LIG    1      -29.844  78.594  11.044  0.00  0.00    +0.107 A 
ATOM     25  C   LIG    1      -29.830  78.962   9.695  0.00  0.00    +0.149 A 
ATOM     26  F   LIG    1      -28.813  78.646   8.884  0.00  0.00    -0.203 F 
ATOM     27  C   LIG    1      -30.860  79.733   9.164  0.00  0.00    +0.042 A 
ATOM     28  C   LIG    1      -31.863  80.197  10.003  0.00  0.00    +0.023 A 
ATOM     29  C   LIG    1      -31.789  79.857  11.342  0.00  0.00    +0.111 A 
ATOM     30  N   LIG    1      -30.821  79.067  11.874  0.00  0.00    -0.252 NA
ENDBRANCH  22  24
ENDBRANCH  14  16
ENDBRANCH   4  12
BRANCH   1  31
ATOM     31  C   LIG    1      -22.630  82.864  15.925  0.00  0.00    +0.236 C 
ATOM     32  N   LIG    1      -22.813  83.891  15.181  0.00  0.00    -0.249 NA
BRANCH  31  33
ATOM     33  O   LIG    1      -22.130  82.901  17.180  0.00  0.00    -0.491 OA
ATOM     34  H   LIG    1      -22.433  83.721  17.615  0.00  0.00    +0.294 HD
ENDBRANCH  31  33
BRANCH  32  35
ATOM     35  C   LIG    1      -22.438  85.201  15.712  0.00  0.00    +0.151 C 
BRANCH  35  36
ATOM     36  C   LIG    1      -22.214  86.189  14.567  0.00  0.00    +0.038 C 
ATOM     37  C   LIG    1      -20.848  86.080  13.910  0.00  0.00    +0.165 C 
ATOM     38  O   LIG    1      -20.561  87.356  13.317  0.00  0.00    -0.379 OA
ATOM     39  C   LIG    1      -21.540  88.300  13.769  0.00  0.00    +0.160 C 
ATOM     40  C   LIG    1      -22.276  87.659  14.928  0.00  0.00    +0.035 C 
ENDBRANCH  35  36
ENDBRANCH  32  35
ENDBRANCH   1  31
TORSDOF 8
ENDMDL
MODEL 5
REMARK VINA RESULT:      -6.4     17.511     21.052
REMARK  Name = pdb/CHEMBL3950778.pdb
REMARK                            x       y       z     vdW  Elec       q    Type
REMARK                         _______ _______ _______ _____ _____    ______ ____
ROOT
ATOM      1  C   LIG    1      -37.697  70.288  24.700  0.00  0.00    +0.149 A 
ATOM      2  N   LIG    1      -37.361  69.257  25.495  0.00  0.00    -0.160 NA
ATOM      3  N   LIG    1      -36.209  69.662  26.107  0.00  0.00    -0.218 N 
ATOM      4  C   LIG    1      -35.939  71.014  25.860  0.00  0.00    +0.129 A 
ATOM      5  C   LIG    1      -36.840  71.394  24.887  0.00  0.00    +0.078 A 
ENDROOT
BRANCH   3   6
ATOM      6  C   LIG    1      -35.476  68.741  26.909  0.00  0.00    +0.067 A 
ATOM      7  C   LIG    1      -34.615  67.814  26.300  0.00  0.00    +0.028 A 
ATOM      8  C   LIG    1      -33.893  66.908  27.082  0.00  0.00    +0.002 A 
ATOM      9  C   LIG    1      -34.010  66.934  28.471  0.00  0.00    +0.000 A 
ATOM     10  C   LIG    1      -34.834  67.876  29.081  0.00  0.00    +0.002 A 
ATOM     11  C   LIG    1      -35.560  68.783  28.305  0.00  0.00    +0.028 A 
ENDBRANCH   3   6
BRANCH   4  12
ATOM     12  N   LIG    1      -35.008  71.853  26.486  0.00  0.00    -0.266 N 
ATOM     13  H   LIG    1      -34.057  71.863  26.123  0.00  0.00    +0.157 HD
ATOM     14  C   LIG    1      -35.283  72.617  27.681  0.00  0.00    +0.251 C 
ATOM     15  O   LIG    1      -36.368  72.523  28.251  0.00  0.00    -0.270 OA
BRANCH  14  16
ATOM     16  C   LIG    1      -34.196  73.442  28.259  0.00  0.00    +0.056 A 
ATOM     17  C   LIG    1      -33.145  72.913  29.016  0.00  0.00    +0.054 A 
ATOM     18 CL   LIG    1      -32.954  71.233  29.341  0.00  0.00    -0.083 Cl
ATOM     19  C   LIG    1      -32.146  73.758  29.492  0.00  0.00    +0.041 A 
ATOM     20  C   LIG    1      -32.152  75.135  29.210  0.00  0.00    +0.052 A 
ATOM     21 CL   LIG    1      -30.720  75.967  29.713  0.00  0.00    -0.083 Cl
ATOM     22  C   LIG    1      -33.206  75.727  28.483  0.00  0.00    +0.022 A 
ATOM     23  C   LIG    1      -34.205  74.836  28.008  0.00  0.00    +0.026 A 
BRANCH  22  24
ATOM     24  C   LIG    1      -33.305  77.178  28.149  0.00  0.00    +0.107 A 
ATOM     25  C   LIG    1      -32.587  77.826  27.139  0.00  0.00    +0.149 A 
ATOM     26  F   LIG    1      -31.638  77.201  26.431  0.00  0.00    -0.203 F 
ATOM     27  C   LIG    1      -32.798  79.177  26.879  0.00  0.00    +0.042 A 
ATOM     28  C   LIG    1      -33.673  79.893  27.683  0.00  0.00    +0.023 A 
ATOM     29  C   LIG    1      -34.306  79.215  28.709  0.00  0.00    +0.111 A 
ATOM     30  N   LIG    1      -34.153  77.888  28.952  0.00  0.00    -0.252 NA
ENDBRANCH  22  24
ENDBRANCH  14  16
ENDBRANCH   4  12
BRANCH   1  31
ATOM     31  C   LIG    1      -38.842  70.219  23.800  0.00  0.00    +0.236 C 
ATOM     32  N   LIG    1      -39.762  71.109  23.866  0.00  0.00    -0.249 NA
BRANCH  31  33
ATOM     33  O   LIG    1      -38.839  69.178  22.938  0.00  0.00    -0.491 OA
ATOM     34  H   LIG    1      -39.431  68.482  23.283  0.00  0.00    +0.294 HD
ENDBRANCH  31  33
BRANCH  32  35
ATOM     35  C   LIG    1      -40.904  70.988  22.961  0.00  0.00    +0.151 C 
BRANCH  35  36
ATOM     36  C   LIG    1      -41.882  72.141  23.189  0.00  0.00    +0.038 C 
ATOM     37  C   LIG    1      -42.748  72.468  21.984  0.00  0.00    +0.165 C 
ATOM     38  O   LIG    1      -43.149  73.841  22.112  0.00  0.00    -0.379 OA
ATOM     39  C   LIG    1      -42.397  74.439  23.176  0.00  0.00    +0.160 C 
ATOM     40  C   LIG    1      -41.267  73.487  23.513  0.00  0.00    +0.035 C 
ENDBRANCH  35  36
ENDBRANCH  32  35
ENDBRANCH   1  31
TORSDOF 8
ENDMDL
MODEL 6
REMARK VINA RESULT:      -6.4     17.229     19.820
REMARK  Name = pdb/CHEMBL3950778.pdb
REMARK                            x       y       z     vdW  Elec       q    Type
REMARK                         _______ _______ _______ _____ _____    ______ ____
ROOT
ATOM      1  C   LIG    1      -31.712  74.544  29.982  0.00  0.00    +0.149 A 
ATOM      2  N   LIG    1      -31.892  75.868  29.842  0.00  0.00    -0.160 NA
ATOM      3  N   LIG    1      -32.760  75.985  28.793  0.00  0.00    -0.218 N 
ATOM      4  C   LIG    1      -33.284  74.744  28.415  0.00  0.00    +0.129 A 
ATOM      5  C   LIG    1      -32.549  73.808  29.114  0.00  0.00    +0.078 A 
ENDROOT
BRANCH   3   6
ATOM      6  C   LIG    1      -33.049  77.274  28.260  0.00  0.00    +0.067 A 
ATOM      7  C   LIG    1      -34.024  78.080  28.869  0.00  0.00    +0.028 A 
ATOM      8  C   LIG    1      -34.312  79.347  28.350  0.00  0.00    +0.002 A 
ATOM      9  C   LIG    1      -33.618  79.820  27.238  0.00  0.00    +0.000 A 
ATOM     10  C   LIG    1      -32.625  79.039  26.653  0.00  0.00    +0.002 A 
ATOM     11  C   LIG    1      -32.334  77.772  27.165  0.00  0.00    +0.028 A 
ENDBRANCH   3   6
BRANCH   4  12
ATOM     12  N   LIG    1      -34.362  74.467  27.564  0.00  0.00    -0.266 N 
ATOM     13  H   LIG    1      -34.156  74.252  26.590  0.00  0.00    +0.157 HD
ATOM     14  C   LIG    1      -35.749  74.579  27.952  0.00  0.00    +0.251 C 
ATOM     15  O   LIG    1      -36.056  74.984  29.072  0.00  0.00    -0.270 OA
BRANCH  14  16
ATOM     16  C   LIG    1      -36.793  74.287  26.942  0.00  0.00    +0.056 A 
ATOM     17  C   LIG    1      -37.127  72.992  26.530  0.00  0.00    +0.054 A 
ATOM     18 CL   LIG    1      -36.399  71.569  27.171  0.00  0.00    -0.083 Cl
ATOM     19  C   LIG    1      -38.147  72.807  25.600  0.00  0.00    +0.041 A 
ATOM     20  C   LIG    1      -38.870  73.892  25.077  0.00  0.00    +0.052 A 
ATOM     21 CL   LIG    1      -40.225  73.436  24.102  0.00  0.00    -0.083 Cl
ATOM     22  C   LIG    1      -38.552  75.221  25.430  0.00  0.00    +0.022 A 
ATOM     23  C   LIG    1      -37.511  75.373  26.385  0.00  0.00    +0.026 A 
BRANCH  22  24
ATOM     24  C   LIG    1      -39.253  76.433  24.917  0.00  0.00    +0.107 A 
ATOM     25  C   LIG    1      -38.747  77.312  23.953  0.00  0.00    +0.149 A 
ATOM     26  F   LIG    1      -37.503  77.195  23.470  0.00  0.00    -0.203 F 
ATOM     27  C   LIG    1      -39.511  78.386  23.507  0.00  0.00    +0.042 A 
ATOM     28  C   LIG    1      -40.750  78.622  24.084  0.00  0.00    +0.023 A 
ATOM     29  C   LIG    1      -41.171  77.759  25.079  0.00  0.00    +0.111 A 
ATOM     30  N   LIG    1      -40.465  76.677  25.497  0.00  0.00    -0.252 NA
ENDBRANCH  22  24
ENDBRANCH  14  16
ENDBRANCH   4  12
BRANCH   1  31
ATOM     31  C   LIG    1      -30.777  73.996  30.957  0.00  0.00    +0.236 C 
ATOM     32  N   LIG    1      -29.862  74.742  31.455  0.00  0.00    -0.249 NA
BRANCH  31  33
ATOM     33  O   LIG    1      -30.959  72.693  31.264  0.00  0.00    -0.491 OA
ATOM     34  H   LIG    1      -31.384  72.247  30.506  0.00  0.00    +0.294 HD
ENDBRANCH  31  33
BRANCH  32  35
ATOM     35  C   LIG    1      -28.931  74.146  32.411  0.00  0.00    +0.151 C 
BRANCH  35  36
ATOM     36  C   LIG    1      -27.816  75.136  32.750  0.00  0.00    +0.038 C 
ATOM     37  C   LIG    1      -28.119  76.571  32.355  0.00  0.00    +0.165 C 
ATOM     38  O   LIG    1      -26.859  77.236  32.179  0.00  0.00    -0.379 OA
ATOM     39  C   LIG    1      -25.816  76.253  32.203  0.00  0.00    +0.160 C 
ATOM     40  C   LIG    1      -26.480  74.896  32.076  0.00  0.00    +0.035 C 
ENDBRANCH  35  36
ENDBRANCH  32  35
ENDBRANCH   1  31
TORSDOF 8
ENDMDL
MODEL 7
REMARK VINA RESULT:      -6.3     18.468     19.670
REMARK  Name = pdb/CHEMBL3950778.pdb
REMARK                            x       y       z     vdW  Elec       q    Type
REMARK                         _______ _______ _______ _____ _____    ______ ____
ROOT
ATOM      1  C   LIG    1      -36.938  79.925  27.654  0.00  0.00    +0.149 A 
ATOM      2  N   LIG    1      -35.810  79.249  27.933  0.00  0.00    -0.160 NA
ATOM      3  N   LIG    1      -36.158  77.935  27.796  0.00  0.00    -0.218 N 
ATOM      4  C   LIG    1      -37.431  77.794  27.231  0.00  0.00    +0.129 A 
ATOM      5  C   LIG    1      -37.970  79.064  27.222  0.00  0.00    +0.078 A 
ENDROOT
BRANCH   3   6
ATOM      6  C   LIG    1      -35.236  76.919  28.177  0.00  0.00    +0.067 A 
ATOM      7  C   LIG    1      -35.149  76.523  29.522  0.00  0.00    +0.028 A 
ATOM      8  C   LIG    1      -34.247  75.525  29.903  0.00  0.00    +0.002 A 
ATOM      9  C   LIG    1      -33.443  74.906  28.946  0.00  0.00    +0.000 A 
ATOM     10  C   LIG    1      -33.553  75.271  27.606  0.00  0.00    +0.002 A 
ATOM     11  C   LIG    1      -34.451  76.268  27.219  0.00  0.00    +0.028 A 
ENDBRANCH   3   6
BRANCH   4  12
ATOM     12  N   LIG    1      -38.042  76.642  26.717  0.00  0.00    -0.266 N 
ATOM     13  H   LIG    1      -38.564  76.052  27.361  0.00  0.00    +0.157 HD
ATOM     14  C   LIG    1      -37.882  76.181  25.357  0.00  0.00    +0.251 C 
ATOM     15  O   LIG    1      -37.137  76.772  24.577  0.00  0.00    -0.270 OA
BRANCH  14  16
ATOM     16  C   LIG    1      -38.559  74.928  24.951  0.00  0.00    +0.056 A 
ATOM     17  C   LIG    1      -39.753  74.897  24.222  0.00  0.00    +0.054 A 
ATOM     18 CL   LIG    1      -40.571  76.308  23.670  0.00  0.00    -0.083 Cl
ATOM     19  C   LIG    1      -40.303  73.672  23.852  0.00  0.00    +0.041 A 
ATOM     20  C   LIG    1      -39.673  72.457  24.172  0.00  0.00    +0.052 A 
ATOM     21 CL   LIG    1      -40.404  71.068  23.443  0.00  0.00    -0.083 Cl
ATOM     22  C   LIG    1      -38.486  72.428  24.934  0.00  0.00    +0.022 A 
ATOM     23  C   LIG    1      -37.951  73.694  25.291  0.00  0.00    +0.026 A 
BRANCH  22  24
ATOM     24  C   LIG    1      -37.757  71.190  25.334  0.00  0.00    +0.107 A 
ATOM     25  C   LIG    1      -37.127  70.304  24.454  0.00  0.00    +0.149 A 
ATOM     26  F   LIG    1      -37.219  70.438  23.125  0.00  0.00    -0.203 F 
ATOM     27  C   LIG    1      -36.427  69.204  24.941  0.00  0.00    +0.042 A 
ATOM     28  C   LIG    1      -36.424  68.952  26.305  0.00  0.00    +0.023 A 
ATOM     29  C   LIG    1      -37.120  69.825  27.122  0.00  0.00    +0.111 A 
ATOM     30  N   LIG    1      -37.770  70.931  26.675  0.00  0.00    -0.252 NA
ENDBRANCH  22  24
ENDBRANCH  14  16
ENDBRANCH   4  12
BRANCH   1  31
ATOM     31  C   LIG    1      -37.010  81.376  27.769  0.00  0.00    +0.236 C 
ATOM     32  N   LIG    1      -35.935  82.074  27.747  0.00  0.00    -0.249 NA
BRANCH  31  33
ATOM     33  O   LIG    1      -38.255  81.885  27.898  0.00  0.00    -0.491 OA
ATOM     34  H   LIG    1      -38.862  81.382  27.322  0.00  0.00    +0.294 HD
ENDBRANCH  31  33
BRANCH  32  35
ATOM     35  C   LIG    1      -36.052  83.524  27.889  0.00  0.00    +0.151 C 
BRANCH  35  36
ATOM     36  C   LIG    1      -35.258  84.001  29.106  0.00  0.00    +0.038 C 
ATOM     37  C   LIG    1      -34.354  82.940  29.711  0.00  0.00    +0.165 C 
ATOM     38  O   LIG    1      -34.152  83.293  31.088  0.00  0.00    -0.379 OA
ATOM     39  C   LIG    1      -35.057  84.353  31.426  0.00  0.00    +0.160 C 
ATOM     40  C   LIG    1      -36.072  84.447  30.304  0.00  0.00    +0.035 C 
ENDBRANCH  35  36
ENDBRANCH  32  35
ENDBRANCH   1  31
TORSDOF 8
ENDMDL
MODEL 8
REMARK VINA RESULT:      -6.3     18.024     19.765
REMARK  Name = pdb/CHEMBL3950778.pdb
REMARK                            x       y       z     vdW  Elec       q    Type
REMARK                         _______ _______ _______ _____ _____    ______ ____
ROOT
ATOM      1  C   LIG    1      -35.812  71.635  26.941  0.00  0.00    +0.149 A 
ATOM      2  N   LIG    1      -36.969  72.304  26.800  0.00  0.00    -0.160 NA
ATOM      3  N   LIG    1      -37.351  72.056  25.512  0.00  0.00    -0.218 N 
ATOM      4  C   LIG    1      -36.553  71.072  24.916  0.00  0.00    +0.129 A 
ATOM      5  C   LIG    1      -35.511  70.864  25.797  0.00  0.00    +0.078 A 
ENDROOT
BRANCH   3   6
ATOM      6  C   LIG    1      -38.468  72.749  24.962  0.00  0.00    +0.067 A 
ATOM      7  C   LIG    1      -38.490  74.153  24.966  0.00  0.00    +0.028 A 
ATOM      8  C   LIG    1      -39.584  74.838  24.427  0.00  0.00    +0.002 A 
ATOM      9  C   LIG    1      -40.646  74.130  23.866  0.00  0.00    +0.000 A 
ATOM     10  C   LIG    1      -40.610  72.738  23.827  0.00  0.00    +0.002 A 
ATOM     11  C   LIG    1      -39.521  72.048  24.366  0.00  0.00    +0.028 A 
ENDBRANCH   3   6
BRANCH   4  12
ATOM     12  N   LIG    1      -36.762  70.377  23.718  0.00  0.00    -0.266 N 
ATOM     13  H   LIG    1      -36.591  70.872  22.845  0.00  0.00    +0.157 HD
ATOM     14  C   LIG    1      -37.311  69.043  23.642  0.00  0.00    +0.251 C 
ATOM     15  O   LIG    1      -37.680  68.457  24.658  0.00  0.00    -0.270 OA
BRANCH  14  16
ATOM     16  C   LIG    1      -37.510  68.434  22.306  0.00  0.00    +0.056 A 
ATOM     17  C   LIG    1      -38.660  68.629  21.533  0.00  0.00    +0.054 A 
ATOM     18 CL   LIG    1      -39.976  69.630  22.015  0.00  0.00    -0.083 Cl
ATOM     19  C   LIG    1      -38.749  68.046  20.272  0.00  0.00    +0.041 A 
ATOM     20  C   LIG    1      -37.697  67.282  19.740  0.00  0.00    +0.052 A 
ATOM     21 CL   LIG    1      -37.920  66.825  18.085  0.00  0.00    -0.083 Cl
ATOM     22  C   LIG    1      -36.530  67.024  20.489  0.00  0.00    +0.022 A 
ATOM     23  C   LIG    1      -36.470  67.637  21.769  0.00  0.00    +0.026 A 
BRANCH  22  24
ATOM     24  C   LIG    1      -35.370  66.214  20.014  0.00  0.00    +0.107 A 
ATOM     25  C   LIG    1      -34.521  66.560  18.958  0.00  0.00    +0.149 A 
ATOM     26  F   LIG    1      -34.748  67.631  18.187  0.00  0.00    -0.203 F 
ATOM     27  C   LIG    1      -33.435  65.753  18.633  0.00  0.00    +0.042 A 
ATOM     28  C   LIG    1      -33.245  64.562  19.319  0.00  0.00    +0.023 A 
ATOM     29  C   LIG    1      -34.155  64.239  20.309  0.00  0.00    +0.111 A 
ATOM     30  N   LIG    1      -35.195  65.032  20.676  0.00  0.00    -0.252 NA
ENDBRANCH  22  24
ENDBRANCH  14  16
ENDBRANCH   4  12
BRANCH   1  31
ATOM     31  C   LIG    1      -35.028  71.711  28.168  0.00  0.00    +0.236 C 
ATOM     32  N   LIG    1      -34.300  72.740  28.399  0.00  0.00    -0.249 NA
BRANCH  31  33
ATOM     33  O   LIG    1      -35.139  70.645  28.991  0.00  0.00    -0.491 OA
ATOM     34  H   LIG    1      -35.899  70.786  29.588  0.00  0.00    +0.294 HD
ENDBRANCH  31  33
BRANCH  32  35
ATOM     35  C   LIG    1      -33.512  72.763  29.630  0.00  0.00    +0.151 C 
BRANCH  35  36
ATOM     36  C   LIG    1      -32.901  74.149  29.839  0.00  0.00    +0.038 C 
ATOM     37  C   LIG    1      -33.228  75.144  28.738  0.00  0.00    +0.165 C 
ATOM     38  O   LIG    1      -32.185  76.131  28.736  0.00  0.00    -0.379 OA
ATOM     39  C   LIG    1      -31.127  75.677  29.591  0.00  0.00    +0.160 C 
ATOM     40  C   LIG    1      -31.389  74.215  29.888  0.00  0.00    +0.035 C 
ENDBRANCH  35  36
ENDBRANCH  32  35
ENDBRANCH   1  31
TORSDOF 8
ENDMDL
MODEL 9
REMARK VINA RESULT:      -6.2     18.081     19.764
REMARK  Name = pdb/CHEMBL3950778.pdb
REMARK                            x       y       z     vdW  Elec       q    Type
REMARK                         _______ _______ _______ _____ _____    ______ ____
ROOT
ATOM      1  C   LIG    1      -31.271  87.074  30.543  0.00  0.00    +0.149 A 
ATOM      2  N   LIG    1      -32.230  87.916  30.124  0.00  0.00    -0.160 NA
ATOM      3  N   LIG    1      -33.076  87.131  29.392  0.00  0.00    -0.218 N 
ATOM      4  C   LIG    1      -32.766  85.773  29.527  0.00  0.00    +0.129 A 
ATOM      5  C   LIG    1      -31.557  85.737  30.190  0.00  0.00    +0.078 A 
ENDROOT
BRANCH   3   6
ATOM      6  C   LIG    1      -34.134  87.734  28.654  0.00  0.00    +0.067 A 
ATOM      7  C   LIG    1      -35.256  86.971  28.290  0.00  0.00    +0.028 A 
ATOM      8  C   LIG    1      -36.299  87.558  27.567  0.00  0.00    +0.002 A 
ATOM      9  C   LIG    1      -36.238  88.906  27.221  0.00  0.00    +0.000 A 
ATOM     10  C   LIG    1      -35.145  89.676  27.612  0.00  0.00    +0.002 A 
ATOM     11  C   LIG    1      -34.098  89.095  28.334  0.00  0.00    +0.028 A 
ENDBRANCH   3   6
BRANCH   4  12
ATOM     12  N   LIG    1      -33.521  84.657  29.142  0.00  0.00    -0.266 N 
ATOM     13  H   LIG    1      -33.775  84.570  28.160  0.00  0.00    +0.157 HD
ATOM     14  C   LIG    1      -34.056  83.684  30.067  0.00  0.00    +0.251 C 
ATOM     15  O   LIG    1      -33.910  83.824  31.280  0.00  0.00    -0.270 OA
BRANCH  14  16
ATOM     16  C   LIG    1      -34.866  82.566  29.528  0.00  0.00    +0.056 A 
ATOM     17  C   LIG    1      -36.265  82.565  29.511  0.00  0.00    +0.054 A 
ATOM     18 CL   LIG    1      -37.227  83.877  30.076  0.00  0.00    -0.083 Cl
ATOM     19  C   LIG    1      -36.946  81.487  28.954  0.00  0.00    +0.041 A 
ATOM     20  C   LIG    1      -36.261  80.401  28.382  0.00  0.00    +0.052 A 
ATOM     21 CL   LIG    1      -37.284  79.271  27.562  0.00  0.00    -0.083 Cl
ATOM     22  C   LIG    1      -34.852  80.333  28.404  0.00  0.00    +0.022 A 
ATOM     23  C   LIG    1      -34.188  81.452  28.975  0.00  0.00    +0.026 A 
BRANCH  22  24
ATOM     24  C   LIG    1      -34.041  79.217  27.837  0.00  0.00    +0.107 A 
ATOM     25  C   LIG    1      -34.076  77.889  28.274  0.00  0.00    +0.149 A 
ATOM     26  F   LIG    1      -34.786  77.514  29.346  0.00  0.00    -0.203 F 
ATOM     27  C   LIG    1      -33.313  76.916  27.636  0.00  0.00    +0.042 A 
ATOM     28  C   LIG    1      -32.459  77.289  26.609  0.00  0.00    +0.023 A 
ATOM     29  C   LIG    1      -32.416  78.627  26.262  0.00  0.00    +0.111 A 
ATOM     30  N   LIG    1      -33.185  79.587  26.838  0.00  0.00    -0.252 NA
ENDBRANCH  22  24
ENDBRANCH  14  16
ENDBRANCH   4  12
BRANCH   1  31
ATOM     31  C   LIG    1      -30.116  87.544  31.299  0.00  0.00    +0.236 C 
ATOM     32  N   LIG    1      -30.104  87.448  32.576  0.00  0.00    -0.249 NA
BRANCH  31  33
ATOM     33  O   LIG    1      -29.113  88.065  30.557  0.00  0.00    -0.491 OA
ATOM     34  H   LIG    1      -28.749  87.364  29.983  0.00  0.00    +0.294 HD
ENDBRANCH  31  33
BRANCH  32  35
ATOM     35  C   LIG    1      -28.936  87.954  33.295  0.00  0.00    +0.151 C 
BRANCH  35  36
ATOM     36  C   LIG    1      -29.307  89.204  34.093  0.00  0.00    +0.038 C 
ATOM     37  C   LIG    1      -30.734  89.206  34.615  0.00  0.00    +0.165 C 
ATOM     38  O   LIG    1      -31.115  90.579  34.800  0.00  0.00    -0.379 OA
ATOM     39  C   LIG    1      -30.114  91.414  34.203  0.00  0.00    +0.160 C 
ATOM     40  C   LIG    1      -29.240  90.520  33.346  0.00  0.00    +0.035 C 
ENDBRANCH  35  36
ENDBRANCH  32  35
ENDBRANCH   1  31
TORSDOF 8
ENDMDL
