MODEL 1
REMARK VINA RESULT:      -8.3      0.000      0.000
REMARK  Name = pdb/CHEMBL2037209.pdb
REMARK                            x       y       z     vdW  Elec       q    Type
REMARK                         _______ _______ _______ _____ _____    ______ ____
ROOT
ATOM      1  C   LIG    1      -38.238  74.853  24.980  0.00  0.00    +0.035 A 
ATOM      2  C   LIG    1      -38.442  73.471  24.847  0.00  0.00    +0.046 A 
ATOM      3  C   LIG    1      -39.634  72.951  24.321  0.00  0.00    +0.033 A 
ATOM      4  C   LIG    1      -40.617  73.849  23.895  0.00  0.00    +0.023 A 
ATOM      5  C   LIG    1      -40.422  75.224  24.008  0.00  0.00    +0.004 A 
ATOM      6  C   LIG    1      -39.239  75.723  24.554  0.00  0.00    +0.023 A 
ENDROOT
BRANCH   1   8
ATOM      7  C   LIG    1      -36.819  75.687  26.869  0.00  0.00    +0.248 C 
ATOM      8  N   LIG    1      -37.018  75.269  25.564  0.00  0.00    -0.281 N 
ATOM      9  H   LIG    1      -36.231  75.229  24.935  0.00  0.00    +0.155 HD
ATOM     10  O   LIG    1      -37.697  75.803  27.718  0.00  0.00    -0.270 OA
BRANCH   7  15
ATOM     11  C   LIG    1      -33.363  75.230  28.380  0.00  0.00    +0.049 A 
ATOM     12  C   LIG    1      -32.756  76.462  28.102  0.00  0.00    +0.038 A 
ATOM     13  C   LIG    1      -33.456  77.471  27.417  0.00  0.00    +0.057 A 
ATOM     14  C   LIG    1      -34.784  77.242  27.015  0.00  0.00    +0.025 A 
ATOM     15  C   LIG    1      -35.411  76.019  27.282  0.00  0.00    +0.040 A 
ATOM     16  C   LIG    1      -34.686  75.020  27.965  0.00  0.00    +0.039 A 
BRANCH  11  21
ATOM     17  C   LIG    1      -31.850  70.839  30.279  0.00  0.00    +0.067 C 
ATOM     18  C   LIG    1      -31.993  72.261  29.899  0.00  0.00    +0.056 A 
ATOM     19  N   LIG    1      -31.104  73.197  30.348  0.00  0.00    -0.241 NA
ATOM     20  C   LIG    1      -31.512  74.338  29.837  0.00  0.00    +0.204 A 
ATOM     21  N   LIG    1      -32.645  74.201  29.062  0.00  0.00    -0.306 N 
ATOM     22  C   LIG    1      -32.943  72.854  29.096  0.00  0.00    +0.115 A 
ENDBRANCH  11  21
BRANCH  13  23
ATOM     23  C   LIG    1      -32.773  78.784  27.106  0.00  0.00    +0.418 C 
ATOM     24  F   LIG    1      -31.710  79.019  27.921  0.00  0.00    -0.166 F 
ATOM     25  F   LIG    1      -33.606  79.850  27.248  0.00  0.00    -0.166 F 
ATOM     26  F   LIG    1      -32.292  78.849  25.833  0.00  0.00    -0.166 F 
ENDBRANCH  13  23
ENDBRANCH   7  15
ENDBRANCH   1   8
BRANCH   3  27
ATOM     27  N   LIG    1      -39.876  71.569  24.225  0.00  0.00    -0.314 N 
ATOM     28  H   LIG    1      -40.511  71.216  24.935  0.00  0.00    +0.152 HD
BRANCH  27  29
ATOM     29  C   LIG    1      -39.162  70.549  23.564  0.00  0.00    +0.033 A 
ATOM     30  C   LIG    1      -37.850  70.282  23.973  0.00  0.00    +0.047 A 
ATOM     31  C   LIG    1      -37.169  69.254  23.351  0.00  0.00    +0.043 A 
ATOM     32  N   LIG    1      -35.875  68.837  23.634  0.00  0.00    -0.281 N 
ATOM     33  H   LIG    1      -35.264  69.235  24.332  0.00  0.00    +0.155 HD
ATOM     34  C   LIG    1      -35.500  67.767  22.842  0.00  0.00    +0.249 C 
ATOM     35  O   LIG    1      -34.430  67.197  22.883  0.00  0.00    -0.270 OA
ATOM     36  C   LIG    1      -36.692  67.488  21.950  0.00  0.00    +0.048 C 
ATOM     37  C   LIG    1      -36.862  66.559  20.993  0.00  0.00    +0.039 C 
ATOM     38  C   LIG    1      -37.725  68.473  22.334  0.00  0.00    +0.008 A 
ATOM     39  C   LIG    1      -39.018  68.722  21.915  0.00  0.00    +0.012 A 
ATOM     40  C   LIG    1      -39.732  69.759  22.542  0.00  0.00    +0.024 A 
BRANCH  37  41
ATOM     41  C   LIG    1      -35.961  65.552  20.546  0.00  0.00    +0.040 A 
ATOM     42  N   LIG    1      -34.726  65.830  20.009  0.00  0.00    -0.361 N 
ATOM     43  H   LIG    1      -34.339  66.757  19.868  0.00  0.00    +0.165 HD
ATOM     44  C   LIG    1      -34.072  64.672  19.680  0.00  0.00    +0.083 A 
ATOM     45  C   LIG    1      -34.893  63.620  20.000  0.00  0.00    +0.019 A 
ATOM     46  C   LIG    1      -36.078  64.170  20.542  0.00  0.00    +0.027 A 
ENDBRANCH  37  41
ENDBRANCH  27  29
ENDBRANCH   3  27
TORSDOF 7
ENDMDL
MODEL 2
REMARK VINA RESULT:      -8.0      1.258      1.664
REMARK  Name = pdb/CHEMBL2037209.pdb
REMARK                            x       y       z     vdW  Elec       q    Type
REMARK                         _______ _______ _______ _____ _____    ______ ____
ROOT
ATOM      1  C   LIG    1      -38.334  74.761  24.989  0.00  0.00    +0.035 A 
ATOM      2  C   LIG    1      -38.512  73.380  24.811  0.00  0.00    +0.046 A 
ATOM      3  C   LIG    1      -39.696  72.855  24.272  0.00  0.00    +0.033 A 
ATOM      4  C   LIG    1      -40.698  73.748  23.878  0.00  0.00    +0.023 A 
ATOM      5  C   LIG    1      -40.528  75.122  24.036  0.00  0.00    +0.004 A 
ATOM      6  C   LIG    1      -39.353  75.625  24.595  0.00  0.00    +0.023 A 
ENDROOT
BRANCH   1   8
ATOM      7  C   LIG    1      -36.897  75.447  26.923  0.00  0.00    +0.248 C 
ATOM      8  N   LIG    1      -37.120  75.180  25.583  0.00  0.00    -0.281 N 
ATOM      9  H   LIG    1      -36.356  75.268  24.931  0.00  0.00    +0.155 HD
ATOM     10  O   LIG    1      -37.748  75.402  27.806  0.00  0.00    -0.270 OA
BRANCH   7  15
ATOM     11  C   LIG    1      -33.420  75.077  28.407  0.00  0.00    +0.049 A 
ATOM     12  C   LIG    1      -32.852  76.330  28.141  0.00  0.00    +0.038 A 
ATOM     13  C   LIG    1      -33.587  77.327  27.472  0.00  0.00    +0.057 A 
ATOM     14  C   LIG    1      -34.910  77.062  27.075  0.00  0.00    +0.025 A 
ATOM     15  C   LIG    1      -35.497  75.818  27.332  0.00  0.00    +0.040 A 
ATOM     16  C   LIG    1      -34.738  74.833  27.997  0.00  0.00    +0.039 A 
BRANCH  11  21
ATOM     17  C   LIG    1      -31.765  70.713  30.247  0.00  0.00    +0.067 C 
ATOM     18  C   LIG    1      -31.952  72.134  29.883  0.00  0.00    +0.056 A 
ATOM     19  N   LIG    1      -31.085  73.090  30.333  0.00  0.00    -0.241 NA
ATOM     20  C   LIG    1      -31.530  74.224  29.838  0.00  0.00    +0.204 A 
ATOM     21  N   LIG    1      -32.667  74.062  29.072  0.00  0.00    -0.306 N 
ATOM     22  C   LIG    1      -32.926  72.708  29.095  0.00  0.00    +0.115 A 
ENDBRANCH  11  21
BRANCH  13  23
ATOM     23  C   LIG    1      -32.945  78.663  27.173  0.00  0.00    +0.418 C 
ATOM     24  F   LIG    1      -32.497  78.746  25.892  0.00  0.00    -0.166 F 
ATOM     25  F   LIG    1      -31.872  78.914  27.970  0.00  0.00    -0.166 F 
ATOM     26  F   LIG    1      -33.795  79.715  27.343  0.00  0.00    -0.166 F 
ENDBRANCH  13  23
ENDBRANCH   7  15
ENDBRANCH   1   8
BRANCH   3  27
ATOM     27  N   LIG    1      -39.912  71.473  24.131  0.00  0.00    -0.314 N 
ATOM     28  H   LIG    1      -40.560  71.090  24.813  0.00  0.00    +0.152 HD
BRANCH  27  29
ATOM     29  C   LIG    1      -39.164  70.483  23.461  0.00  0.00    +0.033 A 
ATOM     30  C   LIG    1      -39.708  69.902  22.309  0.00  0.00    +0.047 A 
ATOM     31  C   LIG    1      -38.953  68.964  21.632  0.00  0.00    +0.043 A 
ATOM     32  N   LIG    1      -39.320  68.298  20.470  0.00  0.00    -0.281 N 
ATOM     33  H   LIG    1      -40.188  68.414  19.971  0.00  0.00    +0.155 HD
ATOM     34  C   LIG    1      -38.325  67.438  20.041  0.00  0.00    +0.249 C 
ATOM     35  O   LIG    1      -38.372  66.740  19.050  0.00  0.00    -0.270 OA
ATOM     36  C   LIG    1      -37.211  67.569  21.058  0.00  0.00    +0.048 C 
ATOM     37  C   LIG    1      -36.017  66.955  21.123  0.00  0.00    +0.039 C 
ATOM     38  C   LIG    1      -37.678  68.566  22.044  0.00  0.00    +0.008 A 
ATOM     39  C   LIG    1      -37.125  69.127  23.180  0.00  0.00    +0.012 A 
ATOM     40  C   LIG    1      -37.873  70.091  23.878  0.00  0.00    +0.024 A 
BRANCH  37  41
ATOM     41  C   LIG    1      -35.447  65.999  20.235  0.00  0.00    +0.040 A 
ATOM     42  N   LIG    1      -35.221  66.251  18.902  0.00  0.00    -0.361 N 
ATOM     43  H   LIG    1      -35.439  67.116  18.420  0.00  0.00    +0.165 HD
ATOM     44  C   LIG    1      -34.653  65.161  18.296  0.00  0.00    +0.083 A 
ATOM     45  C   LIG    1      -34.510  64.179  19.244  0.00  0.00    +0.019 A 
ATOM     46  C   LIG    1      -35.009  64.703  20.460  0.00  0.00    +0.027 A 
ENDBRANCH  37  41
ENDBRANCH  27  29
ENDBRANCH   3  27
TORSDOF 7
ENDMDL
MODEL 3
REMARK VINA RESULT:      -8.0      7.429     12.328
REMARK  Name = pdb/CHEMBL2037209.pdb
REMARK                            x       y       z     vdW  Elec       q    Type
REMARK                         _______ _______ _______ _____ _____    ______ ____
ROOT
ATOM      1  C   LIG    1      -27.909  75.407  32.812  0.00  0.00    +0.035 A 
ATOM      2  C   LIG    1      -28.578  74.903  31.686  0.00  0.00    +0.046 A 
ATOM      3  C   LIG    1      -29.888  74.410  31.770  0.00  0.00    +0.033 A 
ATOM      4  C   LIG    1      -30.539  74.462  33.007  0.00  0.00    +0.023 A 
ATOM      5  C   LIG    1      -29.891  74.973  34.130  0.00  0.00    +0.004 A 
ATOM      6  C   LIG    1      -28.579  75.438  34.033  0.00  0.00    +0.023 A 
ENDROOT
BRANCH   1   8
ATOM      7  C   LIG    1      -26.147  76.939  31.903  0.00  0.00    +0.248 C 
ATOM      8  N   LIG    1      -26.574  75.838  32.626  0.00  0.00    -0.281 N 
ATOM      9  H   LIG    1      -25.891  75.265  33.098  0.00  0.00    +0.155 HD
ATOM     10  O   LIG    1      -26.875  77.695  31.267  0.00  0.00    -0.270 OA
BRANCH   7  15
ATOM     11  C   LIG    1      -22.818  78.373  33.039  0.00  0.00    +0.049 A 
ATOM     12  C   LIG    1      -21.937  77.872  32.071  0.00  0.00    +0.038 A 
ATOM     13  C   LIG    1      -22.405  77.055  31.026  0.00  0.00    +0.057 A 
ATOM     14  C   LIG    1      -23.774  76.748  30.948  0.00  0.00    +0.025 A 
ATOM     15  C   LIG    1      -24.673  77.238  31.903  0.00  0.00    +0.040 A 
ATOM     16  C   LIG    1      -24.178  78.049  32.945  0.00  0.00    +0.039 A 
BRANCH  11  21
ATOM     17  C   LIG    1      -19.976  80.556  36.550  0.00  0.00    +0.067 C 
ATOM     18  C   LIG    1      -21.077  80.139  35.656  0.00  0.00    +0.056 A 
ATOM     19  N   LIG    1      -22.325  80.679  35.787  0.00  0.00    -0.241 NA
ATOM     20  C   LIG    1      -23.054  80.102  34.857  0.00  0.00    +0.204 A 
ATOM     21  N   LIG    1      -22.338  79.190  34.109  0.00  0.00    -0.306 N 
ATOM     22  C   LIG    1      -21.058  79.229  34.622  0.00  0.00    +0.115 A 
ENDBRANCH  11  21
BRANCH  13  23
ATOM     23  C   LIG    1      -21.432  76.505  30.007  0.00  0.00    +0.418 C 
ATOM     24  F   LIG    1      -22.058  76.039  28.893  0.00  0.00    -0.166 F 
ATOM     25  F   LIG    1      -20.699  75.468  30.495  0.00  0.00    -0.166 F 
ATOM     26  F   LIG    1      -20.532  77.431  29.572  0.00  0.00    -0.166 F 
ENDBRANCH  13  23
ENDBRANCH   7  15
ENDBRANCH   1   8
BRANCH   3  27
ATOM     27  N   LIG    1      -30.558  73.856  30.664  0.00  0.00    -0.314 N 
ATOM     28  H   LIG    1      -30.012  73.161  30.163  0.00  0.00    +0.152 HD
BRANCH  27  29
ATOM     29  C   LIG    1      -31.674  74.313  29.935  0.00  0.00    +0.033 A 
ATOM     30  C   LIG    1      -31.767  75.681  29.646  0.00  0.00    +0.047 A 
ATOM     31  C   LIG    1      -32.841  76.118  28.895  0.00  0.00    +0.043 A 
ATOM     32  N   LIG    1      -33.088  77.426  28.500  0.00  0.00    -0.281 N 
ATOM     33  H   LIG    1      -32.513  78.227  28.712  0.00  0.00    +0.155 HD
ATOM     34  C   LIG    1      -34.240  77.519  27.740  0.00  0.00    +0.249 C 
ATOM     35  O   LIG    1      -34.687  78.537  27.255  0.00  0.00    -0.270 OA
ATOM     36  C   LIG    1      -34.786  76.109  27.660  0.00  0.00    +0.048 C 
ATOM     37  C   LIG    1      -35.885  75.637  27.048  0.00  0.00    +0.039 C 
ATOM     38  C   LIG    1      -33.838  75.264  28.416  0.00  0.00    +0.008 A 
ATOM     39  C   LIG    1      -33.765  73.912  28.693  0.00  0.00    +0.012 A 
ATOM     40  C   LIG    1      -32.675  73.445  29.447  0.00  0.00    +0.024 A 
BRANCH  37  41
ATOM     41  C   LIG    1      -36.859  76.336  26.280  0.00  0.00    +0.040 A 
ATOM     42  N   LIG    1      -37.500  77.468  26.727  0.00  0.00    -0.361 N 
ATOM     43  H   LIG    1      -37.359  77.907  27.631  0.00  0.00    +0.165 HD
ATOM     44  C   LIG    1      -38.371  77.935  25.778  0.00  0.00    +0.083 A 
ATOM     45  C   LIG    1      -38.304  77.093  24.696  0.00  0.00    +0.019 A 
ATOM     46  C   LIG    1      -37.358  76.090  25.010  0.00  0.00    +0.027 A 
ENDBRANCH  37  41
ENDBRANCH  27  29
ENDBRANCH   3  27
TORSDOF 7
ENDMDL
MODEL 4
REMARK VINA RESULT:      -7.6      2.528      4.251
REMARK  Name = pdb/CHEMBL2037209.pdb
REMARK                            x       y       z     vdW  Elec       q    Type
REMARK                         _______ _______ _______ _____ _____    ______ ____
ROOT
ATOM      1  C   LIG    1      -39.374  74.983  24.580  0.00  0.00    +0.035 A 
ATOM      2  C   LIG    1      -39.269  73.583  24.595  0.00  0.00    +0.046 A 
ATOM      3  C   LIG    1      -40.254  72.766  24.023  0.00  0.00    +0.033 A 
ATOM      4  C   LIG    1      -41.344  73.380  23.397  0.00  0.00    +0.023 A 
ATOM      5  C   LIG    1      -41.454  74.769  23.363  0.00  0.00    +0.004 A 
ATOM      6  C   LIG    1      -40.475  75.566  23.957  0.00  0.00    +0.023 A 
ENDROOT
BRANCH   1   8
ATOM      7  C   LIG    1      -38.363  76.208  26.518  0.00  0.00    +0.248 C 
ATOM      8  N   LIG    1      -38.347  75.712  25.225  0.00  0.00    -0.281 N 
ATOM      9  H   LIG    1      -37.526  75.850  24.656  0.00  0.00    +0.155 HD
ATOM     10  O   LIG    1      -39.308  76.127  27.296  0.00  0.00    -0.270 OA
BRANCH   7  15
ATOM     11  C   LIG    1      -36.149  78.969  27.898  0.00  0.00    +0.049 A 
ATOM     12  C   LIG    1      -34.904  78.331  27.983  0.00  0.00    +0.038 A 
ATOM     13  C   LIG    1      -34.755  76.987  27.595  0.00  0.00    +0.057 A 
ATOM     14  C   LIG    1      -35.868  76.281  27.106  0.00  0.00    +0.025 A 
ATOM     15  C   LIG    1      -37.120  76.898  27.010  0.00  0.00    +0.040 A 
ATOM     16  C   LIG    1      -37.246  78.244  27.413  0.00  0.00    +0.039 A 
BRANCH  11  21
ATOM     17  C   LIG    1      -35.706  83.941  28.402  0.00  0.00    +0.067 C 
ATOM     18  C   LIG    1      -36.091  82.519  28.524  0.00  0.00    +0.056 A 
ATOM     19  N   LIG    1      -37.020  82.124  29.446  0.00  0.00    -0.241 NA
ATOM     20  C   LIG    1      -37.128  80.822  29.296  0.00  0.00    +0.204 A 
ATOM     21  N   LIG    1      -36.301  80.329  28.307  0.00  0.00    -0.306 N 
ATOM     22  C   LIG    1      -35.644  81.433  27.804  0.00  0.00    +0.115 A 
ENDBRANCH  11  21
BRANCH  13  23
ATOM     23  C   LIG    1      -33.407  76.312  27.720  0.00  0.00    +0.418 C 
ATOM     24  F   LIG    1      -33.439  75.015  27.311  0.00  0.00    -0.166 F 
ATOM     25  F   LIG    1      -32.950  76.298  29.001  0.00  0.00    -0.166 F 
ATOM     26  F   LIG    1      -32.435  76.915  26.980  0.00  0.00    -0.166 F 
ENDBRANCH  13  23
ENDBRANCH   7  15
ENDBRANCH   1   8
BRANCH   3  27
ATOM     27  N   LIG    1      -40.191  71.362  24.071  0.00  0.00    -0.314 N 
ATOM     28  H   LIG    1      -40.613  70.963  24.904  0.00  0.00    +0.152 HD
BRANCH  27  29
ATOM     29  C   LIG    1      -39.376  70.449  23.372  0.00  0.00    +0.033 A 
ATOM     30  C   LIG    1      -38.100  70.170  23.879  0.00  0.00    +0.047 A 
ATOM     31  C   LIG    1      -37.322  69.243  23.215  0.00  0.00    +0.043 A 
ATOM     32  N   LIG    1      -36.047  68.830  23.579  0.00  0.00    -0.281 N 
ATOM     33  H   LIG    1      -35.524  69.157  24.377  0.00  0.00    +0.155 HD
ATOM     34  C   LIG    1      -35.553  67.874  22.709  0.00  0.00    +0.249 C 
ATOM     35  O   LIG    1      -34.471  67.332  22.792  0.00  0.00    -0.270 OA
ATOM     36  C   LIG    1      -36.639  67.673  21.673  0.00  0.00    +0.048 C 
ATOM     37  C   LIG    1      -36.678  66.862  20.601  0.00  0.00    +0.039 C 
ATOM     38  C   LIG    1      -37.743  68.576  22.062  0.00  0.00    +0.008 A 
ATOM     39  C   LIG    1      -38.997  68.839  21.544  0.00  0.00    +0.012 A 
ATOM     40  C   LIG    1      -39.810  69.772  22.211  0.00  0.00    +0.024 A 
BRANCH  37  41
ATOM     41  C   LIG    1      -35.698  65.940  20.134  0.00  0.00    +0.040 A 
ATOM     42  N   LIG    1      -34.410  66.305  19.819  0.00  0.00    -0.361 N 
ATOM     43  H   LIG    1      -34.034  67.246  19.874  0.00  0.00    +0.165 HD
ATOM     44  C   LIG    1      -33.687  65.215  19.411  0.00  0.00    +0.083 A 
ATOM     45  C   LIG    1      -34.515  64.122  19.453  0.00  0.00    +0.019 A 
ATOM     46  C   LIG    1      -35.776  64.575  19.905  0.00  0.00    +0.027 A 
ENDBRANCH  37  41
ENDBRANCH  27  29
ENDBRANCH   3  27
TORSDOF 7
ENDMDL
MODEL 5
REMARK VINA RESULT:      -7.5      4.576      9.480
REMARK  Name = pdb/CHEMBL2037209.pdb
REMARK                            x       y       z     vdW  Elec       q    Type
REMARK                         _______ _______ _______ _____ _____    ______ ____
ROOT
ATOM      1  C   LIG    1      -36.930  68.598  24.448  0.00  0.00    +0.035 A 
ATOM      2  C   LIG    1      -38.013  69.427  24.780  0.00  0.00    +0.046 A 
ATOM      3  C   LIG    1      -38.928  69.863  23.812  0.00  0.00    +0.033 A 
ATOM      4  C   LIG    1      -38.760  69.423  22.495  0.00  0.00    +0.023 A 
ATOM      5  C   LIG    1      -37.697  68.589  22.154  0.00  0.00    +0.004 A 
ATOM      6  C   LIG    1      -36.782  68.183  23.127  0.00  0.00    +0.023 A 
ENDROOT
BRANCH   1   8
ATOM      7  C   LIG    1      -34.765  68.753  25.702  0.00  0.00    +0.248 C 
ATOM      8  N   LIG    1      -36.040  68.253  25.494  0.00  0.00    -0.281 N 
ATOM      9  H   LIG    1      -36.417  67.581  26.144  0.00  0.00    +0.155 HD
ATOM     10  O   LIG    1      -34.189  69.551  24.970  0.00  0.00    -0.270 OA
BRANCH   7  15
ATOM     11  C   LIG    1      -33.380  66.362  28.309  0.00  0.00    +0.049 A 
ATOM     12  C   LIG    1      -32.682  67.229  29.160  0.00  0.00    +0.038 A 
ATOM     13  C   LIG    1      -32.644  68.612  28.907  0.00  0.00    +0.057 A 
ATOM     14  C   LIG    1      -33.324  69.129  27.790  0.00  0.00    +0.025 A 
ATOM     15  C   LIG    1      -34.029  68.283  26.927  0.00  0.00    +0.040 A 
ATOM     16  C   LIG    1      -34.046  66.899  27.198  0.00  0.00    +0.039 A 
BRANCH  11  21
ATOM     17  C   LIG    1      -33.788  61.381  27.863  0.00  0.00    +0.067 C 
ATOM     18  C   LIG    1      -33.593  62.763  28.352  0.00  0.00    +0.056 A 
ATOM     19  N   LIG    1      -33.312  63.006  29.667  0.00  0.00    -0.241 NA
ATOM     20  C   LIG    1      -33.202  64.313  29.764  0.00  0.00    +0.204 A 
ATOM     21  N   LIG    1      -33.404  64.956  28.560  0.00  0.00    -0.306 N 
ATOM     22  C   LIG    1      -33.643  63.948  27.649  0.00  0.00    +0.115 A 
ENDBRANCH  11  21
BRANCH  13  23
ATOM     23  C   LIG    1      -31.863  69.525  29.825  0.00  0.00    +0.418 C 
ATOM     24  F   LIG    1      -30.987  68.843  30.609  0.00  0.00    -0.166 F 
ATOM     25  F   LIG    1      -32.668  70.223  30.671  0.00  0.00    -0.166 F 
ATOM     26  F   LIG    1      -31.124  70.453  29.155  0.00  0.00    -0.166 F 
ENDBRANCH  13  23
ENDBRANCH   7  15
ENDBRANCH   1   8
BRANCH   3  27
ATOM     27  N   LIG    1      -39.991  70.732  24.116  0.00  0.00    -0.314 N 
ATOM     28  H   LIG    1      -40.901  70.281  24.107  0.00  0.00    +0.152 HD
BRANCH  27  29
ATOM     29  C   LIG    1      -40.069  72.139  24.094  0.00  0.00    +0.033 A 
ATOM     30  C   LIG    1      -39.003  72.875  24.626  0.00  0.00    +0.047 A 
ATOM     31  C   LIG    1      -39.065  74.253  24.564  0.00  0.00    +0.043 A 
ATOM     32  N   LIG    1      -38.100  75.140  25.022  0.00  0.00    -0.281 N 
ATOM     33  H   LIG    1      -37.227  74.889  25.463  0.00  0.00    +0.155 HD
ATOM     34  C   LIG    1      -38.464  76.454  24.790  0.00  0.00    +0.249 C 
ATOM     35  O   LIG    1      -37.807  77.432  25.077  0.00  0.00    -0.270 OA
ATOM     36  C   LIG    1      -39.819  76.384  24.118  0.00  0.00    +0.048 C 
ATOM     37  C   LIG    1      -40.625  77.368  23.683  0.00  0.00    +0.039 C 
ATOM     38  C   LIG    1      -40.140  74.946  24.000  0.00  0.00    +0.008 A 
ATOM     39  C   LIG    1      -41.202  74.238  23.472  0.00  0.00    +0.012 A 
ATOM     40  C   LIG    1      -41.155  72.834  23.516  0.00  0.00    +0.024 A 
BRANCH  37  41
ATOM     41  C   LIG    1      -40.426  78.778  23.721  0.00  0.00    +0.040 A 
ATOM     42  N   LIG    1      -39.375  79.407  23.095  0.00  0.00    -0.361 N 
ATOM     43  H   LIG    1      -38.644  78.945  22.563  0.00  0.00    +0.165 HD
ATOM     44  C   LIG    1      -39.442  80.761  23.286  0.00  0.00    +0.083 A 
ATOM     45  C   LIG    1      -40.549  81.023  24.053  0.00  0.00    +0.019 A 
ATOM     46  C   LIG    1      -41.166  79.781  24.327  0.00  0.00    +0.027 A 
ENDBRANCH  37  41
ENDBRANCH  27  29
ENDBRANCH   3  27
TORSDOF 7
ENDMDL
MODEL 6
REMARK VINA RESULT:      -7.5     16.352     19.144
REMARK  Name = pdb/CHEMBL2037209.pdb
REMARK                            x       y       z     vdW  Elec       q    Type
REMARK                         _______ _______ _______ _____ _____    ______ ____
ROOT
ATOM      1  C   LIG    1      -32.433  79.099  10.906  0.00  0.00    +0.035 A 
ATOM      2  C   LIG    1      -31.043  78.899  10.927  0.00  0.00    +0.046 A 
ATOM      3  C   LIG    1      -30.483  77.621  10.790  0.00  0.00    +0.033 A 
ATOM      4  C   LIG    1      -31.344  76.536  10.596  0.00  0.00    +0.023 A 
ATOM      5  C   LIG    1      -32.724  76.722  10.559  0.00  0.00    +0.004 A 
ATOM      6  C   LIG    1      -33.266  77.998  10.720  0.00  0.00    +0.023 A 
ENDROOT
BRANCH   1   8
ATOM      7  C   LIG    1      -33.350  81.295  10.123  0.00  0.00    +0.248 C 
ATOM      8  N   LIG    1      -32.894  80.423  11.098  0.00  0.00    -0.281 N 
ATOM      9  H   LIG    1      -32.890  80.721  12.061  0.00  0.00    +0.155 HD
ATOM     10  O   LIG    1      -33.379  81.060   8.919  0.00  0.00    -0.270 OA
BRANCH   7  15
ATOM     11  C   LIG    1      -35.810  83.972  11.223  0.00  0.00    +0.049 A 
ATOM     12  C   LIG    1      -34.967  85.068  11.454  0.00  0.00    +0.038 A 
ATOM     13  C   LIG    1      -33.578  84.963  11.257  0.00  0.00    +0.057 A 
ATOM     14  C   LIG    1      -33.033  83.745  10.814  0.00  0.00    +0.025 A 
ATOM     15  C   LIG    1      -33.855  82.637  10.577  0.00  0.00    +0.040 A 
ATOM     16  C   LIG    1      -35.244  82.766  10.788  0.00  0.00    +0.039 A 
BRANCH  11  21
ATOM     17  C   LIG    1      -40.345  84.861  13.177  0.00  0.00    +0.067 C 
ATOM     18  C   LIG    1      -39.210  84.468  12.314  0.00  0.00    +0.056 A 
ATOM     19  N   LIG    1      -39.427  83.882  11.098  0.00  0.00    -0.241 NA
ATOM     20  C   LIG    1      -38.231  83.663  10.599  0.00  0.00    +0.204 A 
ATOM     21  N   LIG    1      -37.218  84.077  11.439  0.00  0.00    -0.306 N 
ATOM     22  C   LIG    1      -37.858  84.609  12.540  0.00  0.00    +0.115 A 
ENDBRANCH  11  21
BRANCH  13  23
ATOM     23  C   LIG    1      -32.686  86.151  11.536  0.00  0.00    +0.418 C 
ATOM     24  F   LIG    1      -32.426  86.877  10.415  0.00  0.00    -0.166 F 
ATOM     25  F   LIG    1      -31.477  85.785  12.042  0.00  0.00    -0.166 F 
ATOM     26  F   LIG    1      -33.222  87.025  12.433  0.00  0.00    -0.166 F 
ENDBRANCH  13  23
ENDBRANCH   7  15
ENDBRANCH   1   8
BRANCH   3  27
ATOM     27  N   LIG    1      -29.096  77.395  10.857  0.00  0.00    -0.314 N 
ATOM     28  H   LIG    1      -28.814  76.487  10.499  0.00  0.00    +0.152 HD
BRANCH  27  29
ATOM     29  C   LIG    1      -28.092  78.027  11.617  0.00  0.00    +0.033 A 
ATOM     30  C   LIG    1      -27.364  79.068  11.027  0.00  0.00    +0.047 A 
ATOM     31  C   LIG    1      -26.411  79.713  11.790  0.00  0.00    +0.043 A 
ATOM     32  N   LIG    1      -25.610  80.772  11.381  0.00  0.00    -0.281 N 
ATOM     33  H   LIG    1      -25.622  81.205  10.470  0.00  0.00    +0.155 HD
ATOM     34  C   LIG    1      -24.773  81.198  12.395  0.00  0.00    +0.249 C 
ATOM     35  O   LIG    1      -23.977  82.110  12.320  0.00  0.00    -0.270 OA
ATOM     36  C   LIG    1      -25.074  80.296  13.574  0.00  0.00    +0.048 C 
ATOM     37  C   LIG    1      -24.544  80.274  14.809  0.00  0.00    +0.039 C 
ATOM     38  C   LIG    1      -26.136  79.374  13.117  0.00  0.00    +0.008 A 
ATOM     39  C   LIG    1      -26.841  78.348  13.717  0.00  0.00    +0.012 A 
ATOM     40  C   LIG    1      -27.823  77.685  12.961  0.00  0.00    +0.024 A 
BRANCH  37  41
ATOM     41  C   LIG    1      -23.540  81.111  15.373  0.00  0.00    +0.040 A 
ATOM     42  N   LIG    1      -23.535  82.480  15.234  0.00  0.00    -0.361 N 
ATOM     43  H   LIG    1      -24.221  83.023  14.720  0.00  0.00    +0.165 HD
ATOM     44  C   LIG    1      -22.463  83.026  15.889  0.00  0.00    +0.083 A 
ATOM     45  C   LIG    1      -21.752  82.000  16.460  0.00  0.00    +0.019 A 
ATOM     46  C   LIG    1      -22.425  80.800  16.136  0.00  0.00    +0.027 A 
ENDBRANCH  37  41
ENDBRANCH  27  29
ENDBRANCH   3  27
TORSDOF 7
ENDMDL
MODEL 7
REMARK VINA RESULT:      -7.4      4.021     11.840
REMARK  Name = pdb/CHEMBL2037209.pdb
REMARK                            x       y       z     vdW  Elec       q    Type
REMARK                         _______ _______ _______ _____ _____    ______ ____
ROOT
ATOM      1  C   LIG    1      -35.404  71.480  27.364  0.00  0.00    +0.035 A 
ATOM      2  C   LIG    1      -34.666  72.586  27.813  0.00  0.00    +0.046 A 
ATOM      3  C   LIG    1      -33.570  72.437  28.675  0.00  0.00    +0.033 A 
ATOM      4  C   LIG    1      -33.200  71.144  29.059  0.00  0.00    +0.023 A 
ATOM      5  C   LIG    1      -33.915  70.036  28.609  0.00  0.00    +0.004 A 
ATOM      6  C   LIG    1      -35.017  70.205  27.770  0.00  0.00    +0.023 A 
ENDROOT
BRANCH   1   8
ATOM      7  C   LIG    1      -36.775  71.203  25.285  0.00  0.00    +0.248 C 
ATOM      8  N   LIG    1      -36.519  71.746  26.533  0.00  0.00    -0.281 N 
ATOM      9  H   LIG    1      -37.181  72.393  26.933  0.00  0.00    +0.155 HD
ATOM     10  O   LIG    1      -36.037  70.429  24.683  0.00  0.00    -0.270 OA
BRANCH   7  15
ATOM     11  C   LIG    1      -39.932  70.854  23.202  0.00  0.00    +0.049 A 
ATOM     12  C   LIG    1      -40.503  72.128  23.317  0.00  0.00    +0.038 A 
ATOM     13  C   LIG    1      -39.874  73.133  24.075  0.00  0.00    +0.057 A 
ATOM     14  C   LIG    1      -38.654  72.854  24.717  0.00  0.00    +0.025 A 
ATOM     15  C   LIG    1      -38.066  71.588  24.614  0.00  0.00    +0.040 A 
ATOM     16  C   LIG    1      -38.719  70.596  23.854  0.00  0.00    +0.039 A 
BRANCH  11  21
ATOM     17  C   LIG    1      -41.561  66.451  21.429  0.00  0.00    +0.067 C 
ATOM     18  C   LIG    1      -41.285  67.884  21.669  0.00  0.00    +0.056 A 
ATOM     19  N   LIG    1      -41.808  68.843  20.846  0.00  0.00    -0.241 NA
ATOM     20  C   LIG    1      -41.378  69.988  21.328  0.00  0.00    +0.204 A 
ATOM     21  N   LIG    1      -40.581  69.831  22.444  0.00  0.00    -0.306 N 
ATOM     22  C   LIG    1      -40.536  68.470  22.666  0.00  0.00    +0.115 A 
ENDBRANCH  11  21
BRANCH  13  23
ATOM     23  C   LIG    1      -40.521  74.494  24.207  0.00  0.00    +0.418 C 
ATOM     24  F   LIG    1      -41.251  74.827  23.109  0.00  0.00    -0.166 F 
ATOM     25  F   LIG    1      -39.608  75.488  24.374  0.00  0.00    -0.166 F 
ATOM     26  F   LIG    1      -41.373  74.582  25.266  0.00  0.00    -0.166 F 
ENDBRANCH  13  23
ENDBRANCH   7  15
ENDBRANCH   1   8
BRANCH   3  27
ATOM     27  N   LIG    1      -32.848  73.536  29.174  0.00  0.00    -0.314 N 
ATOM     28  H   LIG    1      -32.088  73.275  29.795  0.00  0.00    +0.152 HD
BRANCH  27  29
ATOM     29  C   LIG    1      -33.180  74.904  29.248  0.00  0.00    +0.033 A 
ATOM     30  C   LIG    1      -32.980  75.700  28.114  0.00  0.00    +0.047 A 
ATOM     31  C   LIG    1      -33.347  77.031  28.178  0.00  0.00    +0.043 A 
ATOM     32  N   LIG    1      -33.238  77.962  27.153  0.00  0.00    -0.281 N 
ATOM     33  H   LIG    1      -32.875  77.785  26.229  0.00  0.00    +0.155 HD
ATOM     34  C   LIG    1      -33.713  79.202  27.541  0.00  0.00    +0.249 C 
ATOM     35  O   LIG    1      -33.749  80.195  26.845  0.00  0.00    -0.270 OA
ATOM     36  C   LIG    1      -34.160  79.032  28.977  0.00  0.00    +0.048 C 
ATOM     37  C   LIG    1      -34.695  79.922  29.831  0.00  0.00    +0.039 C 
ATOM     38  C   LIG    1      -33.902  77.617  29.318  0.00  0.00    +0.008 A 
ATOM     39  C   LIG    1      -34.105  76.848  30.448  0.00  0.00    +0.012 A 
ATOM     40  C   LIG    1      -33.748  75.489  30.401  0.00  0.00    +0.024 A 
BRANCH  37  41
ATOM     41  C   LIG    1      -35.008  81.295  29.622  0.00  0.00    +0.040 A 
ATOM     42  N   LIG    1      -35.939  81.724  28.705  0.00  0.00    -0.361 N 
ATOM     43  H   LIG    1      -36.480  81.125  28.089  0.00  0.00    +0.165 HD
ATOM     44  C   LIG    1      -36.044  83.090  28.728  0.00  0.00    +0.083 A 
ATOM     45  C   LIG    1      -35.165  83.563  29.670  0.00  0.00    +0.019 A 
ATOM     46  C   LIG    1      -34.514  82.439  30.229  0.00  0.00    +0.027 A 
ENDBRANCH  37  41
ENDBRANCH  27  29
ENDBRANCH   3  27
TORSDOF 7
ENDMDL
MODEL 8
REMARK VINA RESULT:      -7.4      4.856      9.253
REMARK  Name = pdb/CHEMBL2037209.pdb
REMARK                            x       y       z     vdW  Elec       q    Type
REMARK                         _______ _______ _______ _____ _____    ______ ____
ROOT
ATOM      1  C   LIG    1      -36.391  68.536  24.646  0.00  0.00    +0.035 A 
ATOM      2  C   LIG    1      -37.509  69.357  24.860  0.00  0.00    +0.046 A 
ATOM      3  C   LIG    1      -38.393  69.679  23.821  0.00  0.00    +0.033 A 
ATOM      4  C   LIG    1      -38.156  69.133  22.555  0.00  0.00    +0.023 A 
ATOM      5  C   LIG    1      -37.057  68.305  22.333  0.00  0.00    +0.004 A 
ATOM      6  C   LIG    1      -36.175  68.013  23.374  0.00  0.00    +0.023 A 
ENDROOT
BRANCH   1   8
ATOM      7  C   LIG    1      -34.363  68.981  26.051  0.00  0.00    +0.248 C 
ATOM      8  N   LIG    1      -35.539  68.310  25.754  0.00  0.00    -0.281 N 
ATOM      9  H   LIG    1      -35.863  67.588  26.378  0.00  0.00    +0.155 HD
ATOM     10  O   LIG    1      -33.853  69.857  25.360  0.00  0.00    -0.270 OA
BRANCH   7  15
ATOM     11  C   LIG    1      -32.254  69.382  29.185  0.00  0.00    +0.049 A 
ATOM     12  C   LIG    1      -32.303  68.095  29.738  0.00  0.00    +0.038 A 
ATOM     13  C   LIG    1      -33.024  67.066  29.105  0.00  0.00    +0.057 A 
ATOM     14  C   LIG    1      -33.694  67.332  27.898  0.00  0.00    +0.025 A 
ATOM     15  C   LIG    1      -33.658  68.609  27.327  0.00  0.00    +0.040 A 
ATOM     16  C   LIG    1      -32.935  69.626  27.984  0.00  0.00    +0.039 A 
BRANCH  11  21
ATOM     17  C   LIG    1      -30.773  72.980  32.352  0.00  0.00    +0.067 C 
ATOM     18  C   LIG    1      -30.897  72.017  31.237  0.00  0.00    +0.056 A 
ATOM     19  N   LIG    1      -29.968  71.985  30.235  0.00  0.00    -0.241 NA
ATOM     20  C   LIG    1      -30.367  71.035  29.419  0.00  0.00    +0.204 A 
ATOM     21  N   LIG    1      -31.535  70.429  29.837  0.00  0.00    -0.306 N 
ATOM     22  C   LIG    1      -31.864  71.059  31.019  0.00  0.00    +0.115 A 
ENDBRANCH  11  21
BRANCH  13  23
ATOM     23  C   LIG    1      -33.084  65.692  29.734  0.00  0.00    +0.418 C 
ATOM     24  F   LIG    1      -33.893  65.658  30.827  0.00  0.00    -0.166 F 
ATOM     25  F   LIG    1      -31.864  65.257  30.149  0.00  0.00    -0.166 F 
ATOM     26  F   LIG    1      -33.557  64.735  28.887  0.00  0.00    -0.166 F 
ENDBRANCH  13  23
ENDBRANCH   7  15
ENDBRANCH   1   8
BRANCH   3  27
ATOM     27  N   LIG    1      -39.491  70.539  24.003  0.00  0.00    -0.314 N 
ATOM     28  H   LIG    1      -40.382  70.119  23.756  0.00  0.00    +0.152 HD
BRANCH  27  29
ATOM     29  C   LIG    1      -39.556  71.941  24.133  0.00  0.00    +0.033 A 
ATOM     30  C   LIG    1      -38.458  72.610  24.688  0.00  0.00    +0.047 A 
ATOM     31  C   LIG    1      -38.508  73.988  24.774  0.00  0.00    +0.043 A 
ATOM     32  N   LIG    1      -37.513  74.816  25.276  0.00  0.00    -0.281 N 
ATOM     33  H   LIG    1      -36.623  74.516  25.644  0.00  0.00    +0.155 HD
ATOM     34  C   LIG    1      -37.874  76.149  25.201  0.00  0.00    +0.249 C 
ATOM     35  O   LIG    1      -37.194  77.088  25.557  0.00  0.00    -0.270 OA
ATOM     36  C   LIG    1      -39.261  76.158  24.592  0.00  0.00    +0.048 C 
ATOM     37  C   LIG    1      -40.076  77.187  24.303  0.00  0.00    +0.039 C 
ATOM     38  C   LIG    1      -39.601  74.742  24.339  0.00  0.00    +0.008 A 
ATOM     39  C   LIG    1      -40.696  74.100  23.792  0.00  0.00    +0.012 A 
ATOM     40  C   LIG    1      -40.660  72.698  23.686  0.00  0.00    +0.024 A 
BRANCH  37  41
ATOM     41  C   LIG    1      -39.861  78.583  24.479  0.00  0.00    +0.040 A 
ATOM     42  N   LIG    1      -39.657  79.165  25.708  0.00  0.00    -0.361 N 
ATOM     43  H   LIG    1      -39.649  78.677  26.598  0.00  0.00    +0.165 HD
ATOM     44  C   LIG    1      -39.464  80.515  25.576  0.00  0.00    +0.083 A 
ATOM     45  C   LIG    1      -39.549  80.823  24.241  0.00  0.00    +0.019 A 
ATOM     46  C   LIG    1      -39.799  79.613  23.553  0.00  0.00    +0.027 A 
ENDBRANCH  37  41
ENDBRANCH  27  29
ENDBRANCH   3  27
TORSDOF 7
ENDMDL
MODEL 9
REMARK VINA RESULT:      -7.4     16.959     20.942
REMARK  Name = pdb/CHEMBL2037209.pdb
REMARK                            x       y       z     vdW  Elec       q    Type
REMARK                         _______ _______ _______ _____ _____    ______ ____
ROOT
ATOM      1  C   LIG    1      -34.028  92.304  26.003  0.00  0.00    +0.035 A 
ATOM      2  C   LIG    1      -33.733  90.988  26.391  0.00  0.00    +0.046 A 
ATOM      3  C   LIG    1      -34.325  90.404  27.519  0.00  0.00    +0.033 A 
ATOM      4  C   LIG    1      -35.255  91.156  28.244  0.00  0.00    +0.023 A 
ATOM      5  C   LIG    1      -35.568  92.459  27.862  0.00  0.00    +0.004 A 
ATOM      6  C   LIG    1      -34.952  93.032  26.749  0.00  0.00    +0.023 A 
ENDROOT
BRANCH   1   8
ATOM      7  C   LIG    1      -32.209  93.609  24.878  0.00  0.00    +0.248 C 
ATOM      8  N   LIG    1      -33.341  92.811  24.874  0.00  0.00    -0.281 N 
ATOM      9  H   LIG    1      -33.739  92.527  23.993  0.00  0.00    +0.155 HD
ATOM     10  O   LIG    1      -31.648  94.040  25.880  0.00  0.00    -0.270 OA
BRANCH   7  15
ATOM     11  C   LIG    1      -31.698  93.645  21.113  0.00  0.00    +0.049 A 
ATOM     12  C   LIG    1      -30.643  94.557  20.969  0.00  0.00    +0.038 A 
ATOM     13  C   LIG    1      -30.072  95.182  22.093  0.00  0.00    +0.057 A 
ATOM     14  C   LIG    1      -30.562  94.879  23.376  0.00  0.00    +0.025 A 
ATOM     15  C   LIG    1      -31.614  93.971  23.544  0.00  0.00    +0.040 A 
ATOM     16  C   LIG    1      -32.174  93.363  22.401  0.00  0.00    +0.039 A 
BRANCH  11  21
ATOM     17  C   LIG    1      -34.585  90.922  18.044  0.00  0.00    +0.067 C 
ATOM     18  C   LIG    1      -33.561  91.815  18.629  0.00  0.00    +0.056 A 
ATOM     19  N   LIG    1      -32.617  92.407  17.838  0.00  0.00    -0.241 NA
ATOM     20  C   LIG    1      -31.874  93.120  18.656  0.00  0.00    +0.204 A 
ATOM     21  N   LIG    1      -32.285  93.024  19.970  0.00  0.00    -0.306 N 
ATOM     22  C   LIG    1      -33.384  92.189  19.943  0.00  0.00    +0.115 A 
ENDBRANCH  11  21
BRANCH  13  23
ATOM     23  C   LIG    1      -28.952  96.181  21.912  0.00  0.00    +0.418 C 
ATOM     24  F   LIG    1      -27.725  95.595  21.949  0.00  0.00    -0.166 F 
ATOM     25  F   LIG    1      -28.947  97.137  22.879  0.00  0.00    -0.166 F 
ATOM     26  F   LIG    1      -29.015  96.846  20.725  0.00  0.00    -0.166 F 
ENDBRANCH  13  23
ENDBRANCH   7  15
ENDBRANCH   1   8
BRANCH   3  27
ATOM     27  N   LIG    1      -34.005  89.104  27.952  0.00  0.00    -0.314 N 
ATOM     28  H   LIG    1      -34.625  88.388  27.584  0.00  0.00    +0.152 HD
BRANCH  27  29
ATOM     29  C   LIG    1      -33.225  88.657  29.037  0.00  0.00    +0.033 A 
ATOM     30  C   LIG    1      -33.244  87.293  29.355  0.00  0.00    +0.047 A 
ATOM     31  C   LIG    1      -32.445  86.853  30.392  0.00  0.00    +0.043 A 
ATOM     32  N   LIG    1      -32.323  85.542  30.835  0.00  0.00    -0.281 N 
ATOM     33  H   LIG    1      -32.805  84.742  30.455  0.00  0.00    +0.155 HD
ATOM     34  C   LIG    1      -31.424  85.441  31.881  0.00  0.00    +0.249 C 
ATOM     35  O   LIG    1      -31.117  84.416  32.453  0.00  0.00    -0.270 OA
ATOM     36  C   LIG    1      -30.935  86.851  32.132  0.00  0.00    +0.048 C 
ATOM     37  C   LIG    1      -30.057  87.319  33.036  0.00  0.00    +0.039 C 
ATOM     38  C   LIG    1      -31.625  87.702  31.139  0.00  0.00    +0.008 A 
ATOM     39  C   LIG    1      -31.594  89.051  30.843  0.00  0.00    +0.012 A 
ATOM     40  C   LIG    1      -32.393  89.519  29.785  0.00  0.00    +0.024 A 
BRANCH  37  41
ATOM     41  C   LIG    1      -29.318  86.608  34.024  0.00  0.00    +0.040 A 
ATOM     42  N   LIG    1      -29.872  85.637  34.826  0.00  0.00    -0.361 N 
ATOM     43  H   LIG    1      -30.841  85.339  34.807  0.00  0.00    +0.165 HD
ATOM     44  C   LIG    1      -28.928  85.115  35.671  0.00  0.00    +0.083 A 
ATOM     45  C   LIG    1      -27.741  85.757  35.424  0.00  0.00    +0.019 A 
ATOM     46  C   LIG    1      -27.984  86.694  34.392  0.00  0.00    +0.027 A 
ENDBRANCH  37  41
ENDBRANCH  27  29
ENDBRANCH   3  27
TORSDOF 7
ENDMDL
