MODEL 1
REMARK VINA RESULT:      -6.4      0.000      0.000
REMARK  Name = pdb/CHEMBL3596892.pdb
REMARK                            x       y       z     vdW  Elec       q    Type
REMARK                         _______ _______ _______ _____ _____    ______ ____
ROOT
ATOM      1  C   LIG    1      -32.065  86.472  31.228  0.00  0.00    +0.002 A 
ATOM      2  C   LIG    1      -32.471  85.366  31.994  0.00  0.00    +0.012 A 
ATOM      3  C   LIG    1      -33.156  84.299  31.402  0.00  0.00    +0.024 A 
ATOM      4  C   LIG    1      -33.438  84.312  30.033  0.00  0.00    +0.035 A 
ATOM      5  C   LIG    1      -33.043  85.398  29.263  0.00  0.00    +0.024 A 
ATOM      6  C   LIG    1      -32.341  86.445  29.850  0.00  0.00    +0.012 A 
ENDROOT
BRANCH   1   9
ATOM      7  C   LIG    1      -29.742  88.518  33.158  0.00  0.00    +0.093 A 
ATOM      8  N   LIG    1      -30.346  87.417  32.638  0.00  0.00    -0.244 NA
ATOM      9  C   LIG    1      -31.411  87.643  31.829  0.00  0.00    +0.090 A 
ATOM     10  C   LIG    1      -31.860  88.944  31.587  0.00  0.00    +0.139 A 
ATOM     11  N   LIG    1      -31.272  90.051  32.095  0.00  0.00    -0.259 NA
ATOM     12  C   LIG    1      -30.202  89.803  32.881  0.00  0.00    +0.139 A 
BRANCH   7  17
ATOM     13  C   LIG    1      -26.171  89.204  36.525  0.00  0.00    +0.172 C 
ATOM     14  N   LIG    1      -27.027  88.631  35.516  0.00  0.00    -0.274 N 
ATOM     15  N   LIG    1      -26.788  87.382  35.076  0.00  0.00    -0.179 NA
ATOM     16  C   LIG    1      -27.748  87.185  34.169  0.00  0.00    +0.144 A 
ATOM     17  C   LIG    1      -28.600  88.301  34.021  0.00  0.00    +0.039 A 
ATOM     18  C   LIG    1      -28.101  89.221  34.922  0.00  0.00    +0.118 A 
ENDBRANCH   7  17
ENDBRANCH   1   9
BRANCH   4  19
ATOM     19  N   LIG    1      -34.125  83.221  29.488  0.00  0.00    -0.269 N 
ATOM     20  H   LIG    1      -33.539  82.525  29.040  0.00  0.00    +0.156 HD
ATOM     21  C   LIG    1      -35.474  83.061  29.337  0.00  0.00    +0.310 C 
ATOM     22  N   LIG    1      -35.894  81.891  28.765  0.00  0.00    -0.238 N 
ATOM     23  H   LIG    1      -36.896  81.814  28.660  0.00  0.00    +0.159 HD
ATOM     24  O   LIG    1      -36.346  83.879  29.668  0.00  0.00    -0.252 OA
BRANCH  22  25
ATOM     25  C   LIG    1      -35.109  80.863  28.315  0.00  0.00    +0.225 A 
ATOM     26  C   LIG    1      -34.858  79.632  28.855  0.00  0.00    +0.093 A 
ATOM     27  C   LIG    1      -34.062  78.977  27.881  0.00  0.00    +0.091 A 
ATOM     28  N   LIG    1      -33.794  79.796  26.857  0.00  0.00    -0.081 NA
ATOM     29  O   LIG    1      -34.448  80.970  27.136  0.00  0.00    -0.339 OA
BRANCH  27  30
ATOM     30  C   LIG    1      -33.515  77.570  27.901  0.00  0.00    +0.008 C 
ATOM     31  C   LIG    1      -32.208  77.485  27.085  0.00  0.00    +0.017 C 
ATOM     32  C   LIG    1      -34.553  76.612  27.291  0.00  0.00    +0.017 C 
ATOM     33  C   LIG    1      -33.204  77.114  29.343  0.00  0.00    +0.017 C 
ENDBRANCH  27  30
ENDBRANCH  22  25
ENDBRANCH   4  19
TORSDOF 5
ENDMDL
MODEL 2
REMARK VINA RESULT:      -6.3      3.787      6.873
REMARK  Name = pdb/CHEMBL3596892.pdb
REMARK                            x       y       z     vdW  Elec       q    Type
REMARK                         _______ _______ _______ _____ _____    ______ ____
ROOT
ATOM      1  C   LIG    1      -35.270  81.185  30.085  0.00  0.00    +0.002 A 
ATOM      2  C   LIG    1      -36.035  80.090  30.520  0.00  0.00    +0.012 A 
ATOM      3  C   LIG    1      -36.311  79.022  29.659  0.00  0.00    +0.024 A 
ATOM      4  C   LIG    1      -35.818  79.024  28.351  0.00  0.00    +0.035 A 
ATOM      5  C   LIG    1      -35.060  80.100  27.906  0.00  0.00    +0.024 A 
ATOM      6  C   LIG    1      -34.768  81.147  28.772  0.00  0.00    +0.012 A 
ENDROOT
BRANCH   1   9
ATOM      7  C   LIG    1      -33.861  84.308  31.341  0.00  0.00    +0.093 A 
ATOM      8  N   LIG    1      -34.049  83.218  30.551  0.00  0.00    -0.244 NA
ATOM      9  C   LIG    1      -35.024  82.357  30.937  0.00  0.00    +0.090 A 
ATOM     10  C   LIG    1      -35.756  82.587  32.105  0.00  0.00    +0.139 A 
ATOM     11  N   LIG    1      -35.584  83.665  32.902  0.00  0.00    -0.259 NA
ATOM     12  C   LIG    1      -34.623  84.518  32.488  0.00  0.00    +0.139 A 
BRANCH   7  17
ATOM     13  C   LIG    1      -31.522  88.455  29.967  0.00  0.00    +0.172 C 
ATOM     14  N   LIG    1      -31.817  87.093  30.336  0.00  0.00    -0.274 N 
ATOM     15  N   LIG    1      -30.826  86.183  30.358  0.00  0.00    -0.179 NA
ATOM     16  C   LIG    1      -31.444  85.060  30.731  0.00  0.00    +0.144 A 
ATOM     17  C   LIG    1      -32.829  85.243  30.945  0.00  0.00    +0.039 A 
ATOM     18  C   LIG    1      -33.031  86.583  30.685  0.00  0.00    +0.118 A 
ENDBRANCH   7  17
ENDBRANCH   1   9
BRANCH   4  19
ATOM     19  N   LIG    1      -36.120  77.933  27.528  0.00  0.00    -0.269 N 
ATOM     20  H   LIG    1      -37.043  77.954  27.109  0.00  0.00    +0.156 HD
ATOM     21  C   LIG    1      -35.405  76.781  27.355  0.00  0.00    +0.310 C 
ATOM     22  N   LIG    1      -35.925  75.859  26.488  0.00  0.00    -0.238 N 
ATOM     23  H   LIG    1      -35.375  75.017  26.395  0.00  0.00    +0.159 HD
ATOM     24  O   LIG    1      -34.334  76.497  27.913  0.00  0.00    -0.252 OA
BRANCH  22  25
ATOM     25  C   LIG    1      -37.093  75.958  25.780  0.00  0.00    +0.225 A 
ATOM     26  C   LIG    1      -38.110  75.059  25.610  0.00  0.00    +0.093 A 
ATOM     27  C   LIG    1      -39.088  75.772  24.870  0.00  0.00    +0.091 A 
ATOM     28  N   LIG    1      -38.647  76.997  24.556  0.00  0.00    -0.081 NA
ATOM     29  O   LIG    1      -37.403  77.103  25.124  0.00  0.00    -0.339 OA
BRANCH  27  30
ATOM     30  C   LIG    1      -40.454  75.310  24.422  0.00  0.00    +0.008 C 
ATOM     31  C   LIG    1      -41.445  75.321  25.604  0.00  0.00    +0.017 C 
ATOM     32  C   LIG    1      -40.349  73.879  23.866  0.00  0.00    +0.017 C 
ATOM     33  C   LIG    1      -41.020  76.231  23.320  0.00  0.00    +0.017 C 
ENDBRANCH  27  30
ENDBRANCH  22  25
ENDBRANCH   4  19
TORSDOF 5
ENDMDL
MODEL 3
REMARK VINA RESULT:      -6.2     18.522     20.468
REMARK  Name = pdb/CHEMBL3596892.pdb
REMARK                            x       y       z     vdW  Elec       q    Type
REMARK                         _______ _______ _______ _____ _____    ______ ____
ROOT
ATOM      1  C   LIG    1      -22.851  87.700  12.905  0.00  0.00    +0.002 A 
ATOM      2  C   LIG    1      -22.285  87.751  14.190  0.00  0.00    +0.012 A 
ATOM      3  C   LIG    1      -22.074  86.579  14.926  0.00  0.00    +0.024 A 
ATOM      4  C   LIG    1      -22.414  85.335  14.387  0.00  0.00    +0.035 A 
ATOM      5  C   LIG    1      -22.975  85.269  13.118  0.00  0.00    +0.024 A 
ATOM      6  C   LIG    1      -23.160  86.433  12.381  0.00  0.00    +0.012 A 
ENDROOT
BRANCH   1   9
ATOM      7  C   LIG    1      -24.651  90.569  11.550  0.00  0.00    +0.093 A 
ATOM      8  N   LIG    1      -24.404  89.430  12.250  0.00  0.00    -0.244 NA
ATOM      9  C   LIG    1      -23.155  88.914  12.136  0.00  0.00    +0.090 A 
ATOM     10  C   LIG    1      -22.205  89.523  11.311  0.00  0.00    +0.139 A 
ATOM     11  N   LIG    1      -22.432  90.656  10.609  0.00  0.00    -0.259 NA
ATOM     12  C   LIG    1      -23.675  91.162  10.754  0.00  0.00    +0.139 A 
BRANCH   7  17
ATOM     13  C   LIG    1      -28.487  93.353  12.999  0.00  0.00    +0.172 C 
ATOM     14  N   LIG    1      -27.660  92.385  12.322  0.00  0.00    -0.274 N 
ATOM     15  N   LIG    1      -28.203  91.595  11.378  0.00  0.00    -0.179 NA
ATOM     16  C   LIG    1      -27.176  90.842  10.976  0.00  0.00    +0.144 A 
ATOM     17  C   LIG    1      -25.977  91.140  11.661  0.00  0.00    +0.039 A 
ATOM     18  C   LIG    1      -26.332  92.157  12.525  0.00  0.00    +0.118 A 
ENDBRANCH   7  17
ENDBRANCH   1   9
BRANCH   4  19
ATOM     19  N   LIG    1      -22.183  84.192  15.161  0.00  0.00    -0.269 N 
ATOM     20  H   LIG    1      -21.823  83.394  14.651  0.00  0.00    +0.156 HD
ATOM     21  C   LIG    1      -22.534  83.968  16.463  0.00  0.00    +0.310 C 
ATOM     22  N   LIG    1      -22.193  82.753  16.991  0.00  0.00    -0.238 N 
ATOM     23  H   LIG    1      -22.479  82.620  17.951  0.00  0.00    +0.159 HD
ATOM     24  O   LIG    1      -23.135  84.762  17.203  0.00  0.00    -0.252 OA
BRANCH  22  25
ATOM     25  C   LIG    1      -21.545  81.728  16.354  0.00  0.00    +0.225 A 
ATOM     26  C   LIG    1      -21.869  80.404  16.241  0.00  0.00    +0.093 A 
ATOM     27  C   LIG    1      -20.877  79.873  15.376  0.00  0.00    +0.091 A 
ATOM     28  N   LIG    1      -19.976  80.809  15.055  0.00  0.00    -0.081 NA
ATOM     29  O   LIG    1      -20.398  81.961  15.671  0.00  0.00    -0.339 OA
BRANCH  27  30
ATOM     30  C   LIG    1      -20.742  78.465  14.849  0.00  0.00    +0.008 C 
ATOM     31  C   LIG    1      -19.665  77.692  15.639  0.00  0.00    +0.017 C 
ATOM     32  C   LIG    1      -20.339  78.514  13.365  0.00  0.00    +0.017 C 
ATOM     33  C   LIG    1      -22.072  77.692  14.978  0.00  0.00    +0.017 C 
ENDBRANCH  27  30
ENDBRANCH  22  25
ENDBRANCH   4  19
TORSDOF 5
ENDMDL
MODEL 4
REMARK VINA RESULT:      -6.2     18.217     21.663
REMARK  Name = pdb/CHEMBL3596892.pdb
REMARK                            x       y       z     vdW  Elec       q    Type
REMARK                         _______ _______ _______ _____ _____    ______ ____
ROOT
ATOM      1  C   LIG    1      -20.062  78.920  15.566  0.00  0.00    +0.002 A 
ATOM      2  C   LIG    1      -19.240  80.048  15.725  0.00  0.00    +0.012 A 
ATOM      3  C   LIG    1      -19.782  81.338  15.691  0.00  0.00    +0.024 A 
ATOM      4  C   LIG    1      -21.156  81.524  15.509  0.00  0.00    +0.035 A 
ATOM      5  C   LIG    1      -21.980  80.417  15.350  0.00  0.00    +0.024 A 
ATOM      6  C   LIG    1      -21.441  79.137  15.409  0.00  0.00    +0.012 A 
ENDROOT
BRANCH   1   9
ATOM      7  C   LIG    1      -18.602  75.747  16.623  0.00  0.00    +0.093 A 
ATOM      8  N   LIG    1      -19.075  77.020  16.687  0.00  0.00    -0.244 NA
ATOM      9  C   LIG    1      -19.517  77.555  15.521  0.00  0.00    +0.090 A 
ATOM     10  C   LIG    1      -19.449  76.826  14.331  0.00  0.00    +0.139 A 
ATOM     11  N   LIG    1      -18.984  75.560  14.249  0.00  0.00    -0.259 NA
ATOM     12  C   LIG    1      -18.567  75.041  15.423  0.00  0.00    +0.139 A 
BRANCH   7  17
ATOM     13  C   LIG    1      -17.732  72.517  20.279  0.00  0.00    +0.172 C 
ATOM     14  N   LIG    1      -17.759  73.705  19.462  0.00  0.00    -0.274 N 
ATOM     15  N   LIG    1      -17.141  74.819  19.894  0.00  0.00    -0.179 NA
ATOM     16  C   LIG    1      -17.365  75.697  18.913  0.00  0.00    +0.144 A 
ATOM     17  C   LIG    1      -18.129  75.154  17.856  0.00  0.00    +0.039 A 
ATOM     18  C   LIG    1      -18.359  73.851  18.249  0.00  0.00    +0.118 A 
ENDBRANCH   7  17
ENDBRANCH   1   9
BRANCH   4  19
ATOM     19  N   LIG    1      -21.650  82.832  15.483  0.00  0.00    -0.269 N 
ATOM     20  H   LIG    1      -21.356  83.387  14.686  0.00  0.00    +0.156 HD
ATOM     21  C   LIG    1      -22.330  83.499  16.463  0.00  0.00    +0.310 C 
ATOM     22  N   LIG    1      -22.702  84.786  16.187  0.00  0.00    -0.238 N 
ATOM     23  H   LIG    1      -23.192  85.249  16.939  0.00  0.00    +0.159 HD
ATOM     24  O   LIG    1      -22.635  83.044  17.577  0.00  0.00    -0.252 OA
BRANCH  22  25
ATOM     25  C   LIG    1      -22.459  85.487  15.036  0.00  0.00    +0.225 A 
ATOM     26  C   LIG    1      -21.832  86.687  14.841  0.00  0.00    +0.093 A 
ATOM     27  C   LIG    1      -21.790  86.835  13.430  0.00  0.00    +0.091 A 
ATOM     28  N   LIG    1      -22.421  85.820  12.827  0.00  0.00    -0.081 NA
ATOM     29  O   LIG    1      -22.836  84.987  13.834  0.00  0.00    -0.339 OA
BRANCH  27  30
ATOM     30  C   LIG    1      -21.175  87.949  12.617  0.00  0.00    +0.008 C 
ATOM     31  C   LIG    1      -22.020  88.229  11.356  0.00  0.00    +0.017 C 
ATOM     32  C   LIG    1      -19.754  87.542  12.190  0.00  0.00    +0.017 C 
ATOM     33  C   LIG    1      -21.094  89.256  13.434  0.00  0.00    +0.017 C 
ENDBRANCH  27  30
ENDBRANCH  22  25
ENDBRANCH   4  19
TORSDOF 5
ENDMDL
MODEL 5
REMARK VINA RESULT:      -6.1     10.408     15.800
REMARK  Name = pdb/CHEMBL3596892.pdb
REMARK                            x       y       z     vdW  Elec       q    Type
REMARK                         _______ _______ _______ _____ _____    ______ ____
ROOT
ATOM      1  C   LIG    1      -39.536  73.634  24.341  0.00  0.00    +0.002 A 
ATOM      2  C   LIG    1      -40.147  72.444  23.909  0.00  0.00    +0.012 A 
ATOM      3  C   LIG    1      -39.467  71.223  23.984  0.00  0.00    +0.024 A 
ATOM      4  C   LIG    1      -38.170  71.167  24.503  0.00  0.00    +0.035 A 
ATOM      5  C   LIG    1      -37.554  72.335  24.933  0.00  0.00    +0.024 A 
ATOM      6  C   LIG    1      -38.242  73.542  24.879  0.00  0.00    +0.012 A 
ENDROOT
BRANCH   1   9
ATOM      7  C   LIG    1      -40.232  77.199  24.685  0.00  0.00    +0.093 A 
ATOM      8  N   LIG    1      -39.623  75.995  24.848  0.00  0.00    -0.244 NA
ATOM      9  C   LIG    1      -40.191  74.943  24.207  0.00  0.00    +0.090 A 
ATOM     10  C   LIG    1      -41.356  75.112  23.453  0.00  0.00    +0.139 A 
ATOM     11  N   LIG    1      -41.975  76.301  23.279  0.00  0.00    -0.259 NA
ATOM     12  C   LIG    1      -41.381  77.337  23.910  0.00  0.00    +0.139 A 
BRANCH   7  17
ATOM     13  C   LIG    1      -37.453  79.980  27.703  0.00  0.00    +0.172 C 
ATOM     14  N   LIG    1      -38.399  79.545  26.705  0.00  0.00    -0.274 N 
ATOM     15  N   LIG    1      -39.124  80.461  26.037  0.00  0.00    -0.179 NA
ATOM     16  C   LIG    1      -39.876  79.722  25.217  0.00  0.00    +0.144 A 
ATOM     17  C   LIG    1      -39.640  78.337  25.357  0.00  0.00    +0.039 A 
ATOM     18  C   LIG    1      -38.665  78.263  26.332  0.00  0.00    +0.118 A 
ENDBRANCH   7  17
ENDBRANCH   1   9
BRANCH   4  19
ATOM     19  N   LIG    1      -37.533  69.922  24.558  0.00  0.00    -0.269 N 
ATOM     20  H   LIG    1      -37.083  69.632  23.698  0.00  0.00    +0.156 HD
ATOM     21  C   LIG    1      -37.583  68.991  25.557  0.00  0.00    +0.310 C 
ATOM     22  N   LIG    1      -36.866  67.842  25.363  0.00  0.00    -0.238 N 
ATOM     23  H   LIG    1      -36.937  67.173  26.117  0.00  0.00    +0.159 HD
ATOM     24  O   LIG    1      -38.221  69.092  26.617  0.00  0.00    -0.252 OA
BRANCH  22  25
ATOM     25  C   LIG    1      -36.108  67.516  24.269  0.00  0.00    +0.225 A 
ATOM     26  C   LIG    1      -36.176  66.440  23.428  0.00  0.00    +0.093 A 
ATOM     27  C   LIG    1      -35.209  66.715  22.428  0.00  0.00    +0.091 A 
ATOM     28  N   LIG    1      -34.553  67.850  22.700  0.00  0.00    -0.081 NA
ATOM     29  O   LIG    1      -35.118  68.342  23.849  0.00  0.00    -0.339 OA
BRANCH  27  30
ATOM     30  C   LIG    1      -34.861  65.904  21.203  0.00  0.00    +0.008 C 
ATOM     31  C   LIG    1      -35.888  66.155  20.078  0.00  0.00    +0.017 C 
ATOM     32  C   LIG    1      -34.867  64.408  21.565  0.00  0.00    +0.017 C 
ATOM     33  C   LIG    1      -33.465  66.280  20.663  0.00  0.00    +0.017 C 
ENDBRANCH  27  30
ENDBRANCH  22  25
ENDBRANCH   4  19
TORSDOF 5
ENDMDL
MODEL 6
REMARK VINA RESULT:      -6.1     12.947     16.626
REMARK  Name = pdb/CHEMBL3596892.pdb
REMARK                            x       y       z     vdW  Elec       q    Type
REMARK                         _______ _______ _______ _____ _____    ______ ____
ROOT
ATOM      1  C   LIG    1      -40.168  73.319  23.960  0.00  0.00    +0.002 A 
ATOM      2  C   LIG    1      -38.892  73.491  24.522  0.00  0.00    +0.012 A 
ATOM      3  C   LIG    1      -38.052  72.393  24.741  0.00  0.00    +0.024 A 
ATOM      4  C   LIG    1      -38.467  71.105  24.391  0.00  0.00    +0.035 A 
ATOM      5  C   LIG    1      -39.726  70.919  23.834  0.00  0.00    +0.024 A 
ATOM      6  C   LIG    1      -40.547  72.016  23.595  0.00  0.00    +0.012 A 
ENDROOT
BRANCH   1   9
ATOM      7  C   LIG    1      -41.480  76.711  23.673  0.00  0.00    +0.093 A 
ATOM      8  N   LIG    1      -40.599  75.695  23.866  0.00  0.00    -0.244 NA
ATOM      9  C   LIG    1      -41.104  74.438  23.786  0.00  0.00    +0.090 A 
ATOM     10  C   LIG    1      -42.466  74.231  23.549  0.00  0.00    +0.139 A 
ATOM     11  N   LIG    1      -43.357  75.229  23.354  0.00  0.00    -0.259 NA
ATOM     12  C   LIG    1      -42.828  76.470  23.419  0.00  0.00    +0.139 A 
BRANCH   7  17
ATOM     13  C   LIG    1      -41.185  81.637  24.137  0.00  0.00    +0.172 C 
ATOM     14  N   LIG    1      -40.859  80.243  23.957  0.00  0.00    -0.274 N 
ATOM     15  N   LIG    1      -39.578  79.885  23.751  0.00  0.00    -0.179 NA
ATOM     16  C   LIG    1      -39.645  78.557  23.628  0.00  0.00    +0.144 A 
ATOM     17  C   LIG    1      -40.962  78.061  23.750  0.00  0.00    +0.039 A 
ATOM     18  C   LIG    1      -41.723  79.191  23.971  0.00  0.00    +0.118 A 
ENDBRANCH   7  17
ENDBRANCH   1   9
BRANCH   4  19
ATOM     19  N   LIG    1      -37.592  70.040  24.628  0.00  0.00    -0.269 N 
ATOM     20  H   LIG    1      -37.300  69.531  23.801  0.00  0.00    +0.156 HD
ATOM     21  C   LIG    1      -37.219  69.503  25.828  0.00  0.00    +0.310 C 
ATOM     22  N   LIG    1      -36.344  68.452  25.787  0.00  0.00    -0.238 N 
ATOM     23  H   LIG    1      -36.101  68.075  26.692  0.00  0.00    +0.159 HD
ATOM     24  O   LIG    1      -37.605  69.879  26.946  0.00  0.00    -0.252 OA
BRANCH  22  25
ATOM     25  C   LIG    1      -35.806  67.869  24.671  0.00  0.00    +0.225 A 
ATOM     26  C   LIG    1      -36.017  66.634  24.122  0.00  0.00    +0.093 A 
ATOM     27  C   LIG    1      -35.264  66.651  22.919  0.00  0.00    +0.091 A 
ATOM     28  N   LIG    1      -34.588  67.800  22.798  0.00  0.00    -0.081 NA
ATOM     29  O   LIG    1      -34.930  68.552  23.894  0.00  0.00    -0.339 OA
BRANCH  27  30
ATOM     30  C   LIG    1      -35.146  65.576  21.865  0.00  0.00    +0.008 C 
ATOM     31  C   LIG    1      -35.047  64.183  22.522  0.00  0.00    +0.017 C 
ATOM     32  C   LIG    1      -33.883  65.827  21.023  0.00  0.00    +0.017 C 
ATOM     33  C   LIG    1      -36.375  65.574  20.932  0.00  0.00    +0.017 C 
ENDBRANCH  27  30
ENDBRANCH  22  25
ENDBRANCH   4  19
TORSDOF 5
ENDMDL
MODEL 7
REMARK VINA RESULT:      -6.1     10.184     18.181
REMARK  Name = pdb/CHEMBL3596892.pdb
REMARK                            x       y       z     vdW  Elec       q    Type
REMARK                         _______ _______ _______ _____ _____    ______ ____
ROOT
ATOM      1  C   LIG    1      -39.943  71.854  23.771  0.00  0.00    +0.002 A 
ATOM      2  C   LIG    1      -38.683  71.523  24.297  0.00  0.00    +0.012 A 
ATOM      3  C   LIG    1      -37.877  72.500  24.892  0.00  0.00    +0.024 A 
ATOM      4  C   LIG    1      -38.319  73.823  24.981  0.00  0.00    +0.035 A 
ATOM      5  C   LIG    1      -39.563  74.165  24.465  0.00  0.00    +0.024 A 
ATOM      6  C   LIG    1      -40.371  73.186  23.897  0.00  0.00    +0.012 A 
ENDROOT
BRANCH   1   9
ATOM      7  C   LIG    1      -40.952  68.983  21.758  0.00  0.00    +0.093 A 
ATOM      8  N   LIG    1      -40.152  69.896  22.369  0.00  0.00    -0.244 NA
ATOM      9  C   LIG    1      -40.783  70.870  23.073  0.00  0.00    +0.090 A 
ATOM     10  C   LIG    1      -42.179  70.924  23.123  0.00  0.00    +0.139 A 
ATOM     11  N   LIG    1      -42.989  70.024  22.522  0.00  0.00    -0.259 NA
ATOM     12  C   LIG    1      -42.340  69.054  21.844  0.00  0.00    +0.139 A 
BRANCH   7  17
ATOM     13  C   LIG    1      -37.621  66.439  19.112  0.00  0.00    +0.172 C 
ATOM     14  N   LIG    1      -38.809  66.828  19.833  0.00  0.00    -0.274 N 
ATOM     15  N   LIG    1      -39.839  65.967  19.923  0.00  0.00    -0.179 NA
ATOM     16  C   LIG    1      -40.743  66.642  20.638  0.00  0.00    +0.144 A 
ATOM     17  C   LIG    1      -40.300  67.932  21.004  0.00  0.00    +0.039 A 
ATOM     18  C   LIG    1      -39.031  68.012  20.466  0.00  0.00    +0.118 A 
ENDBRANCH   7  17
ENDBRANCH   1   9
BRANCH   4  19
ATOM     19  N   LIG    1      -37.478  74.764  25.585  0.00  0.00    -0.269 N 
ATOM     20  H   LIG    1      -37.032  74.454  26.441  0.00  0.00    +0.156 HD
ATOM     21  C   LIG    1      -37.314  76.082  25.263  0.00  0.00    +0.310 C 
ATOM     22  N   LIG    1      -36.424  76.794  26.019  0.00  0.00    -0.238 N 
ATOM     23  H   LIG    1      -36.339  77.766  25.759  0.00  0.00    +0.159 HD
ATOM     24  O   LIG    1      -37.902  76.688  24.354  0.00  0.00    -0.252 OA
BRANCH  22  25
ATOM     25  C   LIG    1      -35.683  76.333  27.074  0.00  0.00    +0.225 A 
ATOM     26  C   LIG    1      -34.335  76.382  27.304  0.00  0.00    +0.093 A 
ATOM     27  C   LIG    1      -34.182  75.843  28.608  0.00  0.00    +0.091 A 
ATOM     28  N   LIG    1      -35.360  75.430  29.093  0.00  0.00    -0.081 NA
ATOM     29  O   LIG    1      -36.288  75.737  28.131  0.00  0.00    -0.339 OA
BRANCH  27  30
ATOM     30  C   LIG    1      -32.919  75.683  29.420  0.00  0.00    +0.008 C 
ATOM     31  C   LIG    1      -32.442  74.216  29.395  0.00  0.00    +0.017 C 
ATOM     32  C   LIG    1      -33.194  76.099  30.875  0.00  0.00    +0.017 C 
ATOM     33  C   LIG    1      -31.781  76.562  28.858  0.00  0.00    +0.017 C 
ENDBRANCH  27  30
ENDBRANCH  22  25
ENDBRANCH   4  19
TORSDOF 5
ENDMDL
MODEL 8
REMARK VINA RESULT:      -6.1     10.299     17.892
REMARK  Name = pdb/CHEMBL3596892.pdb
REMARK                            x       y       z     vdW  Elec       q    Type
REMARK                         _______ _______ _______ _____ _____    ______ ____
ROOT
ATOM      1  C   LIG    1      -40.107  72.219  23.828  0.00  0.00    +0.002 A 
ATOM      2  C   LIG    1      -38.879  71.772  24.345  0.00  0.00    +0.012 A 
ATOM      3  C   LIG    1      -37.995  72.665  24.961  0.00  0.00    +0.024 A 
ATOM      4  C   LIG    1      -38.325  74.018  25.082  0.00  0.00    +0.035 A 
ATOM      5  C   LIG    1      -39.536  74.474  24.575  0.00  0.00    +0.024 A 
ATOM      6  C   LIG    1      -40.422  73.579  23.986  0.00  0.00    +0.012 A 
ENDROOT
BRANCH   1   9
ATOM      7  C   LIG    1      -42.712  71.040  21.562  0.00  0.00    +0.093 A 
ATOM      8  N   LIG    1      -41.893  71.892  22.235  0.00  0.00    -0.244 NA
ATOM      9  C   LIG    1      -41.025  71.325  23.109  0.00  0.00    +0.090 A 
ATOM     10  C   LIG    1      -41.018  69.942  23.311  0.00  0.00    +0.139 A 
ATOM     11  N   LIG    1      -41.824  69.080  22.651  0.00  0.00    -0.259 NA
ATOM     12  C   LIG    1      -42.665  69.664  21.772  0.00  0.00    +0.139 A 
BRANCH   7  17
ATOM     13  C   LIG    1      -45.773  74.212  19.297  0.00  0.00    +0.172 C 
ATOM     14  N   LIG    1      -44.995  73.046  19.637  0.00  0.00    -0.274 N 
ATOM     15  N   LIG    1      -45.065  71.954  18.855  0.00  0.00    -0.179 NA
ATOM     16  C   LIG    1      -44.240  71.091  19.455  0.00  0.00    +0.144 A 
ATOM     17  C   LIG    1      -43.644  71.624  20.620  0.00  0.00    +0.039 A 
ATOM     18  C   LIG    1      -44.156  72.903  20.700  0.00  0.00    +0.118 A 
ENDBRANCH   7  17
ENDBRANCH   1   9
BRANCH   4  19
ATOM     19  N   LIG    1      -37.409  74.870  25.706  0.00  0.00    -0.269 N 
ATOM     20  H   LIG    1      -37.003  74.511  26.563  0.00  0.00    +0.156 HD
ATOM     21  C   LIG    1      -37.122  76.172  25.402  0.00  0.00    +0.310 C 
ATOM     22  N   LIG    1      -36.179  76.791  26.177  0.00  0.00    -0.238 N 
ATOM     23  H   LIG    1      -36.003  77.754  25.930  0.00  0.00    +0.159 HD
ATOM     24  O   LIG    1      -37.641  76.840  24.494  0.00  0.00    -0.252 OA
BRANCH  22  25
ATOM     25  C   LIG    1      -35.495  76.252  27.234  0.00  0.00    +0.225 A 
ATOM     26  C   LIG    1      -34.152  76.094  27.438  0.00  0.00    +0.093 A 
ATOM     27  C   LIG    1      -34.056  75.580  28.756  0.00  0.00    +0.091 A 
ATOM     28  N   LIG    1      -35.272  75.374  29.277  0.00  0.00    -0.081 NA
ATOM     29  O   LIG    1      -36.163  75.794  28.321  0.00  0.00    -0.339 OA
BRANCH  27  30
ATOM     30  C   LIG    1      -32.815  75.248  29.551  0.00  0.00    +0.008 C 
ATOM     31  C   LIG    1      -33.083  75.403  31.062  0.00  0.00    +0.017 C 
ATOM     32  C   LIG    1      -31.678  76.199  29.140  0.00  0.00    +0.017 C 
ATOM     33  C   LIG    1      -32.364  73.793  29.296  0.00  0.00    +0.017 C 
ENDBRANCH  27  30
ENDBRANCH  22  25
ENDBRANCH   4  19
TORSDOF 5
ENDMDL
MODEL 9
REMARK VINA RESULT:      -6.0     17.656     19.836
REMARK  Name = pdb/CHEMBL3596892.pdb
REMARK                            x       y       z     vdW  Elec       q    Type
REMARK                         _______ _______ _______ _____ _____    ______ ____
ROOT
ATOM      1  C   LIG    1      -22.584  81.354  15.297  0.00  0.00    +0.002 A 
ATOM      2  C   LIG    1      -21.414  80.599  15.107  0.00  0.00    +0.012 A 
ATOM      3  C   LIG    1      -21.464  79.201  15.068  0.00  0.00    +0.024 A 
ATOM      4  C   LIG    1      -22.684  78.532  15.206  0.00  0.00    +0.035 A 
ATOM      5  C   LIG    1      -23.849  79.266  15.395  0.00  0.00    +0.024 A 
ATOM      6  C   LIG    1      -23.798  80.655  15.408  0.00  0.00    +0.012 A 
ENDROOT
BRANCH   1   9
ATOM      7  C   LIG    1      -22.282  84.886  14.434  0.00  0.00    +0.093 A 
ATOM      8  N   LIG    1      -22.271  83.534  14.301  0.00  0.00    -0.244 NA
ATOM      9  C   LIG    1      -22.559  82.819  15.418  0.00  0.00    +0.090 A 
ATOM     10  C   LIG    1      -22.816  83.463  16.631  0.00  0.00    +0.139 A 
ATOM     11  N   LIG    1      -22.833  84.807  16.781  0.00  0.00    -0.259 NA
ATOM     12  C   LIG    1      -22.563  85.498  15.653  0.00  0.00    +0.139 A 
BRANCH   7  17
ATOM     13  C   LIG    1      -20.658  88.493  11.448  0.00  0.00    +0.172 C 
ATOM     14  N   LIG    1      -21.255  87.281  11.954  0.00  0.00    -0.274 N 
ATOM     15  N   LIG    1      -21.828  86.418  11.095  0.00  0.00    -0.179 NA
ATOM     16  C   LIG    1      -22.267  85.438  11.890  0.00  0.00    +0.144 A 
ATOM     17  C   LIG    1      -21.983  85.670  13.254  0.00  0.00    +0.039 A 
ATOM     18  C   LIG    1      -21.316  86.878  13.253  0.00  0.00    +0.118 A 
ENDBRANCH   7  17
ENDBRANCH   1   9
BRANCH   4  19
ATOM     19  N   LIG    1      -22.682  77.134  15.159  0.00  0.00    -0.269 N 
ATOM     20  H   LIG    1      -22.491  76.675  16.043  0.00  0.00    +0.156 HD
ATOM     21  C   LIG    1      -22.739  76.325  14.059  0.00  0.00    +0.310 C 
ATOM     22  N   LIG    1      -22.718  74.976  14.286  0.00  0.00    -0.238 N 
ATOM     23  H   LIG    1      -22.749  74.411  13.449  0.00  0.00    +0.159 HD
ATOM     24  O   LIG    1      -22.804  76.703  12.879  0.00  0.00    -0.252 OA
BRANCH  22  25
ATOM     25  C   LIG    1      -22.635  74.344  15.498  0.00  0.00    +0.225 A 
ATOM     26  C   LIG    1      -21.733  73.428  15.965  0.00  0.00    +0.093 A 
ATOM     27  C   LIG    1      -22.103  73.230  17.320  0.00  0.00    +0.091 A 
ATOM     28  N   LIG    1      -23.205  73.930  17.619  0.00  0.00    -0.081 NA
ATOM     29  O   LIG    1      -23.530  74.619  16.478  0.00  0.00    -0.339 OA
BRANCH  27  30
ATOM     30  C   LIG    1      -21.442  72.359  18.361  0.00  0.00    +0.008 C 
ATOM     31  C   LIG    1      -21.269  70.920  17.832  0.00  0.00    +0.017 C 
ATOM     32  C   LIG    1      -22.314  72.328  19.628  0.00  0.00    +0.017 C 
ATOM     33  C   LIG    1      -20.044  72.899  18.732  0.00  0.00    +0.017 C 
ENDBRANCH  27  30
ENDBRANCH  22  25
ENDBRANCH   4  19
TORSDOF 5
ENDMDL
