MODEL 1
REMARK VINA RESULT:      -6.2      0.000      0.000
REMARK  Name = pdb/CHEMBL3678283.pdb
REMARK                            x       y       z     vdW  Elec       q    Type
REMARK                         _______ _______ _______ _____ _____    ______ ____
ROOT
ATOM      1  C   LIG    1      -29.828  72.323  31.115  0.00  0.00    +0.162 A 
ATOM      2  C   LIG    1      -31.204  72.573  31.402  0.00  0.00    +0.162 A 
ATOM      3  C   LIG    1      -31.515  73.337  32.535  0.00  0.00    +0.050 A 
ATOM      4  C   LIG    1      -30.595  74.093  33.189  0.00  0.00    +0.009 A 
ATOM      5  C   LIG    1      -29.263  73.993  32.847  0.00  0.00    -0.024 A 
ATOM      6  C   LIG    1      -28.886  73.081  31.838  0.00  0.00    +0.054 A 
ENDROOT
BRANCH   1   8
ATOM      7  C   LIG    1      -29.494  69.960  30.523  0.00  0.00    +0.277 C 
ATOM      8  O   LIG    1      -29.411  71.377  30.192  0.00  0.00    -0.491 OA
ENDBRANCH   1   8
BRANCH   2   9
ATOM      9  O   LIG    1      -32.284  72.154  30.633  0.00  0.00    -0.484 OA
BRANCH   9  10
ATOM     10  C   LIG    1      -32.316  72.696  29.259  0.00  0.00    +0.264 C 
BRANCH  10  11
ATOM     11  C   LIG    1      -32.564  74.202  29.235  0.00  0.00    -0.010 A 
ATOM     12  C   LIG    1      -33.854  74.735  29.084  0.00  0.00    +0.010 A 
ATOM     13  C   LIG    1      -34.064  76.107  28.921  0.00  0.00    +0.046 A 
ATOM     14  C   LIG    1      -32.975  76.977  28.871  0.00  0.00    +0.130 A 
ATOM     15  C   LIG    1      -31.706  76.466  29.134  0.00  0.00    +0.046 A 
ATOM     16  C   LIG    1      -31.501  75.100  29.351  0.00  0.00    +0.010 A 
BRANCH  14  17
ATOM     17  O   LIG    1      -33.248  78.277  28.569  0.00  0.00    -0.406 OA
BRANCH  17  18
ATOM     18  C   LIG    1      -32.794  78.808  27.325  0.00  0.00    +0.575 C 
ATOM     19  F   LIG    1      -32.879  77.862  26.364  0.00  0.00    -0.133 F 
ATOM     20  F   LIG    1      -31.495  79.162  27.455  0.00  0.00    -0.133 F 
ATOM     21  F   LIG    1      -33.458  79.909  26.906  0.00  0.00    -0.133 F 
ENDBRANCH  17  18
ENDBRANCH  14  17
ENDBRANCH  10  11
ENDBRANCH   9  10
ENDBRANCH   2   9
BRANCH   5  22
ATOM     22  C   LIG    1      -28.264  74.871  33.542  0.00  0.00    +0.161 C 
BRANCH  22  23
ATOM     23  N   LIG    1      -27.615  75.813  32.632  0.00  0.00    -0.293 N 
ATOM     24  C   LIG    1      -26.297  75.742  32.280  0.00  0.00    +0.162 A 
ATOM     25  N   LIG    1      -25.405  74.806  32.624  0.00  0.00    -0.235 NA
ATOM     26  C   LIG    1      -24.181  75.042  32.077  0.00  0.00    +0.121 A 
ATOM     27  C   LIG    1      -23.826  76.110  31.239  0.00  0.00    +0.005 A 
ATOM     28  C   LIG    1      -24.814  77.057  30.940  0.00  0.00    +0.041 A 
ATOM     29  C   LIG    1      -26.093  76.867  31.485  0.00  0.00    +0.110 A 
ATOM     30  N   LIG    1      -27.224  77.614  31.371  0.00  0.00    -0.213 NA
ATOM     31  C   LIG    1      -28.156  76.951  32.085  0.00  0.00    +0.195 A 
BRANCH  27  32
ATOM     32  C   LIG    1      -22.485  76.238  30.688  0.00  0.00    +0.021 A 
ATOM     33  C   LIG    1      -21.317  75.866  31.321  0.00  0.00    +0.116 A 
ATOM     34  N   LIG    1      -20.298  76.151  30.459  0.00  0.00    -0.274 N 
ATOM     35  C   LIG    1      -18.890  75.951  30.702  0.00  0.00    +0.172 C 
ATOM     36  N   LIG    1      -20.712  76.682  29.298  0.00  0.00    -0.179 NA
ATOM     37  C   LIG    1      -22.040  76.731  29.435  0.00  0.00    +0.143 A 
ENDBRANCH  27  32
BRANCH  31  38
ATOM     38  N   LIG    1      -29.380  77.388  32.280  0.00  0.00    -0.329 N 
ATOM     39  H   LIG    1      -30.088  76.693  32.499  0.00  0.00    +0.145 HD
ATOM     40  H   LIG    1      -29.564  78.288  32.732  0.00  0.00    +0.145 HD
ENDBRANCH  31  38
ENDBRANCH  22  23
ENDBRANCH   5  22
TORSDOF 10
ENDMDL
MODEL 2
REMARK VINA RESULT:      -6.1     11.769     13.858
REMARK  Name = pdb/CHEMBL3678283.pdb
REMARK                            x       y       z     vdW  Elec       q    Type
REMARK                         _______ _______ _______ _____ _____    ______ ____
ROOT
ATOM      1  C   LIG    1      -35.960  68.684  23.781  0.00  0.00    +0.162 A 
ATOM      2  C   LIG    1      -37.179  69.422  23.680  0.00  0.00    +0.162 A 
ATOM      3  C   LIG    1      -37.953  69.265  22.522  0.00  0.00    +0.050 A 
ATOM      4  C   LIG    1      -37.769  68.243  21.645  0.00  0.00    +0.009 A 
ATOM      5  C   LIG    1      -36.680  67.410  21.789  0.00  0.00    -0.024 A 
ATOM      6  C   LIG    1      -35.765  67.660  22.833  0.00  0.00    +0.054 A 
ENDROOT
BRANCH   1   8
ATOM      7  C   LIG    1      -34.719  67.968  25.778  0.00  0.00    +0.277 C 
ATOM      8  O   LIG    1      -34.995  68.951  24.738  0.00  0.00    -0.491 OA
ENDBRANCH   1   8
BRANCH   2   9
ATOM      9  O   LIG    1      -37.698  70.269  24.652  0.00  0.00    -0.484 OA
BRANCH   9  10
ATOM     10  C   LIG    1      -39.056  70.780  24.369  0.00  0.00    +0.264 C 
BRANCH  10  11
ATOM     11  C   LIG    1      -39.113  72.306  24.372  0.00  0.00    -0.010 A 
ATOM     12  C   LIG    1      -38.074  73.082  24.911  0.00  0.00    +0.010 A 
ATOM     13  C   LIG    1      -38.189  74.469  25.042  0.00  0.00    +0.046 A 
ATOM     14  C   LIG    1      -39.370  75.108  24.664  0.00  0.00    +0.130 A 
ATOM     15  C   LIG    1      -40.355  74.357  24.025  0.00  0.00    +0.046 A 
ATOM     16  C   LIG    1      -40.217  72.978  23.846  0.00  0.00    +0.010 A 
BRANCH  14  17
ATOM     17  O   LIG    1      -39.461  76.437  24.950  0.00  0.00    -0.406 OA
BRANCH  17  18
ATOM     18  C   LIG    1      -39.075  77.386  23.957  0.00  0.00    +0.575 C 
ATOM     19  F   LIG    1      -37.814  77.130  23.543  0.00  0.00    -0.133 F 
ATOM     20  F   LIG    1      -39.095  78.620  24.509  0.00  0.00    -0.133 F 
ATOM     21  F   LIG    1      -39.884  77.430  22.875  0.00  0.00    -0.133 F 
ENDBRANCH  17  18
ENDBRANCH  14  17
ENDBRANCH  10  11
ENDBRANCH   9  10
ENDBRANCH   2   9
BRANCH   5  22
ATOM     22  C   LIG    1      -36.518  66.255  20.844  0.00  0.00    +0.161 C 
BRANCH  22  23
ATOM     23  N   LIG    1      -35.847  66.636  19.601  0.00  0.00    -0.293 N 
ATOM     24  C   LIG    1      -34.490  66.705  19.462  0.00  0.00    +0.162 A 
ATOM     25  N   LIG    1      -33.555  66.387  20.364  0.00  0.00    -0.235 NA
ATOM     26  C   LIG    1      -32.296  66.562  19.878  0.00  0.00    +0.121 A 
ATOM     27  C   LIG    1      -31.945  67.009  18.595  0.00  0.00    +0.005 A 
ATOM     28  C   LIG    1      -32.984  67.337  17.715  0.00  0.00    +0.041 A 
ATOM     29  C   LIG    1      -34.303  67.183  18.167  0.00  0.00    +0.110 A 
ATOM     30  N   LIG    1      -35.487  67.424  17.544  0.00  0.00    -0.213 NA
ATOM     31  C   LIG    1      -36.433  67.082  18.442  0.00  0.00    +0.195 A 
BRANCH  27  32
ATOM     32  C   LIG    1      -30.555  67.127  18.179  0.00  0.00    +0.021 A 
ATOM     33  C   LIG    1      -29.706  68.166  18.497  0.00  0.00    +0.116 A 
ATOM     34  N   LIG    1      -28.505  67.881  17.915  0.00  0.00    -0.274 N 
ATOM     35  C   LIG    1      -27.317  68.699  17.959  0.00  0.00    +0.172 C 
ATOM     36  N   LIG    1      -28.500  66.723  17.237  0.00  0.00    -0.179 NA
ATOM     37  C   LIG    1      -29.743  66.262  17.401  0.00  0.00    +0.143 A 
ENDBRANCH  27  32
BRANCH  31  38
ATOM     38  N   LIG    1      -37.723  67.233  18.243  0.00  0.00    -0.329 N 
ATOM     39  H   LIG    1      -38.106  68.163  18.392  0.00  0.00    +0.145 HD
ATOM     40  H   LIG    1      -38.218  66.721  17.508  0.00  0.00    +0.145 HD
ENDBRANCH  31  38
ENDBRANCH  22  23
ENDBRANCH   5  22
TORSDOF 10
ENDMDL
MODEL 3
REMARK VINA RESULT:      -6.1      7.277     10.603
REMARK  Name = pdb/CHEMBL3678283.pdb
REMARK                            x       y       z     vdW  Elec       q    Type
REMARK                         _______ _______ _______ _____ _____    ______ ____
ROOT
ATOM      1  C   LIG    1      -38.740  77.780  25.787  0.00  0.00    +0.162 A 
ATOM      2  C   LIG    1      -38.378  76.492  25.289  0.00  0.00    +0.162 A 
ATOM      3  C   LIG    1      -37.141  75.957  25.675  0.00  0.00    +0.050 A 
ATOM      4  C   LIG    1      -36.418  76.449  26.715  0.00  0.00    +0.009 A 
ATOM      5  C   LIG    1      -36.812  77.620  27.326  0.00  0.00    -0.024 A 
ATOM      6  C   LIG    1      -37.949  78.296  26.833  0.00  0.00    +0.054 A 
ENDROOT
BRANCH   1   8
ATOM      7  C   LIG    1      -39.725  79.034  23.915  0.00  0.00    +0.277 C 
ATOM      8  O   LIG    1      -39.797  78.517  25.276  0.00  0.00    -0.491 OA
ENDBRANCH   1   8
BRANCH   2   9
ATOM      9  O   LIG    1      -39.163  75.686  24.472  0.00  0.00    -0.484 OA
BRANCH   9  10
ATOM     10  C   LIG    1      -38.922  74.235  24.613  0.00  0.00    +0.264 C 
BRANCH  10  11
ATOM     11  C   LIG    1      -40.063  73.400  24.037  0.00  0.00    -0.010 A 
ATOM     12  C   LIG    1      -39.999  71.998  23.988  0.00  0.00    +0.010 A 
ATOM     13  C   LIG    1      -40.977  71.243  23.335  0.00  0.00    +0.046 A 
ATOM     14  C   LIG    1      -42.030  71.884  22.682  0.00  0.00    +0.130 A 
ATOM     15  C   LIG    1      -42.157  73.264  22.826  0.00  0.00    +0.046 A 
ATOM     16  C   LIG    1      -41.207  74.014  23.525  0.00  0.00    +0.010 A 
BRANCH  14  17
ATOM     17  O   LIG    1      -42.864  71.094  21.950  0.00  0.00    -0.406 OA
BRANCH  17  18
ATOM     18  C   LIG    1      -42.470  70.706  20.635  0.00  0.00    +0.575 C 
ATOM     19  F   LIG    1      -42.119  71.797  19.920  0.00  0.00    -0.133 F 
ATOM     20  F   LIG    1      -43.527  70.124  20.023  0.00  0.00    -0.133 F 
ATOM     21  F   LIG    1      -41.455  69.815  20.590  0.00  0.00    -0.133 F 
ENDBRANCH  17  18
ENDBRANCH  14  17
ENDBRANCH  10  11
ENDBRANCH   9  10
ENDBRANCH   2   9
BRANCH   5  22
ATOM     22  C   LIG    1      -36.034  78.124  28.506  0.00  0.00    +0.161 C 
BRANCH  22  23
ATOM     23  N   LIG    1      -34.594  77.914  28.360  0.00  0.00    -0.293 N 
ATOM     24  C   LIG    1      -33.923  76.857  28.905  0.00  0.00    +0.162 A 
ATOM     25  N   LIG    1      -34.432  75.822  29.584  0.00  0.00    -0.235 NA
ATOM     26  C   LIG    1      -33.470  74.940  29.967  0.00  0.00    +0.121 A 
ATOM     27  C   LIG    1      -32.094  75.033  29.712  0.00  0.00    +0.005 A 
ATOM     28  C   LIG    1      -31.638  76.156  29.009  0.00  0.00    +0.041 A 
ATOM     29  C   LIG    1      -32.587  77.103  28.596  0.00  0.00    +0.110 A 
ATOM     30  N   LIG    1      -32.435  78.270  27.915  0.00  0.00    -0.213 NA
ATOM     31  C   LIG    1      -33.684  78.761  27.777  0.00  0.00    +0.195 A 
BRANCH  27  32
ATOM     32  C   LIG    1      -31.162  74.004  30.150  0.00  0.00    +0.021 A 
ATOM     33  C   LIG    1      -30.326  74.089  31.244  0.00  0.00    +0.116 A 
ATOM     34  N   LIG    1      -29.632  72.915  31.297  0.00  0.00    -0.274 N 
ATOM     35  C   LIG    1      -28.622  72.561  32.264  0.00  0.00    +0.172 C 
ATOM     36  N   LIG    1      -29.954  72.058  30.315  0.00  0.00    -0.179 NA
ATOM     37  C   LIG    1      -30.886  72.717  29.621  0.00  0.00    +0.143 A 
ENDBRANCH  27  32
BRANCH  31  38
ATOM     38  N   LIG    1      -33.959  79.922  27.227  0.00  0.00    -0.329 N 
ATOM     39  H   LIG    1      -33.259  80.315  26.603  0.00  0.00    +0.145 HD
ATOM     40  H   LIG    1      -34.912  80.173  26.949  0.00  0.00    +0.145 HD
ENDBRANCH  31  38
ENDBRANCH  22  23
ENDBRANCH   5  22
TORSDOF 10
ENDMDL
MODEL 4
REMARK VINA RESULT:      -6.1      5.507     10.165
REMARK  Name = pdb/CHEMBL3678283.pdb
REMARK                            x       y       z     vdW  Elec       q    Type
REMARK                         _______ _______ _______ _____ _____    ______ ____
ROOT
ATOM      1  C   LIG    1      -18.256  77.076  33.664  0.00  0.00    +0.162 A 
ATOM      2  C   LIG    1      -18.502  77.683  32.396  0.00  0.00    +0.162 A 
ATOM      3  C   LIG    1      -19.431  78.730  32.333  0.00  0.00    +0.050 A 
ATOM      4  C   LIG    1      -19.874  79.390  33.435  0.00  0.00    +0.009 A 
ATOM      5  C   LIG    1      -19.540  78.923  34.688  0.00  0.00    -0.024 A 
ATOM      6  C   LIG    1      -18.764  77.748  34.793  0.00  0.00    +0.054 A 
ENDROOT
BRANCH   1   8
ATOM      7  C   LIG    1      -18.294  74.678  34.205  0.00  0.00    +0.277 C 
ATOM      8  O   LIG    1      -17.571  75.879  33.807  0.00  0.00    -0.491 OA
ENDBRANCH   1   8
BRANCH   2   9
ATOM      9  O   LIG    1      -17.872  77.353  31.201  0.00  0.00    -0.484 OA
BRANCH   9  10
ATOM     10  C   LIG    1      -18.381  76.130  30.547  0.00  0.00    +0.264 C 
BRANCH  10  11
ATOM     11  C   LIG    1      -19.905  76.114  30.455  0.00  0.00    -0.010 A 
ATOM     12  C   LIG    1      -20.595  76.883  29.504  0.00  0.00    +0.010 A 
ATOM     13  C   LIG    1      -21.989  76.978  29.511  0.00  0.00    +0.046 A 
ATOM     14  C   LIG    1      -22.726  76.326  30.501  0.00  0.00    +0.130 A 
ATOM     15  C   LIG    1      -22.054  75.473  31.374  0.00  0.00    +0.046 A 
ATOM     16  C   LIG    1      -20.664  75.336  31.332  0.00  0.00    +0.010 A 
BRANCH  14  17
ATOM     17  O   LIG    1      -24.064  76.578  30.528  0.00  0.00    -0.406 OA
BRANCH  17  18
ATOM     18  C   LIG    1      -24.534  77.745  31.202  0.00  0.00    +0.575 C 
ATOM     19  F   LIG    1      -25.745  77.502  31.751  0.00  0.00    -0.133 F 
ATOM     20  F   LIG    1      -24.674  78.739  30.295  0.00  0.00    -0.133 F 
ATOM     21  F   LIG    1      -23.708  78.210  32.166  0.00  0.00    -0.133 F 
ENDBRANCH  17  18
ENDBRANCH  14  17
ENDBRANCH  10  11
ENDBRANCH   9  10
ENDBRANCH   2   9
BRANCH   5  22
ATOM     22  C   LIG    1      -19.993  79.690  35.896  0.00  0.00    +0.161 C 
BRANCH  22  23
ATOM     23  N   LIG    1      -21.385  80.124  35.796  0.00  0.00    -0.293 N 
ATOM     24  C   LIG    1      -22.438  79.268  35.641  0.00  0.00    +0.162 A 
ATOM     25  N   LIG    1      -22.412  77.930  35.621  0.00  0.00    -0.235 NA
ATOM     26  C   LIG    1      -23.654  77.398  35.464  0.00  0.00    +0.121 A 
ATOM     27  C   LIG    1      -24.862  78.102  35.341  0.00  0.00    +0.005 A 
ATOM     28  C   LIG    1      -24.801  79.502  35.354  0.00  0.00    +0.041 A 
ATOM     29  C   LIG    1      -23.543  80.104  35.505  0.00  0.00    +0.110 A 
ATOM     30  N   LIG    1      -23.189  81.417  35.548  0.00  0.00    -0.213 NA
ATOM     31  C   LIG    1      -21.853  81.414  35.728  0.00  0.00    +0.195 A 
BRANCH  27  32
ATOM     32  C   LIG    1      -26.139  77.416  35.208  0.00  0.00    +0.021 A 
ATOM     33  C   LIG    1      -26.316  76.131  34.740  0.00  0.00    +0.116 A 
ATOM     34  N   LIG    1      -27.657  75.881  34.784  0.00  0.00    -0.274 N 
ATOM     35  C   LIG    1      -28.315  74.666  34.369  0.00  0.00    +0.172 C 
ATOM     36  N   LIG    1      -28.378  76.911  35.253  0.00  0.00    -0.179 NA
ATOM     37  C   LIG    1      -27.456  77.841  35.515  0.00  0.00    +0.143 A 
ENDBRANCH  27  32
BRANCH  31  38
ATOM     38  N   LIG    1      -21.114  82.500  35.754  0.00  0.00    -0.329 N 
ATOM     39  H   LIG    1      -20.284  82.479  36.343  0.00  0.00    +0.145 HD
ATOM     40  H   LIG    1      -20.987  83.085  34.924  0.00  0.00    +0.145 HD
ENDBRANCH  31  38
ENDBRANCH  22  23
ENDBRANCH   5  22
TORSDOF 10
ENDMDL
MODEL 5
REMARK VINA RESULT:      -6.0     11.724     15.233
REMARK  Name = pdb/CHEMBL3678283.pdb
REMARK                            x       y       z     vdW  Elec       q    Type
REMARK                         _______ _______ _______ _____ _____    ______ ____
ROOT
ATOM      1  C   LIG    1      -34.499  66.675  21.798  0.00  0.00    +0.162 A 
ATOM      2  C   LIG    1      -35.537  65.846  21.276  0.00  0.00    +0.162 A 
ATOM      3  C   LIG    1      -36.470  65.309  22.173  0.00  0.00    +0.050 A 
ATOM      4  C   LIG    1      -36.621  65.769  23.442  0.00  0.00    +0.009 A 
ATOM      5  C   LIG    1      -35.723  66.686  23.946  0.00  0.00    -0.024 A 
ATOM      6  C   LIG    1      -34.648  67.103  23.133  0.00  0.00    +0.054 A 
ENDROOT
BRANCH   1   8
ATOM      7  C   LIG    1      -32.755  66.070  20.174  0.00  0.00    +0.277 C 
ATOM      8  O   LIG    1      -33.383  67.040  21.062  0.00  0.00    -0.491 OA
ENDBRANCH   1   8
BRANCH   2   9
ATOM      9  O   LIG    1      -35.736  65.542  19.933  0.00  0.00    -0.484 OA
BRANCH   9  10
ATOM     10  C   LIG    1      -36.259  66.656  19.115  0.00  0.00    +0.264 C 
BRANCH  10  11
ATOM     11  C   LIG    1      -37.579  67.201  19.654  0.00  0.00    -0.010 A 
ATOM     12  C   LIG    1      -37.664  68.469  20.252  0.00  0.00    +0.010 A 
ATOM     13  C   LIG    1      -38.837  68.909  20.871  0.00  0.00    +0.046 A 
ATOM     14  C   LIG    1      -39.948  68.067  20.935  0.00  0.00    +0.130 A 
ATOM     15  C   LIG    1      -39.903  66.857  20.245  0.00  0.00    +0.046 A 
ATOM     16  C   LIG    1      -38.747  66.440  19.580  0.00  0.00    +0.010 A 
BRANCH  14  17
ATOM     17  O   LIG    1      -41.004  68.508  21.674  0.00  0.00    -0.406 OA
BRANCH  17  18
ATOM     18  C   LIG    1      -41.455  67.719  22.774  0.00  0.00    +0.575 C 
ATOM     19  F   LIG    1      -42.397  66.844  22.356  0.00  0.00    -0.133 F 
ATOM     20  F   LIG    1      -42.019  68.539  23.690  0.00  0.00    -0.133 F 
ATOM     21  F   LIG    1      -40.481  67.033  23.412  0.00  0.00    -0.133 F 
ENDBRANCH  17  18
ENDBRANCH  14  17
ENDBRANCH  10  11
ENDBRANCH   9  10
ENDBRANCH   2   9
BRANCH   5  22
ATOM     22  C   LIG    1      -35.931  67.224  25.331  0.00  0.00    +0.161 C 
BRANCH  22  23
ATOM     23  N   LIG    1      -35.948  68.686  25.369  0.00  0.00    -0.293 N 
ATOM     24  C   LIG    1      -37.012  69.443  24.969  0.00  0.00    +0.162 A 
ATOM     25  N   LIG    1      -38.210  69.019  24.551  0.00  0.00    -0.235 NA
ATOM     26  C   LIG    1      -39.040  70.054  24.247  0.00  0.00    +0.121 A 
ATOM     27  C   LIG    1      -38.747  71.422  24.342  0.00  0.00    +0.005 A 
ATOM     28  C   LIG    1      -37.464  71.784  24.771  0.00  0.00    +0.041 A 
ATOM     29  C   LIG    1      -36.564  70.756  25.091  0.00  0.00    +0.110 A 
ATOM     30  N   LIG    1      -35.275  70.810  25.522  0.00  0.00    -0.213 NA
ATOM     31  C   LIG    1      -34.907  69.524  25.689  0.00  0.00    +0.195 A 
BRANCH  27  32
ATOM     32  C   LIG    1      -39.734  72.441  24.014  0.00  0.00    +0.021 A 
ATOM     33  C   LIG    1      -40.971  72.210  23.449  0.00  0.00    +0.116 A 
ATOM     34  N   LIG    1      -41.573  73.428  23.316  0.00  0.00    -0.274 N 
ATOM     35  C   LIG    1      -42.876  73.681  22.750  0.00  0.00    +0.172 C 
ATOM     36  N   LIG    1      -40.821  74.447  23.759  0.00  0.00    -0.179 NA
ATOM     37  C   LIG    1      -39.707  73.849  24.187  0.00  0.00    +0.143 A 
ENDBRANCH  27  32
BRANCH  31  38
ATOM     38  N   LIG    1      -33.697  69.145  26.036  0.00  0.00    -0.329 N 
ATOM     39  H   LIG    1      -33.094  68.794  25.297  0.00  0.00    +0.145 HD
ATOM     40  H   LIG    1      -33.172  69.629  26.770  0.00  0.00    +0.145 HD
ENDBRANCH  31  38
ENDBRANCH  22  23
ENDBRANCH   5  22
TORSDOF 10
ENDMDL
MODEL 6
REMARK VINA RESULT:      -5.9      6.907     10.522
REMARK  Name = pdb/CHEMBL3678283.pdb
REMARK                            x       y       z     vdW  Elec       q    Type
REMARK                         _______ _______ _______ _____ _____    ______ ____
ROOT
ATOM      1  C   LIG    1      -21.725  75.124  31.573  0.00  0.00    +0.162 A 
ATOM      2  C   LIG    1      -20.800  75.675  30.634  0.00  0.00    +0.162 A 
ATOM      3  C   LIG    1      -21.304  76.485  29.608  0.00  0.00    +0.050 A 
ATOM      4  C   LIG    1      -22.555  77.014  29.632  0.00  0.00    +0.009 A 
ATOM      5  C   LIG    1      -23.442  76.620  30.611  0.00  0.00    -0.024 A 
ATOM      6  C   LIG    1      -23.032  75.650  31.551  0.00  0.00    +0.054 A 
ENDROOT
BRANCH   1   8
ATOM      7  C   LIG    1      -22.259  72.951  32.591  0.00  0.00    +0.277 C 
ATOM      8  O   LIG    1      -21.388  74.112  32.458  0.00  0.00    -0.491 OA
ENDBRANCH   1   8
BRANCH   2   9
ATOM      9  O   LIG    1      -19.420  75.511  30.661  0.00  0.00    -0.484 OA
BRANCH   9  10
ATOM     10  C   LIG    1      -18.648  76.760  30.826  0.00  0.00    +0.264 C 
BRANCH  10  11
ATOM     11  C   LIG    1      -18.907  77.427  32.175  0.00  0.00    -0.010 A 
ATOM     12  C   LIG    1      -19.577  78.657  32.273  0.00  0.00    +0.010 A 
ATOM     13  C   LIG    1      -19.689  79.334  33.490  0.00  0.00    +0.046 A 
ATOM     14  C   LIG    1      -19.098  78.805  34.638  0.00  0.00    +0.130 A 
ATOM     15  C   LIG    1      -18.533  77.533  34.566  0.00  0.00    +0.046 A 
ATOM     16  C   LIG    1      -18.469  76.832  33.359  0.00  0.00    +0.010 A 
BRANCH  14  17
ATOM     17  O   LIG    1      -19.127  79.587  35.753  0.00  0.00    -0.406 OA
BRANCH  17  18
ATOM     18  C   LIG    1      -20.373  79.798  36.417  0.00  0.00    +0.575 C 
ATOM     19  F   LIG    1      -21.204  78.760  36.174  0.00  0.00    -0.133 F 
ATOM     20  F   LIG    1      -20.941  80.919  35.919  0.00  0.00    -0.133 F 
ATOM     21  F   LIG    1      -20.277  79.970  37.754  0.00  0.00    -0.133 F 
ENDBRANCH  17  18
ENDBRANCH  14  17
ENDBRANCH  10  11
ENDBRANCH   9  10
ENDBRANCH   2   9
BRANCH   5  22
ATOM     22  C   LIG    1      -24.803  77.249  30.657  0.00  0.00    +0.161 C 
BRANCH  22  23
ATOM     23  N   LIG    1      -25.364  77.278  32.008  0.00  0.00    -0.293 N 
ATOM     24  C   LIG    1      -24.893  78.079  33.008  0.00  0.00    +0.162 A 
ATOM     25  N   LIG    1      -23.923  78.999  32.935  0.00  0.00    -0.235 NA
ATOM     26  C   LIG    1      -23.724  79.626  34.126  0.00  0.00    +0.121 A 
ATOM     27  C   LIG    1      -24.418  79.396  35.324  0.00  0.00    +0.005 A 
ATOM     28  C   LIG    1      -25.408  78.405  35.321  0.00  0.00    +0.041 A 
ATOM     29  C   LIG    1      -25.649  77.720  34.121  0.00  0.00    +0.110 A 
ATOM     30  N   LIG    1      -26.529  76.725  33.830  0.00  0.00    -0.213 NA
ATOM     31  C   LIG    1      -26.342  76.461  32.521  0.00  0.00    +0.195 A 
BRANCH  27  32
ATOM     32  C   LIG    1      -24.134  80.158  36.532  0.00  0.00    +0.021 A 
ATOM     33  C   LIG    1      -23.827  79.623  37.765  0.00  0.00    +0.116 A 
ATOM     34  N   LIG    1      -23.630  80.677  38.610  0.00  0.00    -0.274 N 
ATOM     35  C   LIG    1      -23.309  80.600  40.014  0.00  0.00    +0.172 C 
ATOM     36  N   LIG    1      -23.783  81.872  38.018  0.00  0.00    -0.179 NA
ATOM     37  C   LIG    1      -24.084  81.557  36.755  0.00  0.00    +0.143 A 
ENDBRANCH  27  32
BRANCH  31  38
ATOM     38  N   LIG    1      -26.962  75.504  31.869  0.00  0.00    -0.329 N 
ATOM     39  H   LIG    1      -26.405  74.951  31.222  0.00  0.00    +0.145 HD
ATOM     40  H   LIG    1      -27.714  74.959  32.300  0.00  0.00    +0.145 HD
ENDBRANCH  31  38
ENDBRANCH  22  23
ENDBRANCH   5  22
TORSDOF 10
ENDMDL
MODEL 7
REMARK VINA RESULT:      -5.9      8.183     11.381
REMARK  Name = pdb/CHEMBL3678283.pdb
REMARK                            x       y       z     vdW  Elec       q    Type
REMARK                         _______ _______ _______ _____ _____    ______ ____
ROOT
ATOM      1  C   LIG    1      -19.060  74.998  31.894  0.00  0.00    +0.162 A 
ATOM      2  C   LIG    1      -18.495  76.000  31.048  0.00  0.00    +0.162 A 
ATOM      3  C   LIG    1      -19.314  76.577  30.068  0.00  0.00    +0.050 A 
ATOM      4  C   LIG    1      -20.667  76.461  30.076  0.00  0.00    +0.009 A 
ATOM      5  C   LIG    1      -21.272  75.610  30.977  0.00  0.00    -0.024 A 
ATOM      6  C   LIG    1      -20.462  74.858  31.854  0.00  0.00    +0.054 A 
ENDROOT
BRANCH   1   8
ATOM      7  C   LIG    1      -17.449  73.153  32.111  0.00  0.00    +0.277 C 
ATOM      8  O   LIG    1      -18.294  74.179  32.709  0.00  0.00    -0.491 OA
ENDBRANCH   1   8
BRANCH   2   9
ATOM      9  O   LIG    1      -17.197  76.492  31.127  0.00  0.00    -0.484 OA
BRANCH   9  10
ATOM     10  C   LIG    1      -17.097  77.947  31.364  0.00  0.00    +0.264 C 
BRANCH  10  11
ATOM     11  C   LIG    1      -17.831  78.379  32.631  0.00  0.00    -0.010 A 
ATOM     12  C   LIG    1      -17.298  78.146  33.909  0.00  0.00    +0.010 A 
ATOM     13  C   LIG    1      -18.031  78.412  35.068  0.00  0.00    +0.046 A 
ATOM     14  C   LIG    1      -19.338  78.890  34.970  0.00  0.00    +0.130 A 
ATOM     15  C   LIG    1      -19.827  79.229  33.710  0.00  0.00    +0.046 A 
ATOM     16  C   LIG    1      -19.073  79.013  32.554  0.00  0.00    +0.010 A 
BRANCH  14  17
ATOM     17  O   LIG    1      -20.038  78.993  36.135  0.00  0.00    -0.406 OA
BRANCH  17  18
ATOM     18  C   LIG    1      -20.031  80.234  36.838  0.00  0.00    +0.575 C 
ATOM     19  F   LIG    1      -20.567  81.203  36.063  0.00  0.00    -0.133 F 
ATOM     20  F   LIG    1      -18.749  80.570  37.107  0.00  0.00    -0.133 F 
ATOM     21  F   LIG    1      -20.686  80.216  38.020  0.00  0.00    -0.133 F 
ENDBRANCH  17  18
ENDBRANCH  14  17
ENDBRANCH  10  11
ENDBRANCH   9  10
ENDBRANCH   2   9
BRANCH   5  22
ATOM     22  C   LIG    1      -22.770  75.530  31.010  0.00  0.00    +0.161 C 
BRANCH  22  23
ATOM     23  N   LIG    1      -23.390  76.774  31.467  0.00  0.00    -0.293 N 
ATOM     24  C   LIG    1      -23.350  77.211  32.760  0.00  0.00    +0.162 A 
ATOM     25  N   LIG    1      -22.710  76.655  33.795  0.00  0.00    -0.235 NA
ATOM     26  C   LIG    1      -22.872  77.371  34.940  0.00  0.00    +0.121 A 
ATOM     27  C   LIG    1      -23.600  78.561  35.092  0.00  0.00    +0.005 A 
ATOM     28  C   LIG    1      -24.255  79.070  33.963  0.00  0.00    +0.041 A 
ATOM     29  C   LIG    1      -24.128  78.366  32.756  0.00  0.00    +0.110 A 
ATOM     30  N   LIG    1      -24.647  78.618  31.524  0.00  0.00    -0.213 NA
ATOM     31  C   LIG    1      -24.183  77.626  30.738  0.00  0.00    +0.195 A 
BRANCH  27  32
ATOM     32  C   LIG    1      -23.675  79.256  36.369  0.00  0.00    +0.021 A 
ATOM     33  C   LIG    1      -23.619  78.661  37.612  0.00  0.00    +0.116 A 
ATOM     34  N   LIG    1      -23.719  79.666  38.531  0.00  0.00    -0.274 N 
ATOM     35  C   LIG    1      -23.730  79.516  39.965  0.00  0.00    +0.172 C 
ATOM     36  N   LIG    1      -23.834  80.884  37.980  0.00  0.00    -0.179 NA
ATOM     37  C   LIG    1      -23.802  80.637  36.668  0.00  0.00    +0.143 A 
ENDBRANCH  27  32
BRANCH  31  38
ATOM     38  N   LIG    1      -24.517  77.473  29.476  0.00  0.00    -0.329 N 
ATOM     39  H   LIG    1      -24.923  78.277  29.005  0.00  0.00    +0.145 HD
ATOM     40  H   LIG    1      -23.967  76.887  28.842  0.00  0.00    +0.145 HD
ENDBRANCH  31  38
ENDBRANCH  22  23
ENDBRANCH   5  22
TORSDOF 10
ENDMDL
MODEL 8
REMARK VINA RESULT:      -5.8      9.547     12.984
REMARK  Name = pdb/CHEMBL3678283.pdb
REMARK                            x       y       z     vdW  Elec       q    Type
REMARK                         _______ _______ _______ _____ _____    ______ ____
ROOT
ATOM      1  C   LIG    1      -40.019  68.880  21.445  0.00  0.00    +0.162 A 
ATOM      2  C   LIG    1      -40.152  69.982  22.343  0.00  0.00    +0.162 A 
ATOM      3  C   LIG    1      -39.146  70.182  23.298  0.00  0.00    +0.050 A 
ATOM      4  C   LIG    1      -37.928  69.585  23.223  0.00  0.00    +0.009 A 
ATOM      5  C   LIG    1      -37.705  68.613  22.271  0.00  0.00    -0.024 A 
ATOM      6  C   LIG    1      -38.763  68.242  21.415  0.00  0.00    +0.054 A 
ENDROOT
BRANCH   1   8
ATOM      7  C   LIG    1      -42.059  67.529  21.206  0.00  0.00    +0.277 C 
ATOM      8  O   LIG    1      -41.057  68.428  20.647  0.00  0.00    -0.491 OA
ENDBRANCH   1   8
BRANCH   2   9
ATOM      9  O   LIG    1      -41.185  70.913  22.340  0.00  0.00    -0.484 OA
BRANCH   9  10
ATOM     10  C   LIG    1      -41.508  71.488  23.662  0.00  0.00    +0.264 C 
BRANCH  10  11
ATOM     11  C   LIG    1      -41.038  72.934  23.795  0.00  0.00    -0.010 A 
ATOM     12  C   LIG    1      -39.761  73.253  24.286  0.00  0.00    +0.010 A 
ATOM     13  C   LIG    1      -39.384  74.574  24.540  0.00  0.00    +0.046 A 
ATOM     14  C   LIG    1      -40.297  75.610  24.338  0.00  0.00    +0.130 A 
ATOM     15  C   LIG    1      -41.521  75.308  23.745  0.00  0.00    +0.046 A 
ATOM     16  C   LIG    1      -41.878  73.992  23.441  0.00  0.00    +0.010 A 
BRANCH  14  17
ATOM     17  O   LIG    1      -39.907  76.852  24.740  0.00  0.00    -0.406 OA
BRANCH  17  18
ATOM     18  C   LIG    1      -39.194  77.682  23.824  0.00  0.00    +0.575 C 
ATOM     19  F   LIG    1      -39.162  78.952  24.284  0.00  0.00    -0.133 F 
ATOM     20  F   LIG    1      -39.847  77.678  22.640  0.00  0.00    -0.133 F 
ATOM     21  F   LIG    1      -37.927  77.282  23.571  0.00  0.00    -0.133 F 
ENDBRANCH  17  18
ENDBRANCH  14  17
ENDBRANCH  10  11
ENDBRANCH   9  10
ENDBRANCH   2   9
BRANCH   5  22
ATOM     22  C   LIG    1      -36.339  67.998  22.165  0.00  0.00    +0.161 C 
BRANCH  22  23
ATOM     23  N   LIG    1      -35.988  67.204  23.341  0.00  0.00    -0.293 N 
ATOM     24  C   LIG    1      -35.284  67.693  24.405  0.00  0.00    +0.162 A 
ATOM     25  N   LIG    1      -34.861  68.947  24.602  0.00  0.00    -0.235 NA
ATOM     26  C   LIG    1      -34.202  69.083  25.785  0.00  0.00    +0.121 A 
ATOM     27  C   LIG    1      -33.964  68.079  26.735  0.00  0.00    +0.005 A 
ATOM     28  C   LIG    1      -34.425  66.789  26.446  0.00  0.00    +0.041 A 
ATOM     29  C   LIG    1      -35.105  66.589  25.235  0.00  0.00    +0.110 A 
ATOM     30  N   LIG    1      -35.649  65.464  24.699  0.00  0.00    -0.213 NA
ATOM     31  C   LIG    1      -36.190  65.858  23.529  0.00  0.00    +0.195 A 
BRANCH  27  32
ATOM     32  C   LIG    1      -33.270  68.356  27.985  0.00  0.00    +0.021 A 
ATOM     33  C   LIG    1      -32.736  69.573  28.355  0.00  0.00    +0.116 A 
ATOM     34  N   LIG    1      -32.185  69.397  29.591  0.00  0.00    -0.274 N 
ATOM     35  C   LIG    1      -31.490  70.395  30.368  0.00  0.00    +0.172 C 
ATOM     36  N   LIG    1      -32.322  68.150  30.065  0.00  0.00    -0.179 NA
ATOM     37  C   LIG    1      -32.985  67.518  29.093  0.00  0.00    +0.143 A 
ENDBRANCH  27  32
BRANCH  31  38
ATOM     38  N   LIG    1      -36.759  65.042  22.671  0.00  0.00    -0.329 N 
ATOM     39  H   LIG    1      -37.304  64.274  23.056  0.00  0.00    +0.145 HD
ATOM     40  H   LIG    1      -37.132  65.375  21.777  0.00  0.00    +0.145 HD
ENDBRANCH  31  38
ENDBRANCH  22  23
ENDBRANCH   5  22
TORSDOF 10
ENDMDL
MODEL 9
REMARK VINA RESULT:      -5.7      6.854     10.976
REMARK  Name = pdb/CHEMBL3678283.pdb
REMARK                            x       y       z     vdW  Elec       q    Type
REMARK                         _______ _______ _______ _____ _____    ______ ____
ROOT
ATOM      1  C   LIG    1      -17.921  77.399  33.903  0.00  0.00    +0.162 A 
ATOM      2  C   LIG    1      -18.606  77.783  32.710  0.00  0.00    +0.162 A 
ATOM      3  C   LIG    1      -19.698  78.653  32.825  0.00  0.00    +0.050 A 
ATOM      4  C   LIG    1      -19.949  79.378  33.946  0.00  0.00    +0.009 A 
ATOM      5  C   LIG    1      -19.211  79.143  35.087  0.00  0.00    -0.024 A 
ATOM      6  C   LIG    1      -18.229  78.131  35.067  0.00  0.00    +0.054 A 
ENDROOT
BRANCH   1   8
ATOM      7  C   LIG    1      -17.455  75.027  34.349  0.00  0.00    +0.277 C 
ATOM      8  O   LIG    1      -17.010  76.356  33.947  0.00  0.00    -0.491 OA
ENDBRANCH   1   8
BRANCH   2   9
ATOM      9  O   LIG    1      -18.265  77.397  31.418  0.00  0.00    -0.484 OA
BRANCH   9  10
ATOM     10  C   LIG    1      -18.752  76.059  31.021  0.00  0.00    +0.264 C 
BRANCH  10  11
ATOM     11  C   LIG    1      -20.245  76.056  30.705  0.00  0.00    -0.010 A 
ATOM     12  C   LIG    1      -20.778  76.811  29.647  0.00  0.00    +0.010 A 
ATOM     13  C   LIG    1      -22.156  76.920  29.447  0.00  0.00    +0.046 A 
ATOM     14  C   LIG    1      -23.039  76.298  30.331  0.00  0.00    +0.130 A 
ATOM     15  C   LIG    1      -22.514  75.458  31.311  0.00  0.00    +0.046 A 
ATOM     16  C   LIG    1      -21.135  75.307  31.477  0.00  0.00    +0.010 A 
BRANCH  14  17
ATOM     17  O   LIG    1      -24.364  76.563  30.155  0.00  0.00    -0.406 OA
BRANCH  17  18
ATOM     18  C   LIG    1      -24.959  77.627  30.898  0.00  0.00    +0.575 C 
ATOM     19  F   LIG    1      -24.041  78.188  31.714  0.00  0.00    -0.133 F 
ATOM     20  F   LIG    1      -25.948  77.115  31.665  0.00  0.00    -0.133 F 
ATOM     21  F   LIG    1      -25.516  78.599  30.141  0.00  0.00    -0.133 F 
ENDBRANCH  17  18
ENDBRANCH  14  17
ENDBRANCH  10  11
ENDBRANCH   9  10
ENDBRANCH   2   9
BRANCH   5  22
ATOM     22  C   LIG    1      -19.463  79.986  36.303  0.00  0.00    +0.161 C 
BRANCH  22  23
ATOM     23  N   LIG    1      -20.740  79.678  36.946  0.00  0.00    -0.293 N 
ATOM     24  C   LIG    1      -21.848  80.469  36.851  0.00  0.00    +0.162 A 
ATOM     25  N   LIG    1      -21.999  81.587  36.131  0.00  0.00    -0.235 NA
ATOM     26  C   LIG    1      -23.249  82.111  36.258  0.00  0.00    +0.121 A 
ATOM     27  C   LIG    1      -24.304  81.593  37.024  0.00  0.00    +0.005 A 
ATOM     28  C   LIG    1      -24.059  80.428  37.762  0.00  0.00    +0.041 A 
ATOM     29  C   LIG    1      -22.785  79.850  37.675  0.00  0.00    +0.110 A 
ATOM     30  N   LIG    1      -22.272  78.741  38.273  0.00  0.00    -0.213 NA
ATOM     31  C   LIG    1      -21.007  78.647  37.814  0.00  0.00    +0.195 A 
BRANCH  27  32
ATOM     32  C   LIG    1      -25.612  82.230  37.056  0.00  0.00    +0.021 A 
ATOM     33  C   LIG    1      -26.781  81.645  37.494  0.00  0.00    +0.116 A 
ATOM     34  N   LIG    1      -27.763  82.584  37.359  0.00  0.00    -0.274 N 
ATOM     35  C   LIG    1      -29.161  82.412  37.673  0.00  0.00    +0.172 C 
ATOM     36  N   LIG    1      -27.322  83.751  36.866  0.00  0.00    -0.179 NA
ATOM     37  C   LIG    1      -26.016  83.539  36.685  0.00  0.00    +0.143 A 
ENDBRANCH  27  32
BRANCH  31  38
ATOM     38  N   LIG    1      -20.148  77.737  38.212  0.00  0.00    -0.329 N 
ATOM     39  H   LIG    1      -20.528  76.840  38.504  0.00  0.00    +0.145 HD
ATOM     40  H   LIG    1      -19.222  77.647  37.783  0.00  0.00    +0.145 HD
ENDBRANCH  31  38
ENDBRANCH  22  23
ENDBRANCH   5  22
TORSDOF 10
ENDMDL
