MODEL 1
REMARK VINA RESULT:      -5.7      0.000      0.000
REMARK  Name = pdb/CHEMBL3676099.pdb
REMARK                            x       y       z     vdW  Elec       q    Type
REMARK                         _______ _______ _______ _____ _____    ______ ____
ROOT
ATOM      1  C   LIG    1      -23.938  79.677  35.323  0.00  0.00    +0.126 A 
ATOM      2  N   LIG    1      -24.126  78.907  34.268  0.00  0.00    -0.212 NA
ATOM      3  C   LIG    1      -25.314  78.221  34.161  0.00  0.00    +0.170 A 
ATOM      4  C   LIG    1      -25.830  77.387  33.184  0.00  0.00    +0.100 A 
ATOM      5  C   LIG    1      -27.132  77.084  33.634  0.00  0.00    +0.150 A 
ATOM      6  N   LIG    1      -27.417  77.615  34.821  0.00  0.00    -0.173 NA
ATOM      7  N   LIG    1      -26.304  78.314  35.143  0.00  0.00    -0.221 N 
ATOM      8  C   LIG    1      -26.105  79.081  36.275  0.00  0.00    +0.118 A 
ATOM      9  C   LIG    1      -24.971  79.773  36.426  0.00  0.00    +0.063 A 
ENDROOT
BRANCH   1  11
ATOM     10  C   LIG    1      -21.504  79.880  35.929  0.00  0.00    +0.110 C 
ATOM     11  N   LIG    1      -22.776  80.437  35.418  0.00  0.00    -0.308 N 
ATOM     12  C   LIG    1      -22.762  81.896  35.511  0.00  0.00    +0.107 C 
ATOM     13  C   LIG    1      -21.615  82.215  36.459  0.00  0.00    +0.021 C 
ATOM     14  C   LIG    1      -20.619  81.119  36.157  0.00  0.00    +0.029 C 
BRANCH  10  19
ATOM     15  C   LIG    1      -20.526  75.223  34.434  0.00  0.00    +0.152 C 
ATOM     16  N   LIG    1      -20.275  76.650  34.333  0.00  0.00    -0.315 N 
ATOM     17  C   LIG    1      -20.950  77.504  35.211  0.00  0.00    +0.256 A 
ATOM     18  O   LIG    1      -21.630  77.108  36.155  0.00  0.00    -0.267 OA
ATOM     19  C   LIG    1      -20.804  78.980  34.947  0.00  0.00    +0.040 A 
ATOM     20  C   LIG    1      -20.043  79.381  33.913  0.00  0.00    +0.050 A 
ATOM     21  C   LIG    1      -19.327  78.434  33.108  0.00  0.00    +0.140 A 
ATOM     22  F   LIG    1      -18.558  78.895  32.104  0.00  0.00    -0.204 F 
ATOM     23  C   LIG    1      -19.442  77.124  33.337  0.00  0.00    +0.127 A 
ENDBRANCH  10  19
ENDBRANCH   1  11
BRANCH   4  24
ATOM     24  C   LIG    1      -25.233  76.922  31.949  0.00  0.00    +0.250 C 
ATOM     25  N   LIG    1      -23.867  76.854  31.943  0.00  0.00    -0.306 N 
ATOM     26  H   LIG    1      -23.381  77.139  32.792  0.00  0.00    +0.150 HD
ATOM     27  O   LIG    1      -25.940  76.605  30.981  0.00  0.00    -0.270 OA
BRANCH  25  28
ATOM     28  C   LIG    1      -23.086  76.406  30.818  0.00  0.00    +0.032 C 
ATOM     29  C   LIG    1      -21.844  77.185  30.420  0.00  0.00    +0.027 C 
ATOM     30  C   LIG    1      -23.083  77.286  29.590  0.00  0.00    +0.027 C 
ATOM     31  C   LIG    1      -23.124  74.916  30.562  0.00  0.00    +0.031 C 
ENDBRANCH  25  28
ENDBRANCH   4  24
TORSDOF 4
ENDMDL
MODEL 2
REMARK VINA RESULT:      -5.6     18.673     22.248
REMARK  Name = pdb/CHEMBL3676099.pdb
REMARK                            x       y       z     vdW  Elec       q    Type
REMARK                         _______ _______ _______ _____ _____    ______ ____
ROOT
ATOM      1  C   LIG    1      -20.073  82.061  14.353  0.00  0.00    +0.126 A 
ATOM      2  N   LIG    1      -20.145  83.372  14.229  0.00  0.00    -0.212 NA
ATOM      3  C   LIG    1      -19.074  84.037  13.678  0.00  0.00    +0.170 A 
ATOM      4  C   LIG    1      -18.855  85.370  13.373  0.00  0.00    +0.100 A 
ATOM      5  C   LIG    1      -17.592  85.382  12.743  0.00  0.00    +0.150 A 
ATOM      6  N   LIG    1      -17.015  84.183  12.697  0.00  0.00    -0.173 NA
ATOM      7  N   LIG    1      -17.923  83.360  13.267  0.00  0.00    -0.221 N 
ATOM      8  C   LIG    1      -17.815  81.992  13.432  0.00  0.00    +0.118 A 
ATOM      9  C   LIG    1      -18.829  81.296  13.956  0.00  0.00    +0.063 A 
ENDROOT
BRANCH   1  11
ATOM     10  C   LIG    1      -22.558  81.854  14.698  0.00  0.00    +0.110 C 
ATOM     11  N   LIG    1      -21.171  81.358  14.840  0.00  0.00    -0.308 N 
ATOM     12  C   LIG    1      -21.096  80.375  15.920  0.00  0.00    +0.107 C 
ATOM     13  C   LIG    1      -22.382  80.563  16.710  0.00  0.00    +0.021 C 
ATOM     14  C   LIG    1      -23.377  80.951  15.639  0.00  0.00    +0.029 C 
BRANCH  10  19
ATOM     15  C   LIG    1      -24.082  84.077  10.501  0.00  0.00    +0.152 C 
ATOM     16  N   LIG    1      -23.951  82.875  11.306  0.00  0.00    -0.315 N 
ATOM     17  C   LIG    1      -23.400  82.993  12.586  0.00  0.00    +0.256 A 
ATOM     18  O   LIG    1      -23.155  84.071  13.123  0.00  0.00    -0.267 OA
ATOM     19  C   LIG    1      -23.111  81.703  13.307  0.00  0.00    +0.040 A 
ATOM     20  C   LIG    1      -23.403  80.540  12.696  0.00  0.00    +0.050 A 
ATOM     21  C   LIG    1      -24.035  80.517  11.409  0.00  0.00    +0.140 A 
ATOM     22  F   LIG    1      -24.330  79.324  10.859  0.00  0.00    -0.204 F 
ATOM     23  C   LIG    1      -24.304  81.654  10.764  0.00  0.00    +0.127 A 
ENDBRANCH  10  19
ENDBRANCH   1  11
BRANCH   4  24
ATOM     24  C   LIG    1      -19.698  86.526  13.598  0.00  0.00    +0.250 C 
ATOM     25  N   LIG    1      -21.017  86.367  13.273  0.00  0.00    -0.306 N 
ATOM     26  H   LIG    1      -21.300  85.462  12.897  0.00  0.00    +0.150 HD
ATOM     27  O   LIG    1      -19.228  87.575  14.063  0.00  0.00    -0.270 OA
BRANCH  25  28
ATOM     28  C   LIG    1      -22.018  87.391  13.433  0.00  0.00    +0.032 C 
ATOM     29  C   LIG    1      -23.092  87.551  12.371  0.00  0.00    +0.027 C 
ATOM     30  C   LIG    1      -21.980  88.546  12.460  0.00  0.00    +0.027 C 
ATOM     31  C   LIG    1      -22.351  87.746  14.865  0.00  0.00    +0.031 C 
ENDBRANCH  25  28
ENDBRANCH   4  24
TORSDOF 4
ENDMDL
MODEL 3
REMARK VINA RESULT:      -5.4     20.939     23.156
REMARK  Name = pdb/CHEMBL3676099.pdb
REMARK                            x       y       z     vdW  Elec       q    Type
REMARK                         _______ _______ _______ _____ _____    ______ ____
ROOT
ATOM      1  C   LIG    1      -33.635  92.512  20.045  0.00  0.00    +0.126 A 
ATOM      2  N   LIG    1      -33.299  92.750  21.298  0.00  0.00    -0.212 NA
ATOM      3  C   LIG    1      -32.178  93.511  21.541  0.00  0.00    +0.170 A 
ATOM      4  C   LIG    1      -31.593  93.971  22.709  0.00  0.00    +0.100 A 
ATOM      5  C   LIG    1      -30.519  94.774  22.270  0.00  0.00    +0.150 A 
ATOM      6  N   LIG    1      -30.377  94.786  20.945  0.00  0.00    -0.173 NA
ATOM      7  N   LIG    1      -31.394  94.015  20.500  0.00  0.00    -0.221 N 
ATOM      8  C   LIG    1      -31.708  93.736  19.183  0.00  0.00    +0.118 A 
ATOM      9  C   LIG    1      -32.791  93.007  18.890  0.00  0.00    +0.063 A 
ENDROOT
BRANCH   1  11
ATOM     10  C   LIG    1      -35.369  91.704  18.409  0.00  0.00    +0.110 C 
ATOM     11  N   LIG    1      -34.804  91.807  19.773  0.00  0.00    -0.308 N 
ATOM     12  C   LIG    1      -35.836  91.523  20.769  0.00  0.00    +0.107 C 
ATOM     13  C   LIG    1      -37.150  91.633  20.010  0.00  0.00    +0.021 C 
ATOM     14  C   LIG    1      -36.782  91.135  18.632  0.00  0.00    +0.029 C 
BRANCH  10  19
ATOM     15  C   LIG    1      -33.786  90.595  13.810  0.00  0.00    +0.152 C 
ATOM     16  N   LIG    1      -33.964  90.213  15.201  0.00  0.00    -0.315 N 
ATOM     17  C   LIG    1      -34.623  91.104  16.052  0.00  0.00    +0.256 A 
ATOM     18  O   LIG    1      -35.187  92.124  15.662  0.00  0.00    -0.267 OA
ATOM     19  C   LIG    1      -34.618  90.753  17.517  0.00  0.00    +0.040 A 
ATOM     20  C   LIG    1      -34.002  89.623  17.910  0.00  0.00    +0.050 A 
ATOM     21  C   LIG    1      -33.413  88.729  16.954  0.00  0.00    +0.140 A 
ATOM     22  F   LIG    1      -32.836  87.599  17.403  0.00  0.00    -0.204 F 
ATOM     23  C   LIG    1      -33.419  89.025  15.653  0.00  0.00    +0.127 A 
ENDBRANCH  10  19
ENDBRANCH   1  11
BRANCH   4  24
ATOM     24  C   LIG    1      -31.966  93.741  24.089  0.00  0.00    +0.250 C 
ATOM     25  N   LIG    1      -33.141  93.065  24.278  0.00  0.00    -0.306 N 
ATOM     26  H   LIG    1      -33.658  92.785  23.446  0.00  0.00    +0.150 HD
ATOM     27  O   LIG    1      -31.245  94.136  25.017  0.00  0.00    -0.270 OA
BRANCH  25  28
ATOM     28  C   LIG    1      -33.678  92.727  25.571  0.00  0.00    +0.032 C 
ATOM     29  C   LIG    1      -35.171  92.870  25.814  0.00  0.00    +0.027 C 
ATOM     30  C   LIG    1      -34.224  93.862  26.406  0.00  0.00    +0.027 C 
ATOM     31  C   LIG    1      -32.917  91.661  26.326  0.00  0.00    +0.031 C 
ENDBRANCH  25  28
ENDBRANCH   4  24
TORSDOF 4
ENDMDL
MODEL 4
REMARK VINA RESULT:      -5.4     18.761     21.735
REMARK  Name = pdb/CHEMBL3676099.pdb
REMARK                            x       y       z     vdW  Elec       q    Type
REMARK                         _______ _______ _______ _____ _____    ______ ____
ROOT
ATOM      1  C   LIG    1      -22.806  85.501  12.431  0.00  0.00    +0.126 A 
ATOM      2  N   LIG    1      -23.135  84.358  13.002  0.00  0.00    -0.212 NA
ATOM      3  C   LIG    1      -23.664  83.361  12.214  0.00  0.00    +0.170 A 
ATOM      4  C   LIG    1      -24.060  82.063  12.487  0.00  0.00    +0.100 A 
ATOM      5  C   LIG    1      -24.424  81.536  11.230  0.00  0.00    +0.150 A 
ATOM      6  N   LIG    1      -24.335  82.424  10.241  0.00  0.00    -0.173 NA
ATOM      7  N   LIG    1      -23.867  83.540  10.844  0.00  0.00    -0.221 N 
ATOM      8  C   LIG    1      -23.569  84.747  10.239  0.00  0.00    +0.118 A 
ATOM      9  C   LIG    1      -23.047  85.747  10.957  0.00  0.00    +0.063 A 
ENDROOT
BRANCH   1  11
ATOM     10  C   LIG    1      -21.143  86.209  14.184  0.00  0.00    +0.110 C 
ATOM     11  N   LIG    1      -22.203  86.498  13.192  0.00  0.00    -0.308 N 
ATOM     12  C   LIG    1      -22.823  87.791  13.479  0.00  0.00    +0.107 C 
ATOM     13  C   LIG    1      -22.400  88.118  14.903  0.00  0.00    +0.021 C 
ATOM     14  C   LIG    1      -21.016  87.516  14.987  0.00  0.00    +0.029 C 
BRANCH  10  19
ATOM     15  C   LIG    1      -17.710  82.784  13.017  0.00  0.00    +0.152 C 
ATOM     16  N   LIG    1      -18.106  84.178  13.119  0.00  0.00    -0.315 N 
ATOM     17  C   LIG    1      -19.363  84.472  13.654  0.00  0.00    +0.256 A 
ATOM     18  O   LIG    1      -20.092  83.630  14.175  0.00  0.00    -0.267 OA
ATOM     19  C   LIG    1      -19.806  85.908  13.565  0.00  0.00    +0.040 A 
ATOM     20  C   LIG    1      -18.979  86.807  12.998  0.00  0.00    +0.050 A 
ATOM     21  C   LIG    1      -17.674  86.428  12.542  0.00  0.00    +0.140 A 
ATOM     22  F   LIG    1      -16.879  87.375  12.010  0.00  0.00    -0.204 F 
ATOM     23  C   LIG    1      -17.267  85.159  12.622  0.00  0.00    +0.127 A 
ENDBRANCH  10  19
ENDBRANCH   1  11
BRANCH   4  24
ATOM     24  C   LIG    1      -24.090  81.345  13.744  0.00  0.00    +0.250 C 
ATOM     25  N   LIG    1      -22.881  80.885  14.191  0.00  0.00    -0.306 N 
ATOM     26  H   LIG    1      -22.066  81.075  13.610  0.00  0.00    +0.150 HD
ATOM     27  O   LIG    1      -25.155  81.180  14.357  0.00  0.00    -0.270 OA
BRANCH  25  28
ATOM     28  C   LIG    1      -22.698  80.161  15.423  0.00  0.00    +0.032 C 
ATOM     29  C   LIG    1      -22.482  80.934  16.713  0.00  0.00    +0.027 C 
ATOM     30  C   LIG    1      -21.332  80.234  16.065  0.00  0.00    +0.027 C 
ATOM     31  C   LIG    1      -23.385  78.815  15.487  0.00  0.00    +0.031 C 
ENDBRANCH  25  28
ENDBRANCH   4  24
TORSDOF 4
ENDMDL
MODEL 5
REMARK VINA RESULT:      -5.1     19.013     21.817
REMARK  Name = pdb/CHEMBL3676099.pdb
REMARK                            x       y       z     vdW  Elec       q    Type
REMARK                         _______ _______ _______ _____ _____    ______ ____
ROOT
ATOM      1  C   LIG    1      -20.686  82.898  14.180  0.00  0.00    +0.126 A 
ATOM      2  N   LIG    1      -21.880  82.796  13.630  0.00  0.00    -0.212 NA
ATOM      3  C   LIG    1      -22.764  81.878  14.150  0.00  0.00    +0.170 A 
ATOM      4  C   LIG    1      -24.076  81.562  13.841  0.00  0.00    +0.100 A 
ATOM      5  C   LIG    1      -24.440  80.597  14.804  0.00  0.00    +0.150 A 
ATOM      6  N   LIG    1      -23.442  80.268  15.623  0.00  0.00    -0.173 NA
ATOM      7  N   LIG    1      -22.417  81.054  15.223  0.00  0.00    -0.221 N 
ATOM      8  C   LIG    1      -21.154  81.117  15.781  0.00  0.00    +0.118 A 
ATOM      9  C   LIG    1      -20.259  81.997  15.319  0.00  0.00    +0.063 A 
ENDROOT
BRANCH   1  11
ATOM     10  C   LIG    1      -20.212  84.938  12.783  0.00  0.00    +0.110 C 
ATOM     11  N   LIG    1      -19.801  83.869  13.720  0.00  0.00    -0.308 N 
ATOM     12  C   LIG    1      -18.349  83.696  13.682  0.00  0.00    +0.107 C 
ATOM     13  C   LIG    1      -17.906  84.404  12.411  0.00  0.00    +0.021 C 
ATOM     14  C   LIG    1      -18.882  85.554  12.311  0.00  0.00    +0.029 C 
BRANCH  10  19
ATOM     15  C   LIG    1      -23.484  88.661  12.220  0.00  0.00    +0.152 C 
ATOM     16  N   LIG    1      -22.559  87.921  13.062  0.00  0.00    -0.315 N 
ATOM     17  C   LIG    1      -21.826  86.881  12.485  0.00  0.00    +0.256 A 
ATOM     18  O   LIG    1      -21.810  86.650  11.277  0.00  0.00    -0.267 OA
ATOM     19  C   LIG    1      -21.026  86.025  13.431  0.00  0.00    +0.040 A 
ATOM     20  C   LIG    1      -21.056  86.311  14.746  0.00  0.00    +0.050 A 
ATOM     21  C   LIG    1      -21.780  87.445  15.241  0.00  0.00    +0.140 A 
ATOM     22  F   LIG    1      -21.750  87.700  16.562  0.00  0.00    -0.204 F 
ATOM     23  C   LIG    1      -22.486  88.216  14.411  0.00  0.00    +0.127 A 
ENDBRANCH  10  19
ENDBRANCH   1  11
BRANCH   4  24
ATOM     24  C   LIG    1      -24.939  82.085  12.802  0.00  0.00    +0.250 C 
ATOM     25  N   LIG    1      -24.639  83.347  12.366  0.00  0.00    -0.306 N 
ATOM     26  H   LIG    1      -23.848  83.817  12.803  0.00  0.00    +0.150 HD
ATOM     27  O   LIG    1      -25.875  81.408  12.352  0.00  0.00    -0.270 OA
BRANCH  25  28
ATOM     28  C   LIG    1      -25.367  84.038  11.333  0.00  0.00    +0.032 C 
ATOM     29  C   LIG    1      -25.609  85.532  11.469  0.00  0.00    +0.027 C 
ATOM     30  C   LIG    1      -26.733  84.573  11.697  0.00  0.00    +0.027 C 
ATOM     31  C   LIG    1      -25.240  83.445   9.948  0.00  0.00    +0.031 C 
ENDBRANCH  25  28
ENDBRANCH   4  24
TORSDOF 4
ENDMDL
MODEL 6
REMARK VINA RESULT:      -5.1      2.645      5.382
REMARK  Name = pdb/CHEMBL3676099.pdb
REMARK                            x       y       z     vdW  Elec       q    Type
REMARK                         _______ _______ _______ _____ _____    ______ ____
ROOT
ATOM      1  C   LIG    1      -25.737  76.789  34.029  0.00  0.00    +0.126 A 
ATOM      2  N   LIG    1      -24.536  76.878  33.490  0.00  0.00    -0.212 NA
ATOM      3  C   LIG    1      -24.439  77.000  32.123  0.00  0.00    +0.170 A 
ATOM      4  C   LIG    1      -23.359  77.158  31.271  0.00  0.00    +0.100 A 
ATOM      5  C   LIG    1      -23.940  77.314  29.994  0.00  0.00    +0.150 A 
ATOM      6  N   LIG    1      -25.267  77.206  30.003  0.00  0.00    -0.173 NA
ATOM      7  N   LIG    1      -25.572  77.017  31.307  0.00  0.00    -0.221 N 
ATOM      8  C   LIG    1      -26.835  76.879  31.852  0.00  0.00    +0.118 A 
ATOM      9  C   LIG    1      -26.987  76.764  33.175  0.00  0.00    +0.063 A 
ENDROOT
BRANCH   1  11
ATOM     10  C   LIG    1      -24.855  77.320  36.326  0.00  0.00    +0.110 C 
ATOM     11  N   LIG    1      -25.864  76.738  35.413  0.00  0.00    -0.308 N 
ATOM     12  C   LIG    1      -26.669  75.743  36.122  0.00  0.00    +0.107 C 
ATOM     13  C   LIG    1      -25.881  75.431  37.385  0.00  0.00    +0.021 C 
ATOM     14  C   LIG    1      -25.231  76.757  37.708  0.00  0.00    +0.029 C 
BRANCH  10  19
ATOM     15  C   LIG    1      -22.568  81.672  35.480  0.00  0.00    +0.152 C 
ATOM     16  N   LIG    1      -23.674  80.929  36.059  0.00  0.00    -0.315 N 
ATOM     17  C   LIG    1      -23.659  79.535  35.959  0.00  0.00    +0.256 A 
ATOM     18  O   LIG    1      -22.697  78.895  35.540  0.00  0.00    -0.267 OA
ATOM     19  C   LIG    1      -24.910  78.822  36.402  0.00  0.00    +0.040 A 
ATOM     20  C   LIG    1      -25.940  79.552  36.867  0.00  0.00    +0.050 A 
ATOM     21  C   LIG    1      -25.839  80.976  37.003  0.00  0.00    +0.140 A 
ATOM     22  F   LIG    1      -26.892  81.650  37.501  0.00  0.00    -0.204 F 
ATOM     23  C   LIG    1      -24.733  81.618  36.621  0.00  0.00    +0.127 A 
ENDBRANCH  10  19
ENDBRANCH   1  11
BRANCH   4  24
ATOM     24  C   LIG    1      -21.941  77.191  31.563  0.00  0.00    +0.250 C 
ATOM     25  N   LIG    1      -21.594  77.805  32.735  0.00  0.00    -0.306 N 
ATOM     26  H   LIG    1      -22.348  78.192  33.301  0.00  0.00    +0.150 HD
ATOM     27  O   LIG    1      -21.120  76.681  30.786  0.00  0.00    -0.270 OA
BRANCH  25  28
ATOM     28  C   LIG    1      -20.240  77.931  33.211  0.00  0.00    +0.032 C 
ATOM     29  C   LIG    1      -19.762  79.272  33.742  0.00  0.00    +0.027 C 
ATOM     30  C   LIG    1      -19.305  78.798  32.400  0.00  0.00    +0.027 C 
ATOM     31  C   LIG    1      -19.638  76.666  33.781  0.00  0.00    +0.031 C 
ENDBRANCH  25  28
ENDBRANCH   4  24
TORSDOF 4
ENDMDL
MODEL 7
REMARK VINA RESULT:      -5.1     19.437     22.731
REMARK  Name = pdb/CHEMBL3676099.pdb
REMARK                            x       y       z     vdW  Elec       q    Type
REMARK                         _______ _______ _______ _____ _____    ______ ____
ROOT
ATOM      1  C   LIG    1      -20.292  86.069  13.552  0.00  0.00    +0.126 A 
ATOM      2  N   LIG    1      -20.279  84.772  13.790  0.00  0.00    -0.212 NA
ATOM      3  C   LIG    1      -19.100  84.085  13.610  0.00  0.00    +0.170 A 
ATOM      4  C   LIG    1      -18.747  82.761  13.811  0.00  0.00    +0.100 A 
ATOM      5  C   LIG    1      -17.366  82.720  13.528  0.00  0.00    +0.150 A 
ATOM      6  N   LIG    1      -16.877  83.890  13.119  0.00  0.00    -0.173 NA
ATOM      7  N   LIG    1      -17.939  84.725  13.172  0.00  0.00    -0.221 N 
ATOM      8  C   LIG    1      -17.947  86.075  12.875  0.00  0.00    +0.118 A 
ATOM      9  C   LIG    1      -19.064  86.792  13.039  0.00  0.00    +0.063 A 
ENDROOT
BRANCH   1  11
ATOM     10  C   LIG    1      -22.128  87.590  12.744  0.00  0.00    +0.110 C 
ATOM     11  N   LIG    1      -21.451  86.799  13.796  0.00  0.00    -0.308 N 
ATOM     12  C   LIG    1      -21.852  87.274  15.120  0.00  0.00    +0.107 C 
ATOM     13  C   LIG    1      -22.483  88.636  14.870  0.00  0.00    +0.021 C 
ATOM     14  C   LIG    1      -23.136  88.458  13.518  0.00  0.00    +0.029 C 
BRANCH  10  19
ATOM     15  C   LIG    1      -22.423  85.710   8.133  0.00  0.00    +0.152 C 
ATOM     16  N   LIG    1      -23.030  85.946   9.431  0.00  0.00    -0.315 N 
ATOM     17  C   LIG    1      -22.312  86.690  10.372  0.00  0.00    +0.256 A 
ATOM     18  O   LIG    1      -21.263  87.277  10.116  0.00  0.00    -0.267 OA
ATOM     19  C   LIG    1      -22.895  86.748  11.760  0.00  0.00    +0.040 A 
ATOM     20  C   LIG    1      -24.051  86.105  12.005  0.00  0.00    +0.050 A 
ATOM     21  C   LIG    1      -24.757  85.425  10.957  0.00  0.00    +0.140 A 
ATOM     22  F   LIG    1      -25.923  84.823  11.255  0.00  0.00    -0.204 F 
ATOM     23  C   LIG    1      -24.255  85.373   9.722  0.00  0.00    +0.127 A 
ENDBRANCH  10  19
ENDBRANCH   1  11
BRANCH   4  24
ATOM     24  C   LIG    1      -19.555  81.639  14.241  0.00  0.00    +0.250 C 
ATOM     25  N   LIG    1      -20.747  81.960  14.831  0.00  0.00    -0.306 N 
ATOM     26  H   LIG    1      -20.968  82.950  14.928  0.00  0.00    +0.150 HD
ATOM     27  O   LIG    1      -19.169  80.473  14.064  0.00  0.00    -0.270 OA
BRANCH  25  28
ATOM     28  C   LIG    1      -21.696  80.990  15.314  0.00  0.00    +0.032 C 
ATOM     29  C   LIG    1      -22.305  81.171  16.694  0.00  0.00    +0.027 C 
ATOM     30  C   LIG    1      -21.262  80.124  16.473  0.00  0.00    +0.027 C 
ATOM     31  C   LIG    1      -22.512  80.300  14.244  0.00  0.00    +0.031 C 
ENDBRANCH  25  28
ENDBRANCH   4  24
TORSDOF 4
ENDMDL
MODEL 8
REMARK VINA RESULT:      -5.1      2.482      6.863
REMARK  Name = pdb/CHEMBL3676099.pdb
REMARK                            x       y       z     vdW  Elec       q    Type
REMARK                         _______ _______ _______ _____ _____    ______ ____
ROOT
ATOM      1  C   LIG    1      -21.487  77.622  31.640  0.00  0.00    +0.126 A 
ATOM      2  N   LIG    1      -20.957  78.098  32.750  0.00  0.00    -0.212 NA
ATOM      3  C   LIG    1      -19.586  78.167  32.843  0.00  0.00    +0.170 A 
ATOM      4  C   LIG    1      -18.736  78.645  33.826  0.00  0.00    +0.100 A 
ATOM      5  C   LIG    1      -17.447  78.514  33.270  0.00  0.00    +0.150 A 
ATOM      6  N   LIG    1      -17.448  77.945  32.065  0.00  0.00    -0.173 NA
ATOM      7  N   LIG    1      -18.758  77.736  31.803  0.00  0.00    -0.221 N 
ATOM      8  C   LIG    1      -19.298  77.193  30.652  0.00  0.00    +0.118 A 
ATOM      9  C   LIG    1      -20.624  77.109  30.507  0.00  0.00    +0.063 A 
ENDROOT
BRANCH   1  11
ATOM     10  C   LIG    1      -23.759  76.845  32.398  0.00  0.00    +0.110 C 
ATOM     11  N   LIG    1      -22.871  77.609  31.493  0.00  0.00    -0.308 N 
ATOM     12  C   LIG    1      -23.560  77.895  30.235  0.00  0.00    +0.107 C 
ATOM     13  C   LIG    1      -24.752  76.951  30.220  0.00  0.00    +0.021 C 
ATOM     14  C   LIG    1      -25.122  76.857  31.683  0.00  0.00    +0.029 C 
BRANCH  10  19
ATOM     15  C   LIG    1      -23.804  76.286  37.354  0.00  0.00    +0.152 C 
ATOM     16  N   LIG    1      -24.050  77.111  36.184  0.00  0.00    -0.315 N 
ATOM     17  C   LIG    1      -23.851  76.544  34.921  0.00  0.00    +0.256 A 
ATOM     18  O   LIG    1      -23.621  75.350  34.742  0.00  0.00    -0.267 OA
ATOM     19  C   LIG    1      -23.934  77.485  33.749  0.00  0.00    +0.040 A 
ATOM     20  C   LIG    1      -24.199  78.784  33.978  0.00  0.00    +0.050 A 
ATOM     21  C   LIG    1      -24.461  79.264  35.303  0.00  0.00    +0.140 A 
ATOM     22  F   LIG    1      -24.750  80.568  35.469  0.00  0.00    -0.204 F 
ATOM     23  C   LIG    1      -24.399  78.438  36.350  0.00  0.00    +0.127 A 
ENDBRANCH  10  19
ENDBRANCH   1  11
BRANCH   4  24
ATOM     24  C   LIG    1      -19.041  79.193  35.132  0.00  0.00    +0.250 C 
ATOM     25  N   LIG    1      -20.319  79.653  35.296  0.00  0.00    -0.306 N 
ATOM     26  H   LIG    1      -20.948  79.581  34.497  0.00  0.00    +0.150 HD
ATOM     27  O   LIG    1      -18.181  79.224  36.025  0.00  0.00    -0.270 OA
BRANCH  25  28
ATOM     28  C   LIG    1      -20.822  80.221  36.520  0.00  0.00    +0.032 C 
ATOM     29  C   LIG    1      -21.663  81.485  36.461  0.00  0.00    +0.027 C 
ATOM     30  C   LIG    1      -20.250  81.554  36.943  0.00  0.00    +0.027 C 
ATOM     31  C   LIG    1      -21.075  79.230  37.634  0.00  0.00    +0.031 C 
ENDBRANCH  25  28
ENDBRANCH   4  24
TORSDOF 4
ENDMDL
MODEL 9
REMARK VINA RESULT:      -5.1     17.297     21.261
REMARK  Name = pdb/CHEMBL3676099.pdb
REMARK                            x       y       z     vdW  Elec       q    Type
REMARK                         _______ _______ _______ _____ _____    ______ ____
ROOT
ATOM      1  C   LIG    1      -36.970  68.690  22.952  0.00  0.00    +0.126 A 
ATOM      2  N   LIG    1      -37.148  69.726  23.748  0.00  0.00    -0.212 NA
ATOM      3  C   LIG    1      -36.273  69.905  24.795  0.00  0.00    +0.170 A 
ATOM      4  C   LIG    1      -36.157  70.890  25.762  0.00  0.00    +0.100 A 
ATOM      5  C   LIG    1      -34.996  70.538  26.482  0.00  0.00    +0.150 A 
ATOM      6  N   LIG    1      -34.443  69.400  26.068  0.00  0.00    -0.173 NA
ATOM      7  N   LIG    1      -35.224  69.014  25.033  0.00  0.00    -0.221 N 
ATOM      8  C   LIG    1      -35.051  67.899  24.235  0.00  0.00    +0.118 A 
ATOM      9  C   LIG    1      -35.869  67.681  23.200  0.00  0.00    +0.063 A 
ENDROOT
BRANCH   1  11
ATOM     10  C   LIG    1      -39.171  67.986  21.953  0.00  0.00    +0.110 C 
ATOM     11  N   LIG    1      -37.798  68.527  21.845  0.00  0.00    -0.308 N 
ATOM     12  C   LIG    1      -37.308  68.388  20.474  0.00  0.00    +0.107 C 
ATOM     13  C   LIG    1      -38.251  67.388  19.823  0.00  0.00    +0.021 C 
ATOM     14  C   LIG    1      -39.571  67.687  20.497  0.00  0.00    +0.029 C 
BRANCH  10  19
ATOM     15  C   LIG    1      -42.006  69.368  25.818  0.00  0.00    +0.152 C 
ATOM     16  N   LIG    1      -41.619  69.528  24.426  0.00  0.00    -0.315 N 
ATOM     17  C   LIG    1      -40.669  68.649  23.898  0.00  0.00    +0.256 A 
ATOM     18  O   LIG    1      -40.249  67.662  24.500  0.00  0.00    -0.267 OA
ATOM     19  C   LIG    1      -40.162  68.968  22.517  0.00  0.00    +0.040 A 
ATOM     20  C   LIG    1      -40.650  70.049  21.881  0.00  0.00    +0.050 A 
ATOM     21  C   LIG    1      -41.680  70.854  22.472  0.00  0.00    +0.140 A 
ATOM     22  F   LIG    1      -42.151  71.906  21.778  0.00  0.00    -0.204 F 
ATOM     23  C   LIG    1      -42.143  70.576  23.693  0.00  0.00    +0.127 A 
ENDBRANCH  10  19
ENDBRANCH   1  11
BRANCH   4  24
ATOM     24  C   LIG    1      -36.985  72.052  26.009  0.00  0.00    +0.250 C 
ATOM     25  N   LIG    1      -37.658  72.540  24.922  0.00  0.00    -0.306 N 
ATOM     26  H   LIG    1      -37.521  72.059  24.034  0.00  0.00    +0.150 HD
ATOM     27  O   LIG    1      -37.065  72.545  27.144  0.00  0.00    -0.270 OA
BRANCH  25  28
ATOM     28  C   LIG    1      -38.541  73.677  24.963  0.00  0.00    +0.032 C 
ATOM     29  C   LIG    1      -39.937  73.513  25.538  0.00  0.00    +0.027 C 
ATOM     30  C   LIG    1      -39.752  73.638  24.060  0.00  0.00    +0.027 C 
ATOM     31  C   LIG    1      -37.855  75.019  25.089  0.00  0.00    +0.031 C 
ENDBRANCH  25  28
ENDBRANCH   4  24
TORSDOF 4
ENDMDL
