MODEL 1
REMARK VINA RESULT:      -5.9      0.000      0.000
REMARK  Name = pdb/CHEMBL3671469.pdb
REMARK                            x       y       z     vdW  Elec       q    Type
REMARK                         _______ _______ _______ _____ _____    ______ ____
ROOT
ATOM      1  C   LIG    1      -24.219  85.040  10.482  0.00  0.00    +0.042 A 
ATOM      2  C   LIG    1      -24.411  84.038  11.443  0.00  0.00    +0.038 A 
ATOM      3  C   LIG    1      -25.680  83.501  11.661  0.00  0.00    +0.052 A 
ATOM      4  C   LIG    1      -26.728  84.032  10.915  0.00  0.00    +0.134 A 
ATOM      5  N   LIG    1      -26.582  85.040  10.014  0.00  0.00    -0.261 NA
ATOM      6  C   LIG    1      -25.333  85.530   9.823  0.00  0.00    +0.122 A 
ENDROOT
BRANCH   3   7
ATOM      7  N   LIG    1      -25.783  82.460  12.609  0.00  0.00    -0.283 N 
ATOM      8  H   LIG    1      -26.111  82.721  13.534  0.00  0.00    +0.155 HD
ATOM      9  C   LIG    1      -25.459  81.129  12.404  0.00  0.00    +0.239 C 
ATOM     10  O   LIG    1      -25.039  80.656  11.352  0.00  0.00    -0.273 OA
BRANCH   9  11
ATOM     11  C   LIG    1      -25.636  80.264  13.631  0.00  0.00    +0.239 C 
BRANCH  11  12
ATOM     12  N   LIG    1      -24.536  80.415  14.567  0.00  0.00    -0.262 N 
ATOM     13  N   LIG    1      -24.043  81.650  14.798  0.00  0.00    -0.167 NA
ATOM     14  C   LIG    1      -23.095  81.465  15.743  0.00  0.00    +0.165 A 
ATOM     15  C   LIG    1      -22.969  80.086  16.060  0.00  0.00    +0.053 A 
ATOM     16  C   LIG    1      -23.910  79.445  15.293  0.00  0.00    +0.109 A 
BRANCH  14  17
ATOM     17  C   LIG    1      -22.302  82.595  16.346  0.00  0.00    +0.436 C 
ATOM     18  F   LIG    1      -20.971  82.324  16.408  0.00  0.00    -0.164 F 
ATOM     19  F   LIG    1      -22.708  82.898  17.608  0.00  0.00    -0.164 F 
ATOM     20  F   LIG    1      -22.426  83.742  15.619  0.00  0.00    -0.164 F 
ENDBRANCH  14  17
ENDBRANCH  11  12
ENDBRANCH   9  11
ENDBRANCH   3   7
BRANCH   1  21
ATOM     21  C   LIG    1      -22.871  85.579  10.155  0.00  0.00    +0.197 C 
ATOM     22  O   LIG    1      -22.637  85.971   9.022  0.00  0.00    -0.287 OA
BRANCH  21  28
ATOM     23  C   LIG    1      -21.449  87.126  14.998  0.00  0.00    +0.214 A 
ATOM     24  N   LIG    1      -20.503  86.365  14.447  0.00  0.00    -0.197 NA
ATOM     25  C   LIG    1      -20.785  85.993  13.188  0.00  0.00    +0.147 A 
ATOM     26  N   LIG    1      -19.990  85.241  12.369  0.00  0.00    -0.325 N 
ATOM     27  C   LIG    1      -20.624  85.004  11.182  0.00  0.00    +0.100 A 
ATOM     28  C   LIG    1      -21.867  85.622  11.218  0.00  0.00    +0.051 A 
ATOM     29  C   LIG    1      -21.942  86.296  12.481  0.00  0.00    +0.048 A 
ATOM     30  C   LIG    1      -22.858  87.103  13.150  0.00  0.00    +0.126 A 
ATOM     31  N   LIG    1      -22.598  87.502  14.419  0.00  0.00    -0.222 NA
BRANCH  26  32
ATOM     32  C   LIG    1      -18.735  84.725  12.695  0.00  0.00    +0.048 C 
ATOM     33  C   LIG    1      -18.411  83.514  13.638  0.00  0.00    +0.032 C 
ATOM     34  C   LIG    1      -17.052  83.908  12.864  0.00  0.00    -0.004 C 
ATOM     35  C   LIG    1      -17.377  85.486  12.813  0.00  0.00    +0.032 C 
ATOM     36  C   LIG    1      -17.991  83.870  11.602  0.00  0.00    +0.032 C 
ENDBRANCH  26  32
BRANCH  23  37
ATOM     37  N   LIG    1      -21.262  87.503  16.314  0.00  0.00    -0.327 N 
ATOM     38  H   LIG    1      -22.037  88.078  16.616  0.00  0.00    +0.145 HD
ATOM     39  H   LIG    1      -20.335  87.890  16.418  0.00  0.00    +0.145 HD
ENDBRANCH  23  37
ENDBRANCH  21  28
ENDBRANCH   1  21
TORSDOF 8
ENDMDL
MODEL 2
REMARK VINA RESULT:      -5.9      1.318      1.408
REMARK  Name = pdb/CHEMBL3671469.pdb
REMARK                            x       y       z     vdW  Elec       q    Type
REMARK                         _______ _______ _______ _____ _____    ______ ____
ROOT
ATOM      1  C   LIG    1      -24.598  86.725  10.785  0.00  0.00    +0.042 A 
ATOM      2  C   LIG    1      -24.668  85.536  11.525  0.00  0.00    +0.038 A 
ATOM      3  C   LIG    1      -25.846  84.790  11.556  0.00  0.00    +0.052 A 
ATOM      4  C   LIG    1      -26.936  85.300  10.858  0.00  0.00    +0.134 A 
ATOM      5  N   LIG    1      -26.915  86.475  10.175  0.00  0.00    -0.261 NA
ATOM      6  C   LIG    1      -25.751  87.168  10.161  0.00  0.00    +0.122 A 
ENDROOT
BRANCH   3   7
ATOM      7  N   LIG    1      -25.821  83.578  12.282  0.00  0.00    -0.283 N 
ATOM      8  H   LIG    1      -26.019  83.643  13.276  0.00  0.00    +0.155 HD
ATOM      9  C   LIG    1      -25.529  82.323  11.774  0.00  0.00    +0.239 C 
ATOM     10  O   LIG    1      -25.256  82.079  10.602  0.00  0.00    -0.273 OA
BRANCH   9  11
ATOM     11  C   LIG    1      -25.538  81.228  12.816  0.00  0.00    +0.239 C 
BRANCH  11  12
ATOM     12  N   LIG    1      -24.268  81.128  13.512  0.00  0.00    -0.262 N 
ATOM     13  N   LIG    1      -24.112  81.786  14.679  0.00  0.00    -0.167 NA
ATOM     14  C   LIG    1      -22.873  81.445  15.097  0.00  0.00    +0.165 A 
ATOM     15  C   LIG    1      -22.239  80.603  14.144  0.00  0.00    +0.053 A 
ATOM     16  C   LIG    1      -23.163  80.418  13.146  0.00  0.00    +0.109 A 
BRANCH  14  17
ATOM     17  C   LIG    1      -22.284  81.918  16.400  0.00  0.00    +0.436 C 
ATOM     18  F   LIG    1      -20.938  82.101  16.329  0.00  0.00    -0.164 F 
ATOM     19  F   LIG    1      -22.517  81.051  17.421  0.00  0.00    -0.164 F 
ATOM     20  F   LIG    1      -22.813  83.115  16.787  0.00  0.00    -0.164 F 
ENDBRANCH  14  17
ENDBRANCH  11  12
ENDBRANCH   9  11
ENDBRANCH   3   7
BRANCH   1  21
ATOM     21  C   LIG    1      -23.339  87.505  10.653  0.00  0.00    +0.197 C 
ATOM     22  O   LIG    1      -23.257  88.378   9.802  0.00  0.00    -0.287 OA
BRANCH  21  28
ATOM     23  C   LIG    1      -21.326  87.551  15.533  0.00  0.00    +0.214 A 
ATOM     24  N   LIG    1      -20.503  86.929  14.687  0.00  0.00    -0.197 NA
ATOM     25  C   LIG    1      -20.938  86.941  13.417  0.00  0.00    +0.147 A 
ATOM     26  N   LIG    1      -20.291  86.411  12.335  0.00  0.00    -0.325 N 
ATOM     27  C   LIG    1      -21.056  86.551  11.212  0.00  0.00    +0.100 A 
ATOM     28  C   LIG    1      -22.234  87.196  11.561  0.00  0.00    +0.051 A 
ATOM     29  C   LIG    1      -22.130  87.490  12.961  0.00  0.00    +0.048 A 
ATOM     30  C   LIG    1      -22.907  88.121  13.928  0.00  0.00    +0.126 A 
ATOM     31  N   LIG    1      -22.491  88.133  15.219  0.00  0.00    -0.222 NA
BRANCH  26  32
ATOM     32  C   LIG    1      -19.056  85.762  12.357  0.00  0.00    +0.048 C 
ATOM     33  C   LIG    1      -18.668  84.466  13.152  0.00  0.00    +0.032 C 
ATOM     34  C   LIG    1      -17.470  84.784  12.120  0.00  0.00    -0.004 C 
ATOM     35  C   LIG    1      -17.632  86.385  12.212  0.00  0.00    +0.032 C 
ATOM     36  C   LIG    1      -18.653  84.916  11.091  0.00  0.00    +0.032 C 
ENDBRANCH  26  32
BRANCH  23  37
ATOM     37  N   LIG    1      -20.980  87.532  16.871  0.00  0.00    -0.327 N 
ATOM     38  H   LIG    1      -20.846  86.577  17.173  0.00  0.00    +0.145 HD
ATOM     39  H   LIG    1      -21.641  88.090  17.391  0.00  0.00    +0.145 HD
ENDBRANCH  23  37
ENDBRANCH  21  28
ENDBRANCH   1  21
TORSDOF 8
ENDMDL
MODEL 3
REMARK VINA RESULT:      -5.7     18.332     20.358
REMARK  Name = pdb/CHEMBL3671469.pdb
REMARK                            x       y       z     vdW  Elec       q    Type
REMARK                         _______ _______ _______ _____ _____    ______ ____
ROOT
ATOM      1  C   LIG    1      -39.694  79.415  25.442  0.00  0.00    +0.042 A 
ATOM      2  C   LIG    1      -38.674  78.658  26.035  0.00  0.00    +0.038 A 
ATOM      3  C   LIG    1      -38.255  77.459  25.458  0.00  0.00    +0.052 A 
ATOM      4  C   LIG    1      -38.919  77.047  24.307  0.00  0.00    +0.134 A 
ATOM      5  N   LIG    1      -39.946  77.732  23.737  0.00  0.00    -0.261 NA
ATOM      6  C   LIG    1      -40.319  78.896  24.322  0.00  0.00    +0.122 A 
ENDROOT
BRANCH   3   7
ATOM      7  N   LIG    1      -37.188  76.781  26.087  0.00  0.00    -0.283 N 
ATOM      8  H   LIG    1      -36.254  77.010  25.764  0.00  0.00    +0.155 HD
ATOM      9  C   LIG    1      -37.298  75.822  27.081  0.00  0.00    +0.239 C 
ATOM     10  O   LIG    1      -38.352  75.426  27.569  0.00  0.00    -0.273 OA
BRANCH   9  11
ATOM     11  C   LIG    1      -35.971  75.246  27.519  0.00  0.00    +0.239 C 
BRANCH  11  12
ATOM     12  N   LIG    1      -35.047  76.277  27.953  0.00  0.00    -0.262 N 
ATOM     13  N   LIG    1      -34.343  76.954  27.021  0.00  0.00    -0.167 NA
ATOM     14  C   LIG    1      -33.640  77.869  27.726  0.00  0.00    +0.165 A 
ATOM     15  C   LIG    1      -33.878  77.716  29.118  0.00  0.00    +0.053 A 
ATOM     16  C   LIG    1      -34.786  76.693  29.225  0.00  0.00    +0.109 A 
BRANCH  14  17
ATOM     17  C   LIG    1      -32.737  78.888  27.082  0.00  0.00    +0.436 C 
ATOM     18  F   LIG    1      -31.592  79.090  27.786  0.00  0.00    -0.164 F 
ATOM     19  F   LIG    1      -33.338  80.098  26.939  0.00  0.00    -0.164 F 
ATOM     20  F   LIG    1      -32.354  78.502  25.831  0.00  0.00    -0.164 F 
ENDBRANCH  14  17
ENDBRANCH  11  12
ENDBRANCH   9  11
ENDBRANCH   3   7
BRANCH   1  21
ATOM     21  C   LIG    1      -40.112  80.740  25.973  0.00  0.00    +0.197 C 
ATOM     22  O   LIG    1      -40.901  80.795  26.904  0.00  0.00    -0.287 OA
BRANCH  21  28
ATOM     23  C   LIG    1      -36.171  84.233  25.590  0.00  0.00    +0.214 A 
ATOM     24  N   LIG    1      -37.114  84.481  24.680  0.00  0.00    -0.197 NA
ATOM     25  C   LIG    1      -38.171  83.658  24.772  0.00  0.00    +0.147 A 
ATOM     26  N   LIG    1      -39.296  83.697  23.995  0.00  0.00    -0.325 N 
ATOM     27  C   LIG    1      -40.135  82.671  24.328  0.00  0.00    +0.100 A 
ATOM     28  C   LIG    1      -39.551  81.941  25.354  0.00  0.00    +0.051 A 
ATOM     29  C   LIG    1      -38.322  82.609  25.670  0.00  0.00    +0.048 A 
ATOM     30  C   LIG    1      -37.281  82.446  26.580  0.00  0.00    +0.126 A 
ATOM     31  N   LIG    1      -36.202  83.266  26.518  0.00  0.00    -0.222 NA
BRANCH  26  32
ATOM     32  C   LIG    1      -39.549  84.603  22.964  0.00  0.00    +0.048 C 
ATOM     33  C   LIG    1      -39.353  84.381  21.424  0.00  0.00    +0.032 C 
ATOM     34  C   LIG    1      -40.174  85.756  21.621  0.00  0.00    -0.004 C 
ATOM     35  C   LIG    1      -39.436  86.159  22.996  0.00  0.00    +0.032 C 
ATOM     36  C   LIG    1      -41.051  84.867  22.577  0.00  0.00    +0.032 C 
ENDBRANCH  26  32
BRANCH  23  37
ATOM     37  N   LIG    1      -35.022  84.998  25.526  0.00  0.00    -0.327 N 
ATOM     38  H   LIG    1      -34.838  85.409  26.430  0.00  0.00    +0.145 HD
ATOM     39  H   LIG    1      -35.088  85.627  24.739  0.00  0.00    +0.145 HD
ENDBRANCH  23  37
ENDBRANCH  21  28
ENDBRANCH   1  21
TORSDOF 8
ENDMDL
MODEL 4
REMARK VINA RESULT:      -5.7     22.672     24.083
REMARK  Name = pdb/CHEMBL3671469.pdb
REMARK                            x       y       z     vdW  Elec       q    Type
REMARK                         _______ _______ _______ _____ _____    ______ ____
ROOT
ATOM      1  C   LIG    1      -37.732  72.871  25.860  0.00  0.00    +0.042 A 
ATOM      2  C   LIG    1      -37.177  71.668  25.402  0.00  0.00    +0.038 A 
ATOM      3  C   LIG    1      -36.675  70.731  26.305  0.00  0.00    +0.052 A 
ATOM      4  C   LIG    1      -36.720  71.067  27.654  0.00  0.00    +0.134 A 
ATOM      5  N   LIG    1      -37.204  72.247  28.126  0.00  0.00    -0.261 NA
ATOM      6  C   LIG    1      -37.690  73.128  27.219  0.00  0.00    +0.122 A 
ENDROOT
BRANCH   3   7
ATOM      7  N   LIG    1      -36.180  69.522  25.768  0.00  0.00    -0.283 N 
ATOM      8  H   LIG    1      -36.817  68.732  25.771  0.00  0.00    +0.155 HD
ATOM      9  C   LIG    1      -34.906  69.309  25.265  0.00  0.00    +0.239 C 
ATOM     10  O   LIG    1      -34.018  70.154  25.204  0.00  0.00    -0.273 OA
BRANCH   9  11
ATOM     11  C   LIG    1      -34.664  67.890  24.805  0.00  0.00    +0.239 C 
BRANCH  11  12
ATOM     12  N   LIG    1      -35.186  67.654  23.471  0.00  0.00    -0.262 N 
ATOM     13  N   LIG    1      -36.305  68.301  23.085  0.00  0.00    -0.167 NA
ATOM     14  C   LIG    1      -36.488  67.925  21.800  0.00  0.00    +0.165 A 
ATOM     15  C   LIG    1      -35.492  66.992  21.407  0.00  0.00    +0.053 A 
ATOM     16  C   LIG    1      -34.674  66.846  22.499  0.00  0.00    +0.109 A 
BRANCH  14  17
ATOM     17  C   LIG    1      -37.610  68.448  20.941  0.00  0.00    +0.436 C 
ATOM     18  F   LIG    1      -38.529  67.491  20.645  0.00  0.00    -0.164 F 
ATOM     19  F   LIG    1      -37.167  68.957  19.761  0.00  0.00    -0.164 F 
ATOM     20  F   LIG    1      -38.291  69.454  21.560  0.00  0.00    -0.164 F 
ENDBRANCH  14  17
ENDBRANCH  11  12
ENDBRANCH   9  11
ENDBRANCH   3   7
BRANCH   1  21
ATOM     21  C   LIG    1      -38.357  73.859  24.940  0.00  0.00    +0.197 C 
ATOM     22  O   LIG    1      -37.814  74.937  24.752  0.00  0.00    -0.287 OA
BRANCH  21  28
ATOM     23  C   LIG    1      -42.927  75.332  22.744  0.00  0.00    +0.214 A 
ATOM     24  N   LIG    1      -42.754  74.013  22.638  0.00  0.00    -0.197 NA
ATOM     25  C   LIG    1      -41.634  73.575  23.235  0.00  0.00    +0.147 A 
ATOM     26  N   LIG    1      -41.215  72.275  23.313  0.00  0.00    -0.325 N 
ATOM     27  C   LIG    1      -40.002  72.207  23.937  0.00  0.00    +0.100 A 
ATOM     28  C   LIG    1      -39.614  73.494  24.284  0.00  0.00    +0.051 A 
ATOM     29  C   LIG    1      -40.685  74.357  23.881  0.00  0.00    +0.048 A 
ATOM     30  C   LIG    1      -40.971  75.718  23.940  0.00  0.00    +0.126 A 
ATOM     31  N   LIG    1      -42.099  76.192  23.353  0.00  0.00    -0.222 NA
BRANCH  26  32
ATOM     32  C   LIG    1      -41.881  71.167  22.787  0.00  0.00    +0.048 C 
ATOM     33  C   LIG    1      -41.950  70.714  21.287  0.00  0.00    +0.032 C 
ATOM     34  C   LIG    1      -42.551  69.519  22.188  0.00  0.00    -0.004 C 
ATOM     35  C   LIG    1      -43.192  70.495  23.299  0.00  0.00    +0.032 C 
ATOM     36  C   LIG    1      -41.237  69.750  23.022  0.00  0.00    +0.032 C 
ENDBRANCH  26  32
BRANCH  23  37
ATOM     37  N   LIG    1      -44.027  75.872  22.106  0.00  0.00    -0.327 N 
ATOM     38  H   LIG    1      -43.730  76.359  21.272  0.00  0.00    +0.145 HD
ATOM     39  H   LIG    1      -44.572  76.398  22.775  0.00  0.00    +0.145 HD
ENDBRANCH  23  37
ENDBRANCH  21  28
ENDBRANCH   1  21
TORSDOF 8
ENDMDL
MODEL 5
REMARK VINA RESULT:      -5.6     19.250     22.563
REMARK  Name = pdb/CHEMBL3671469.pdb
REMARK                            x       y       z     vdW  Elec       q    Type
REMARK                         _______ _______ _______ _____ _____    ______ ____
ROOT
ATOM      1  C   LIG    1      -33.981  72.281  29.147  0.00  0.00    +0.042 A 
ATOM      2  C   LIG    1      -34.528  71.796  27.951  0.00  0.00    +0.038 A 
ATOM      3  C   LIG    1      -34.128  70.562  27.439  0.00  0.00    +0.052 A 
ATOM      4  C   LIG    1      -33.149  69.871  28.146  0.00  0.00    +0.134 A 
ATOM      5  N   LIG    1      -32.562  70.338  29.280  0.00  0.00    -0.261 NA
ATOM      6  C   LIG    1      -32.983  71.537  29.752  0.00  0.00    +0.122 A 
ENDROOT
BRANCH   3   7
ATOM      7  N   LIG    1      -34.762  70.120  26.256  0.00  0.00    -0.283 N 
ATOM      8  H   LIG    1      -34.469  70.566  25.393  0.00  0.00    +0.155 HD
ATOM      9  C   LIG    1      -35.757  69.161  26.169  0.00  0.00    +0.239 C 
ATOM     10  O   LIG    1      -36.230  68.542  27.118  0.00  0.00    -0.273 OA
BRANCH   9  11
ATOM     11  C   LIG    1      -36.268  68.941  24.763  0.00  0.00    +0.239 C 
BRANCH  11  12
ATOM     12  N   LIG    1      -37.438  69.750  24.476  0.00  0.00    -0.262 N 
ATOM     13  N   LIG    1      -37.456  71.037  24.882  0.00  0.00    -0.167 NA
ATOM     14  C   LIG    1      -38.627  71.524  24.415  0.00  0.00    +0.165 A 
ATOM     15  C   LIG    1      -39.363  70.504  23.755  0.00  0.00    +0.053 A 
ATOM     16  C   LIG    1      -38.570  69.385  23.809  0.00  0.00    +0.109 A 
BRANCH  14  17
ATOM     17  C   LIG    1      -39.053  72.958  24.597  0.00  0.00    +0.436 C 
ATOM     18  F   LIG    1      -38.002  73.819  24.591  0.00  0.00    -0.164 F 
ATOM     19  F   LIG    1      -39.727  73.155  25.761  0.00  0.00    -0.164 F 
ATOM     20  F   LIG    1      -39.888  73.365  23.598  0.00  0.00    -0.164 F 
ENDBRANCH  14  17
ENDBRANCH  11  12
ENDBRANCH   9  11
ENDBRANCH   3   7
BRANCH   1  21
ATOM     21  C   LIG    1      -34.441  73.548  29.775  0.00  0.00    +0.197 C 
ATOM     22  O   LIG    1      -34.539  73.619  30.991  0.00  0.00    -0.287 OA
BRANCH  21  28
ATOM     23  C   LIG    1      -32.833  77.771  27.045  0.00  0.00    +0.214 A 
ATOM     24  N   LIG    1      -34.132  77.542  26.842  0.00  0.00    -0.197 NA
ATOM     25  C   LIG    1      -34.609  76.514  27.562  0.00  0.00    +0.147 A 
ATOM     26  N   LIG    1      -35.903  76.072  27.581  0.00  0.00    -0.325 N 
ATOM     27  C   LIG    1      -36.012  74.968  28.377  0.00  0.00    +0.100 A 
ATOM     28  C   LIG    1      -34.760  74.678  28.901  0.00  0.00    +0.051 A 
ATOM     29  C   LIG    1      -33.878  75.701  28.419  0.00  0.00    +0.048 A 
ATOM     30  C   LIG    1      -32.534  76.035  28.561  0.00  0.00    +0.126 A 
ATOM     31  N   LIG    1      -32.024  77.073  27.854  0.00  0.00    -0.222 NA
BRANCH  26  32
ATOM     32  C   LIG    1      -36.964  76.615  26.855  0.00  0.00    +0.048 C 
ATOM     33  C   LIG    1      -37.264  76.446  25.325  0.00  0.00    +0.032 C 
ATOM     34  C   LIG    1      -38.556  77.132  26.005  0.00  0.00    -0.004 C 
ATOM     35  C   LIG    1      -37.710  77.964  27.095  0.00  0.00    +0.032 C 
ATOM     36  C   LIG    1      -38.386  75.966  27.046  0.00  0.00    +0.032 C 
ENDBRANCH  26  32
BRANCH  23  37
ATOM     37  N   LIG    1      -32.250  78.776  26.297  0.00  0.00    -0.327 N 
ATOM     38  H   LIG    1      -32.930  79.160  25.656  0.00  0.00    +0.145 HD
ATOM     39  H   LIG    1      -31.386  78.434  25.900  0.00  0.00    +0.145 HD
ENDBRANCH  23  37
ENDBRANCH  21  28
ENDBRANCH   1  21
TORSDOF 8
ENDMDL
MODEL 6
REMARK VINA RESULT:      -5.6     18.900     20.633
REMARK  Name = pdb/CHEMBL3671469.pdb
REMARK                            x       y       z     vdW  Elec       q    Type
REMARK                         _______ _______ _______ _____ _____    ______ ____
ROOT
ATOM      1  C   LIG    1      -39.084  77.828  25.976  0.00  0.00    +0.042 A 
ATOM      2  C   LIG    1      -39.010  78.967  25.162  0.00  0.00    +0.038 A 
ATOM      3  C   LIG    1      -39.532  78.947  23.868  0.00  0.00    +0.052 A 
ATOM      4  C   LIG    1      -40.084  77.748  23.428  0.00  0.00    +0.134 A 
ATOM      5  N   LIG    1      -40.124  76.612  24.175  0.00  0.00    -0.261 NA
ATOM      6  C   LIG    1      -39.614  76.673  25.429  0.00  0.00    +0.122 A 
ENDROOT
BRANCH   3   7
ATOM      7  N   LIG    1      -39.465  80.148  23.129  0.00  0.00    -0.283 N 
ATOM      8  H   LIG    1      -38.690  80.236  22.479  0.00  0.00    +0.155 HD
ATOM      9  C   LIG    1      -40.337  81.220  23.225  0.00  0.00    +0.239 C 
ATOM     10  O   LIG    1      -41.312  81.276  23.968  0.00  0.00    -0.273 OA
BRANCH   9  11
ATOM     11  C   LIG    1      -39.971  82.384  22.332  0.00  0.00    +0.239 C 
BRANCH  11  12
ATOM     12  N   LIG    1      -39.171  83.374  23.029  0.00  0.00    -0.262 N 
ATOM     13  N   LIG    1      -38.315  82.962  23.988  0.00  0.00    -0.167 NA
ATOM     14  C   LIG    1      -37.687  84.090  24.389  0.00  0.00    +0.165 A 
ATOM     15  C   LIG    1      -38.203  85.220  23.700  0.00  0.00    +0.053 A 
ATOM     16  C   LIG    1      -39.146  84.723  22.835  0.00  0.00    +0.109 A 
BRANCH  14  17
ATOM     17  C   LIG    1      -36.598  84.100  25.430  0.00  0.00    +0.436 C 
ATOM     18  F   LIG    1      -36.120  82.856  25.697  0.00  0.00    -0.164 F 
ATOM     19  F   LIG    1      -37.014  84.631  26.611  0.00  0.00    -0.164 F 
ATOM     20  F   LIG    1      -35.528  84.845  25.032  0.00  0.00    -0.164 F 
ENDBRANCH  14  17
ENDBRANCH  11  12
ENDBRANCH   9  11
ENDBRANCH   3   7
BRANCH   1  21
ATOM     21  C   LIG    1      -38.620  77.831  27.389  0.00  0.00    +0.197 C 
ATOM     22  O   LIG    1      -39.380  77.467  28.274  0.00  0.00    -0.287 OA
BRANCH  21  28
ATOM     23  C   LIG    1      -35.278  81.688  28.741  0.00  0.00    +0.214 A 
ATOM     24  N   LIG    1      -34.638  80.522  28.636  0.00  0.00    -0.197 NA
ATOM     25  C   LIG    1      -35.431  79.515  28.235  0.00  0.00    +0.147 A 
ATOM     26  N   LIG    1      -35.045  78.222  28.011  0.00  0.00    -0.325 N 
ATOM     27  C   LIG    1      -36.126  77.459  27.673  0.00  0.00    +0.100 A 
ATOM     28  C   LIG    1      -37.252  78.271  27.667  0.00  0.00    +0.051 A 
ATOM     29  C   LIG    1      -36.793  79.594  27.974  0.00  0.00    +0.048 A 
ATOM     30  C   LIG    1      -37.356  80.860  28.107  0.00  0.00    +0.126 A 
ATOM     31  N   LIG    1      -36.580  81.900  28.504  0.00  0.00    -0.222 NA
BRANCH  26  32
ATOM     32  C   LIG    1      -33.753  77.716  28.160  0.00  0.00    +0.048 C 
ATOM     33  C   LIG    1      -33.151  76.975  29.405  0.00  0.00    +0.032 C 
ATOM     34  C   LIG    1      -32.107  76.813  28.186  0.00  0.00    -0.004 C 
ATOM     35  C   LIG    1      -32.426  78.255  27.540  0.00  0.00    +0.032 C 
ATOM     36  C   LIG    1      -33.398  76.387  27.393  0.00  0.00    +0.032 C 
ENDBRANCH  26  32
BRANCH  23  37
ATOM     37  N   LIG    1      -34.547  82.764  29.206  0.00  0.00    -0.327 N 
ATOM     38  H   LIG    1      -34.633  82.824  30.211  0.00  0.00    +0.145 HD
ATOM     39  H   LIG    1      -34.793  83.586  28.674  0.00  0.00    +0.145 HD
ENDBRANCH  23  37
ENDBRANCH  21  28
ENDBRANCH   1  21
TORSDOF 8
ENDMDL
MODEL 7
REMARK VINA RESULT:      -5.6     18.502     20.311
REMARK  Name = pdb/CHEMBL3671469.pdb
REMARK                            x       y       z     vdW  Elec       q    Type
REMARK                         _______ _______ _______ _____ _____    ______ ____
ROOT
ATOM      1  C   LIG    1      -39.749  79.347  25.262  0.00  0.00    +0.042 A 
ATOM      2  C   LIG    1      -38.732  78.619  25.894  0.00  0.00    +0.038 A 
ATOM      3  C   LIG    1      -38.261  77.431  25.336  0.00  0.00    +0.052 A 
ATOM      4  C   LIG    1      -38.870  76.999  24.162  0.00  0.00    +0.134 A 
ATOM      5  N   LIG    1      -39.894  77.655  23.553  0.00  0.00    -0.261 NA
ATOM      6  C   LIG    1      -40.319  78.810  24.121  0.00  0.00    +0.122 A 
ENDROOT
BRANCH   3   7
ATOM      7  N   LIG    1      -37.200  76.782  26.005  0.00  0.00    -0.283 N 
ATOM      8  H   LIG    1      -36.261  77.062  25.741  0.00  0.00    +0.155 HD
ATOM      9  C   LIG    1      -37.321  75.789  26.963  0.00  0.00    +0.239 C 
ATOM     10  O   LIG    1      -38.381  75.331  27.380  0.00  0.00    -0.273 OA
BRANCH   9  11
ATOM     11  C   LIG    1      -35.994  75.259  27.460  0.00  0.00    +0.239 C 
BRANCH  11  12
ATOM     12  N   LIG    1      -35.117  76.325  27.908  0.00  0.00    -0.262 N 
ATOM     13  N   LIG    1      -34.323  76.938  27.006  0.00  0.00    -0.167 NA
ATOM     14  C   LIG    1      -33.692  77.904  27.709  0.00  0.00    +0.165 A 
ATOM     15  C   LIG    1      -34.068  77.850  29.078  0.00  0.00    +0.053 A 
ATOM     16  C   LIG    1      -34.984  76.832  29.167  0.00  0.00    +0.109 A 
BRANCH  14  17
ATOM     17  C   LIG    1      -32.728  78.880  27.087  0.00  0.00    +0.436 C 
ATOM     18  F   LIG    1      -32.333  78.502  25.842  0.00  0.00    -0.164 F 
ATOM     19  F   LIG    1      -31.603  79.044  27.831  0.00  0.00    -0.164 F 
ATOM     20  F   LIG    1      -33.282  80.119  26.953  0.00  0.00    -0.164 F 
ENDBRANCH  14  17
ENDBRANCH  11  12
ENDBRANCH   9  11
ENDBRANCH   3   7
BRANCH   1  21
ATOM     21  C   LIG    1      -40.221  80.662  25.774  0.00  0.00    +0.197 C 
ATOM     22  O   LIG    1      -41.212  80.711  26.487  0.00  0.00    -0.287 OA
BRANCH  21  28
ATOM     23  C   LIG    1      -39.393  84.641  22.405  0.00  0.00    +0.214 A 
ATOM     24  N   LIG    1      -38.602  84.753  23.473  0.00  0.00    -0.197 NA
ATOM     25  C   LIG    1      -38.727  83.732  24.336  0.00  0.00    +0.147 A 
ATOM     26  N   LIG    1      -38.023  83.563  25.496  0.00  0.00    -0.325 N 
ATOM     27  C   LIG    1      -38.456  82.446  26.152  0.00  0.00    +0.100 A 
ATOM     28  C   LIG    1      -39.467  81.860  25.402  0.00  0.00    +0.051 A 
ATOM     29  C   LIG    1      -39.598  82.656  24.217  0.00  0.00    +0.048 A 
ATOM     30  C   LIG    1      -40.372  82.637  23.060  0.00  0.00    +0.126 A 
ATOM     31  N   LIG    1      -40.263  83.650  22.164  0.00  0.00    -0.222 NA
BRANCH  26  32
ATOM     32  C   LIG    1      -37.043  84.423  25.992  0.00  0.00    +0.048 C 
ATOM     33  C   LIG    1      -37.254  85.775  26.760  0.00  0.00    +0.032 C 
ATOM     34  C   LIG    1      -35.694  85.383  26.877  0.00  0.00    -0.004 C 
ATOM     35  C   LIG    1      -35.616  84.695  25.422  0.00  0.00    +0.032 C 
ATOM     36  C   LIG    1      -36.277  83.984  27.295  0.00  0.00    +0.032 C 
ENDBRANCH  26  32
BRANCH  23  37
ATOM     37  N   LIG    1      -39.368  85.682  21.496  0.00  0.00    -0.327 N 
ATOM     38  H   LIG    1      -40.300  86.054  21.380  0.00  0.00    +0.145 HD
ATOM     39  H   LIG    1      -38.888  85.379  20.661  0.00  0.00    +0.145 HD
ENDBRANCH  23  37
ENDBRANCH  21  28
ENDBRANCH   1  21
TORSDOF 8
ENDMDL
MODEL 8
REMARK VINA RESULT:      -5.5     20.851     22.953
REMARK  Name = pdb/CHEMBL3671469.pdb
REMARK                            x       y       z     vdW  Elec       q    Type
REMARK                         _______ _______ _______ _____ _____    ______ ____
ROOT
ATOM      1  C   LIG    1      -39.374  73.060  24.265  0.00  0.00    +0.042 A 
ATOM      2  C   LIG    1      -38.232  73.683  24.787  0.00  0.00    +0.038 A 
ATOM      3  C   LIG    1      -38.204  75.064  24.979  0.00  0.00    +0.052 A 
ATOM      4  C   LIG    1      -39.335  75.778  24.595  0.00  0.00    +0.134 A 
ATOM      5  N   LIG    1      -40.437  75.209  24.038  0.00  0.00    -0.261 NA
ATOM      6  C   LIG    1      -40.430  73.864  23.875  0.00  0.00    +0.122 A 
ENDROOT
BRANCH   3   7
ATOM      7  N   LIG    1      -37.037  75.610  25.557  0.00  0.00    -0.283 N 
ATOM      8  H   LIG    1      -36.240  75.728  24.940  0.00  0.00    +0.155 HD
ATOM      9  C   LIG    1      -36.872  75.975  26.883  0.00  0.00    +0.239 C 
ATOM     10  O   LIG    1      -37.730  75.884  27.755  0.00  0.00    -0.273 OA
BRANCH   9  11
ATOM     11  C   LIG    1      -35.486  76.487  27.204  0.00  0.00    +0.239 C 
BRANCH  11  12
ATOM     12  N   LIG    1      -34.665  75.473  27.841  0.00  0.00    -0.262 N 
ATOM     13  N   LIG    1      -33.443  75.817  28.299  0.00  0.00    -0.167 NA
ATOM     14  C   LIG    1      -32.971  74.693  28.882  0.00  0.00    +0.165 A 
ATOM     15  C   LIG    1      -33.898  73.627  28.734  0.00  0.00    +0.053 A 
ATOM     16  C   LIG    1      -34.972  74.164  28.068  0.00  0.00    +0.109 A 
BRANCH  14  17
ATOM     17  C   LIG    1      -31.637  74.625  29.578  0.00  0.00    +0.436 C 
ATOM     18  F   LIG    1      -30.979  73.461  29.332  0.00  0.00    -0.164 F 
ATOM     19  F   LIG    1      -31.749  74.744  30.928  0.00  0.00    -0.164 F 
ATOM     20  F   LIG    1      -30.806  75.628  29.174  0.00  0.00    -0.164 F 
ENDBRANCH  14  17
ENDBRANCH  11  12
ENDBRANCH   9  11
ENDBRANCH   3   7
BRANCH   1  21
ATOM     21  C   LIG    1      -39.480  71.582  24.126  0.00  0.00    +0.197 C 
ATOM     22  O   LIG    1      -40.491  71.092  23.647  0.00  0.00    -0.287 OA
BRANCH  21  28
ATOM     23  C   LIG    1      -35.666  68.110  22.997  0.00  0.00    +0.214 A 
ATOM     24  N   LIG    1      -35.585  68.506  24.268  0.00  0.00    -0.197 NA
ATOM     25  C   LIG    1      -36.569  69.345  24.627  0.00  0.00    +0.147 A 
ATOM     26  N   LIG    1      -36.758  69.887  25.869  0.00  0.00    -0.325 N 
ATOM     27  C   LIG    1      -37.821  70.744  25.854  0.00  0.00    +0.100 A 
ATOM     28  C   LIG    1      -38.351  70.763  24.571  0.00  0.00    +0.051 A 
ATOM     29  C   LIG    1      -37.580  69.827  23.805  0.00  0.00    +0.048 A 
ATOM     30  C   LIG    1      -37.574  69.342  22.501  0.00  0.00    +0.126 A 
ATOM     31  N   LIG    1      -36.597  68.487  22.109  0.00  0.00    -0.222 NA
BRANCH  26  32
ATOM     32  C   LIG    1      -35.959  69.661  26.991  0.00  0.00    +0.048 C 
ATOM     33  C   LIG    1      -34.506  70.191  27.254  0.00  0.00    +0.032 C 
ATOM     34  C   LIG    1      -35.055  69.558  28.633  0.00  0.00    -0.004 C 
ATOM     35  C   LIG    1      -35.926  68.406  27.917  0.00  0.00    +0.032 C 
ATOM     36  C   LIG    1      -36.315  70.442  28.310  0.00  0.00    +0.032 C 
ENDBRANCH  26  32
BRANCH  23  37
ATOM     37  N   LIG    1      -34.656  67.291  22.530  0.00  0.00    -0.327 N 
ATOM     38  H   LIG    1      -34.819  67.070  21.558  0.00  0.00    +0.145 HD
ATOM     39  H   LIG    1      -34.541  66.514  23.165  0.00  0.00    +0.145 HD
ENDBRANCH  23  37
ENDBRANCH  21  28
ENDBRANCH   1  21
TORSDOF 8
ENDMDL
MODEL 9
REMARK VINA RESULT:      -5.5     18.411     20.514
REMARK  Name = pdb/CHEMBL3671469.pdb
REMARK                            x       y       z     vdW  Elec       q    Type
REMARK                         _______ _______ _______ _____ _____    ______ ____
ROOT
ATOM      1  C   LIG    1      -39.416  79.324  25.724  0.00  0.00    +0.042 A 
ATOM      2  C   LIG    1      -38.399  78.472  26.177  0.00  0.00    +0.038 A 
ATOM      3  C   LIG    1      -38.132  77.274  25.513  0.00  0.00    +0.052 A 
ATOM      4  C   LIG    1      -38.939  76.962  24.423  0.00  0.00    +0.134 A 
ATOM      5  N   LIG    1      -39.966  77.742  23.992  0.00  0.00    -0.261 NA
ATOM      6  C   LIG    1      -40.189  78.902  24.657  0.00  0.00    +0.122 A 
ENDROOT
BRANCH   3   7
ATOM      7  N   LIG    1      -37.059  76.495  26.000  0.00  0.00    -0.283 N 
ATOM      8  H   LIG    1      -36.290  76.334  25.357  0.00  0.00    +0.155 HD
ATOM      9  C   LIG    1      -36.970  75.915  27.254  0.00  0.00    +0.239 C 
ATOM     10  O   LIG    1      -37.818  76.004  28.138  0.00  0.00    -0.273 OA
BRANCH   9  11
ATOM     11  C   LIG    1      -35.714  75.099  27.459  0.00  0.00    +0.239 C 
BRANCH  11  12
ATOM     12  N   LIG    1      -34.559  75.937  27.726  0.00  0.00    -0.262 N 
ATOM     13  N   LIG    1      -34.357  77.031  26.962  0.00  0.00    -0.167 NA
ATOM     14  C   LIG    1      -33.262  77.619  27.495  0.00  0.00    +0.165 A 
ATOM     15  C   LIG    1      -32.756  76.845  28.572  0.00  0.00    +0.053 A 
ATOM     16  C   LIG    1      -33.612  75.780  28.695  0.00  0.00    +0.109 A 
BRANCH  14  17
ATOM     17  C   LIG    1      -32.692  78.915  26.980  0.00  0.00    +0.436 C 
ATOM     18  F   LIG    1      -33.574  79.946  27.072  0.00  0.00    -0.164 F 
ATOM     19  F   LIG    1      -32.306  78.832  25.680  0.00  0.00    -0.164 F 
ATOM     20  F   LIG    1      -31.586  79.293  27.684  0.00  0.00    -0.164 F 
ENDBRANCH  14  17
ENDBRANCH  11  12
ENDBRANCH   9  11
ENDBRANCH   3   7
BRANCH   1  21
ATOM     21  C   LIG    1      -39.678  80.650  26.347  0.00  0.00    +0.197 C 
ATOM     22  O   LIG    1      -40.824  81.064  26.424  0.00  0.00    -0.287 OA
BRANCH  21  28
ATOM     23  C   LIG    1      -36.143  84.514  25.674  0.00  0.00    +0.214 A 
ATOM     24  N   LIG    1      -36.021  83.966  26.884  0.00  0.00    -0.197 NA
ATOM     25  C   LIG    1      -36.857  82.935  27.087  0.00  0.00    +0.147 A 
ATOM     26  N   LIG    1      -36.934  82.166  28.216  0.00  0.00    -0.325 N 
ATOM     27  C   LIG    1      -37.939  81.249  28.095  0.00  0.00    +0.100 A 
ATOM     28  C   LIG    1      -38.536  81.413  26.852  0.00  0.00    +0.051 A 
ATOM     29  C   LIG    1      -37.806  82.456  26.192  0.00  0.00    +0.048 A 
ATOM     30  C   LIG    1      -37.841  83.097  24.957  0.00  0.00    +0.126 A 
ATOM     31  N   LIG    1      -37.004  84.136  24.718  0.00  0.00    -0.222 NA
BRANCH  26  32
ATOM     32  C   LIG    1      -36.152  82.315  29.362  0.00  0.00    +0.048 C 
ATOM     33  C   LIG    1      -36.202  83.480  30.411  0.00  0.00    +0.032 C 
ATOM     34  C   LIG    1      -35.277  82.308  31.023  0.00  0.00    -0.004 C 
ATOM     35  C   LIG    1      -34.683  81.845  29.598  0.00  0.00    +0.032 C 
ATOM     36  C   LIG    1      -36.487  81.398  30.597  0.00  0.00    +0.032 C 
ENDBRANCH  26  32
BRANCH  23  37
ATOM     37  N   LIG    1      -35.359  85.620  25.405  0.00  0.00    -0.327 N 
ATOM     38  H   LIG    1      -34.386  85.351  25.394  0.00  0.00    +0.145 HD
ATOM     39  H   LIG    1      -35.622  86.370  26.029  0.00  0.00    +0.145 HD
ENDBRANCH  23  37
ENDBRANCH  21  28
ENDBRANCH   1  21
TORSDOF 8
ENDMDL
