MODEL 1
REMARK VINA RESULT:      -6.1      0.000      0.000
REMARK  Name = pdb/CHEMBL3673461.pdb
REMARK                            x       y       z     vdW  Elec       q    Type
REMARK                         _______ _______ _______ _____ _____    ______ ____
ROOT
ATOM      1  C   LIG    1      -25.577  81.888  37.735  0.00  0.00    +0.160 C 
ENDROOT
BRANCH   1   2
ATOM      2  N   LIG    1      -24.638  81.514  36.700  0.00  0.00    -0.311 N 
ATOM      3  C   LIG    1      -24.705  80.402  35.904  0.00  0.00    +0.161 A 
ATOM      4  N   LIG    1      -25.676  79.471  35.875  0.00  0.00    -0.234 NA
ATOM      5  C   LIG    1      -25.432  78.515  34.933  0.00  0.00    +0.136 A 
ATOM      6  C   LIG    1      -24.328  78.428  34.063  0.00  0.00    +0.051 A 
ATOM      7  C   LIG    1      -23.348  79.425  34.195  0.00  0.00    +0.056 A 
ATOM      8  C   LIG    1      -23.554  80.448  35.132  0.00  0.00    +0.110 A 
ATOM      9  N   LIG    1      -22.793  81.546  35.454  0.00  0.00    -0.234 NA
ATOM     10  C   LIG    1      -23.472  82.167  36.397  0.00  0.00    +0.201 A 
BRANCH   6  11
ATOM     11  N   LIG    1      -24.142  77.412  33.093  0.00  0.00    -0.316 N 
ATOM     12  C   LIG    1      -24.082  77.992  31.691  0.00  0.00    +0.182 C 
ATOM     13  C   LIG    1      -22.941  77.226  31.012  0.00  0.00    +0.035 C 
ATOM     14  C   LIG    1      -22.009  76.896  32.162  0.00  0.00    +0.021 C 
ATOM     15  C   LIG    1      -22.978  76.517  33.272  0.00  0.00    +0.106 C 
BRANCH  12  16
ATOM     16  C   LIG    1      -25.387  77.710  30.945  0.00  0.00    +0.325 C 
ATOM     17  O   LIG    1      -26.498  77.718  31.450  0.00  0.00    -0.249 OA
BRANCH  16  18
ATOM     18  O   LIG    1      -25.171  77.528  29.614  0.00  0.00    -0.479 OA
ATOM     19  H   LIG    1      -25.880  76.915  29.296  0.00  0.00    +0.295 HD
ENDBRANCH  16  18
ENDBRANCH  12  16
ENDBRANCH   6  11
ENDBRANCH   1   2
BRANCH   1  23
ATOM     20  C   LIG    1      -28.818  84.327  36.226  0.00  0.00    +0.162 A 
ATOM     21  C   LIG    1      -29.083  83.055  36.758  0.00  0.00    +0.162 A 
ATOM     22  C   LIG    1      -28.023  82.271  37.234  0.00  0.00    +0.054 A 
ATOM     23  C   LIG    1      -26.700  82.740  37.195  0.00  0.00    -0.024 A 
ATOM     24  C   LIG    1      -26.444  83.993  36.625  0.00  0.00    +0.009 A 
ATOM     25  C   LIG    1      -27.495  84.773  36.141  0.00  0.00    +0.050 A 
BRANCH  21  26
ATOM     26  O   LIG    1      -30.363  82.567  36.710  0.00  0.00    -0.491 OA
ATOM     27  C   LIG    1      -30.887  82.134  37.962  0.00  0.00    +0.277 C 
ENDBRANCH  21  26
BRANCH  20  28
ATOM     28  O   LIG    1      -29.738  85.232  35.755  0.00  0.00    -0.484 OA
BRANCH  28  29
ATOM     29  C   LIG    1      -29.229  86.523  35.433  0.00  0.00    +0.266 C 
BRANCH  29  33
ATOM     30  C   LIG    1      -30.339  87.486  31.465  0.00  0.00    +0.214 A 
ATOM     31  N   LIG    1      -31.052  86.545  32.120  0.00  0.00    -0.221 NA
ATOM     32  C   LIG    1      -30.643  86.240  33.370  0.00  0.00    +0.121 A 
ATOM     33  C   LIG    1      -29.573  86.852  34.010  0.00  0.00    +0.008 A 
ATOM     34  C   LIG    1      -28.838  87.796  33.286  0.00  0.00    +0.013 A 
ATOM     35  C   LIG    1      -29.221  88.114  31.988  0.00  0.00    +0.067 A 
BRANCH  30  37
ATOM     36  C   LIG    1      -31.705  88.864  30.190  0.00  0.00    +0.279 C 
ATOM     37  O   LIG    1      -30.706  87.849  30.184  0.00  0.00    -0.480 OA
ENDBRANCH  30  37
ENDBRANCH  29  33
ENDBRANCH  28  29
ENDBRANCH  20  28
ENDBRANCH   1  23
TORSDOF 10
ENDMDL
MODEL 2
REMARK VINA RESULT:      -6.0     14.680     18.844
REMARK  Name = pdb/CHEMBL3673461.pdb
REMARK                            x       y       z     vdW  Elec       q    Type
REMARK                         _______ _______ _______ _____ _____    ______ ____
ROOT
ATOM      1  C   LIG    1      -39.042  73.158  26.142  0.00  0.00    +0.160 C 
ENDROOT
BRANCH   1   2
ATOM      2  N   LIG    1      -38.314  74.386  25.903  0.00  0.00    -0.311 N 
ATOM      3  C   LIG    1      -37.333  74.916  26.695  0.00  0.00    +0.161 A 
ATOM      4  N   LIG    1      -36.803  74.385  27.812  0.00  0.00    -0.234 NA
ATOM      5  C   LIG    1      -35.819  75.175  28.331  0.00  0.00    +0.136 A 
ATOM      6  C   LIG    1      -35.354  76.408  27.833  0.00  0.00    +0.051 A 
ATOM      7  C   LIG    1      -35.995  76.898  26.683  0.00  0.00    +0.056 A 
ATOM      8  C   LIG    1      -37.002  76.120  26.092  0.00  0.00    +0.110 A 
ATOM      9  N   LIG    1      -37.767  76.332  24.970  0.00  0.00    -0.234 NA
ATOM     10  C   LIG    1      -38.544  75.271  24.883  0.00  0.00    +0.201 A 
BRANCH   6  11
ATOM     11  N   LIG    1      -34.313  77.173  28.413  0.00  0.00    -0.316 N 
ATOM     12  C   LIG    1      -33.900  78.319  27.507  0.00  0.00    +0.182 C 
ATOM     13  C   LIG    1      -33.720  79.509  28.457  0.00  0.00    +0.035 C 
ATOM     14  C   LIG    1      -34.712  79.221  29.568  0.00  0.00    +0.021 C 
ATOM     15  C   LIG    1      -34.556  77.719  29.766  0.00  0.00    +0.106 C 
BRANCH  12  16
ATOM     16  C   LIG    1      -32.560  78.007  26.838  0.00  0.00    +0.325 C 
ATOM     17  O   LIG    1      -31.761  77.171  27.228  0.00  0.00    -0.249 OA
BRANCH  16  18
ATOM     18  O   LIG    1      -32.395  78.722  25.693  0.00  0.00    -0.479 OA
ATOM     19  H   LIG    1      -31.810  79.487  25.921  0.00  0.00    +0.295 HD
ENDBRANCH  16  18
ENDBRANCH  12  16
ENDBRANCH   6  11
ENDBRANCH   1   2
BRANCH   1  23
ATOM     20  C   LIG    1      -37.522  69.868  23.776  0.00  0.00    +0.162 A 
ATOM     21  C   LIG    1      -36.734  70.425  24.795  0.00  0.00    +0.162 A 
ATOM     22  C   LIG    1      -37.234  71.497  25.548  0.00  0.00    +0.054 A 
ATOM     23  C   LIG    1      -38.515  72.019  25.303  0.00  0.00    -0.024 A 
ATOM     24  C   LIG    1      -39.275  71.481  24.258  0.00  0.00    +0.009 A 
ATOM     25  C   LIG    1      -38.777  70.420  23.500  0.00  0.00    +0.050 A 
BRANCH  21  26
ATOM     26  O   LIG    1      -35.452  69.972  24.969  0.00  0.00    -0.491 OA
ATOM     27  C   LIG    1      -34.710  70.644  25.983  0.00  0.00    +0.277 C 
ENDBRANCH  21  26
BRANCH  20  28
ATOM     28  O   LIG    1      -37.201  68.798  22.977  0.00  0.00    -0.484 OA
BRANCH  28  29
ATOM     29  C   LIG    1      -37.970  68.660  21.787  0.00  0.00    +0.266 C 
BRANCH  29  33
ATOM     30  C   LIG    1      -35.600  66.880  18.766  0.00  0.00    +0.214 A 
ATOM     31  N   LIG    1      -36.611  67.693  18.393  0.00  0.00    -0.221 NA
ATOM     32  C   LIG    1      -37.367  68.211  19.384  0.00  0.00    +0.121 A 
ATOM     33  C   LIG    1      -37.142  67.980  20.735  0.00  0.00    +0.008 A 
ATOM     34  C   LIG    1      -36.108  67.104  21.081  0.00  0.00    +0.013 A 
ATOM     35  C   LIG    1      -35.328  66.537  20.080  0.00  0.00    +0.067 A 
BRANCH  30  37
ATOM     36  C   LIG    1      -33.955  67.296  17.182  0.00  0.00    +0.279 C 
ATOM     37  O   LIG    1      -34.785  66.319  17.803  0.00  0.00    -0.480 OA
ENDBRANCH  30  37
ENDBRANCH  29  33
ENDBRANCH  28  29
ENDBRANCH  20  28
ENDBRANCH   1  23
TORSDOF 10
ENDMDL
MODEL 3
REMARK VINA RESULT:      -6.0     19.418     22.228
REMARK  Name = pdb/CHEMBL3673461.pdb
REMARK                            x       y       z     vdW  Elec       q    Type
REMARK                         _______ _______ _______ _____ _____    ______ ____
ROOT
ATOM      1  C   LIG    1      -21.169  80.058  16.271  0.00  0.00    +0.160 C 
ENDROOT
BRANCH   1   2
ATOM      2  N   LIG    1      -20.633  81.017  15.330  0.00  0.00    -0.311 N 
ATOM      3  C   LIG    1      -21.140  82.258  15.057  0.00  0.00    +0.161 A 
ATOM      4  N   LIG    1      -22.190  82.863  15.641  0.00  0.00    -0.234 NA
ATOM      5  C   LIG    1      -22.397  84.115  15.141  0.00  0.00    +0.136 A 
ATOM      6  C   LIG    1      -21.660  84.771  14.134  0.00  0.00    +0.051 A 
ATOM      7  C   LIG    1      -20.606  84.044  13.558  0.00  0.00    +0.056 A 
ATOM      8  C   LIG    1      -20.331  82.757  14.046  0.00  0.00    +0.110 A 
ATOM      9  N   LIG    1      -19.365  81.845  13.698  0.00  0.00    -0.234 NA
ATOM     10  C   LIG    1      -19.572  80.811  14.488  0.00  0.00    +0.201 A 
BRANCH   6  11
ATOM     11  N   LIG    1      -21.919  86.084  13.669  0.00  0.00    -0.316 N 
ATOM     12  C   LIG    1      -21.052  87.103  14.385  0.00  0.00    +0.182 C 
ATOM     13  C   LIG    1      -20.593  88.057  13.275  0.00  0.00    +0.035 C 
ATOM     14  C   LIG    1      -20.549  87.168  12.048  0.00  0.00    +0.021 C 
ATOM     15  C   LIG    1      -21.799  86.316  12.213  0.00  0.00    +0.106 C 
BRANCH  12  16
ATOM     16  C   LIG    1      -21.884  87.885  15.403  0.00  0.00    +0.325 C 
ATOM     17  O   LIG    1      -22.772  88.674  15.122  0.00  0.00    -0.249 OA
BRANCH  16  18
ATOM     18  O   LIG    1      -21.572  87.533  16.679  0.00  0.00    -0.479 OA
ATOM     19  H   LIG    1      -21.596  86.544  16.711  0.00  0.00    +0.295 HD
ENDBRANCH  16  18
ENDBRANCH  12  16
ENDBRANCH   6  11
ENDBRANCH   1   2
BRANCH   1  23
ATOM     20  C   LIG    1      -24.649  78.000  14.725  0.00  0.00    +0.162 A 
ATOM     21  C   LIG    1      -23.361  77.519  14.439  0.00  0.00    +0.162 A 
ATOM     22  C   LIG    1      -22.242  78.200  14.938  0.00  0.00    +0.054 A 
ATOM     23  C   LIG    1      -22.388  79.354  15.726  0.00  0.00    -0.024 A 
ATOM     24  C   LIG    1      -23.675  79.846  15.970  0.00  0.00    +0.009 A 
ATOM     25  C   LIG    1      -24.792  79.177  15.468  0.00  0.00    +0.050 A 
BRANCH  21  26
ATOM     26  O   LIG    1      -23.224  76.447  13.596  0.00  0.00    -0.491 OA
ATOM     27  C   LIG    1      -22.720  75.263  14.208  0.00  0.00    +0.277 C 
ENDBRANCH  21  26
BRANCH  20  28
ATOM     28  O   LIG    1      -25.843  77.435  14.350  0.00  0.00    -0.484 OA
BRANCH  28  29
ATOM     29  C   LIG    1      -26.746  78.293  13.661  0.00  0.00    +0.266 C 
BRANCH  29  33
ATOM     30  C   LIG    1      -29.541  76.020  11.441  0.00  0.00    +0.214 A 
ATOM     31  N   LIG    1      -29.612  77.366  11.374  0.00  0.00    -0.221 NA
ATOM     32  C   LIG    1      -28.727  78.056  12.126  0.00  0.00    +0.121 A 
ATOM     33  C   LIG    1      -27.753  77.463  12.919  0.00  0.00    +0.008 A 
ATOM     34  C   LIG    1      -27.734  76.066  12.990  0.00  0.00    +0.013 A 
ATOM     35  C   LIG    1      -28.649  75.331  12.245  0.00  0.00    +0.067 A 
BRANCH  30  37
ATOM     36  C   LIG    1      -30.035  75.211   9.321  0.00  0.00    +0.279 C 
ATOM     37  O   LIG    1      -30.414  75.255  10.694  0.00  0.00    -0.480 OA
ENDBRANCH  30  37
ENDBRANCH  29  33
ENDBRANCH  28  29
ENDBRANCH  20  28
ENDBRANCH   1  23
TORSDOF 10
ENDMDL
MODEL 4
REMARK VINA RESULT:      -6.0      7.169      8.927
REMARK  Name = pdb/CHEMBL3673461.pdb
REMARK                            x       y       z     vdW  Elec       q    Type
REMARK                         _______ _______ _______ _____ _____    ______ ____
ROOT
ATOM      1  C   LIG    1      -28.669  73.733  32.778  0.00  0.00    +0.160 C 
ENDROOT
BRANCH   1   2
ATOM      2  N   LIG    1      -27.347  73.606  32.204  0.00  0.00    -0.311 N 
ATOM      3  C   LIG    1      -26.452  74.619  31.990  0.00  0.00    +0.161 A 
ATOM      4  N   LIG    1      -26.587  75.916  32.319  0.00  0.00    -0.234 NA
ATOM      5  C   LIG    1      -25.482  76.642  31.982  0.00  0.00    +0.136 A 
ATOM      6  C   LIG    1      -24.306  76.178  31.360  0.00  0.00    +0.051 A 
ATOM      7  C   LIG    1      -24.275  74.815  31.020  0.00  0.00    +0.056 A 
ATOM      8  C   LIG    1      -25.375  74.013  31.360  0.00  0.00    +0.110 A 
ATOM      9  N   LIG    1      -25.605  72.671  31.179  0.00  0.00    -0.234 NA
ATOM     10  C   LIG    1      -26.797  72.457  31.698  0.00  0.00    +0.201 A 
BRANCH   6  11
ATOM     11  N   LIG    1      -23.183  76.985  31.051  0.00  0.00    -0.316 N 
ATOM     12  C   LIG    1      -21.908  76.401  31.632  0.00  0.00    +0.182 C 
ATOM     13  C   LIG    1      -20.869  76.573  30.517  0.00  0.00    +0.035 C 
ATOM     14  C   LIG    1      -21.700  76.491  29.251  0.00  0.00    +0.021 C 
ATOM     15  C   LIG    1      -22.945  77.284  29.622  0.00  0.00    +0.106 C 
BRANCH  12  16
ATOM     16  C   LIG    1      -21.466  77.207  32.855  0.00  0.00    +0.325 C 
ATOM     17  O   LIG    1      -21.698  76.904  34.014  0.00  0.00    -0.249 OA
BRANCH  16  18
ATOM     18  O   LIG    1      -20.701  78.274  32.499  0.00  0.00    -0.479 OA
ATOM     19  H   LIG    1      -19.916  78.269  33.100  0.00  0.00    +0.295 HD
ENDBRANCH  16  18
ENDBRANCH  12  16
ENDBRANCH   6  11
ENDBRANCH   1   2
BRANCH   1  23
ATOM     20  C   LIG    1      -31.584  75.141  29.905  0.00  0.00    +0.162 A 
ATOM     21  C   LIG    1      -31.300  73.770  30.007  0.00  0.00    +0.162 A 
ATOM     22  C   LIG    1      -30.347  73.328  30.934  0.00  0.00    +0.054 A 
ATOM     23  C   LIG    1      -29.675  74.234  31.770  0.00  0.00    -0.024 A 
ATOM     24  C   LIG    1      -29.936  75.602  31.631  0.00  0.00    +0.009 A 
ATOM     25  C   LIG    1      -30.878  76.048  30.702  0.00  0.00    +0.050 A 
BRANCH  21  26
ATOM     26  O   LIG    1      -31.893  72.901  29.127  0.00  0.00    -0.491 OA
ATOM     27  C   LIG    1      -32.904  72.072  29.692  0.00  0.00    +0.277 C 
ENDBRANCH  21  26
BRANCH  20  28
ATOM     28  O   LIG    1      -32.510  75.733  29.082  0.00  0.00    -0.484 OA
BRANCH  28  29
ATOM     29  C   LIG    1      -31.986  76.593  28.075  0.00  0.00    +0.266 C 
BRANCH  29  33
ATOM     30  C   LIG    1      -34.320  80.112  27.802  0.00  0.00    +0.214 A 
ATOM     31  N   LIG    1      -33.396  79.880  26.846  0.00  0.00    -0.221 NA
ATOM     32  C   LIG    1      -32.646  78.766  26.989  0.00  0.00    +0.121 A 
ATOM     33  C   LIG    1      -32.797  77.855  28.027  0.00  0.00    +0.008 A 
ATOM     34  C   LIG    1      -33.741  78.149  29.016  0.00  0.00    +0.013 A 
ATOM     35  C   LIG    1      -34.511  79.301  28.908  0.00  0.00    +0.067 A 
BRANCH  30  37
ATOM     36  C   LIG    1      -35.413  81.774  28.999  0.00  0.00    +0.279 C 
ATOM     37  O   LIG    1      -35.123  81.231  27.714  0.00  0.00    -0.480 OA
ENDBRANCH  30  37
ENDBRANCH  29  33
ENDBRANCH  28  29
ENDBRANCH  20  28
ENDBRANCH   1  23
TORSDOF 10
ENDMDL
MODEL 5
REMARK VINA RESULT:      -5.9     19.238     22.552
REMARK  Name = pdb/CHEMBL3673461.pdb
REMARK                            x       y       z     vdW  Elec       q    Type
REMARK                         _______ _______ _______ _____ _____    ______ ____
ROOT
ATOM      1  C   LIG    1      -21.612  88.144  11.932  0.00  0.00    +0.160 C 
ENDROOT
BRANCH   1   2
ATOM      2  N   LIG    1      -21.810  87.628  13.269  0.00  0.00    -0.311 N 
ATOM      3  C   LIG    1      -22.131  86.341  13.604  0.00  0.00    +0.161 A 
ATOM      4  N   LIG    1      -22.267  85.287  12.779  0.00  0.00    -0.234 NA
ATOM      5  C   LIG    1      -22.563  84.144  13.461  0.00  0.00    +0.136 A 
ATOM      6  C   LIG    1      -22.732  83.993  14.852  0.00  0.00    +0.051 A 
ATOM      7  C   LIG    1      -22.609  85.158  15.626  0.00  0.00    +0.056 A 
ATOM      8  C   LIG    1      -22.284  86.361  14.983  0.00  0.00    +0.110 A 
ATOM      9  N   LIG    1      -22.078  87.625  15.479  0.00  0.00    -0.234 NA
ATOM     10  C   LIG    1      -21.793  88.363  14.425  0.00  0.00    +0.201 A 
BRANCH   6  11
ATOM     11  N   LIG    1      -23.026  82.768  15.502  0.00  0.00    -0.316 N 
ATOM     12  C   LIG    1      -23.161  81.633  14.502  0.00  0.00    +0.182 C 
ATOM     13  C   LIG    1      -22.426  80.459  15.161  0.00  0.00    +0.035 C 
ATOM     14  C   LIG    1      -21.356  81.139  15.992  0.00  0.00    +0.021 C 
ATOM     15  C   LIG    1      -22.099  82.336  16.570  0.00  0.00    +0.106 C 
BRANCH  12  16
ATOM     16  C   LIG    1      -24.633  81.261  14.319  0.00  0.00    +0.325 C 
ATOM     17  O   LIG    1      -25.379  81.748  13.485  0.00  0.00    -0.249 OA
BRANCH  16  18
ATOM     18  O   LIG    1      -24.998  80.248  15.150  0.00  0.00    -0.479 OA
ATOM     19  H   LIG    1      -25.455  80.668  15.920  0.00  0.00    +0.295 HD
ENDBRANCH  16  18
ENDBRANCH  12  16
ENDBRANCH   6  11
ENDBRANCH   1   2
BRANCH   1  23
ATOM     20  C   LIG    1      -24.660  90.996  10.787  0.00  0.00    +0.162 A 
ATOM     21  C   LIG    1      -23.303  91.307  10.612  0.00  0.00    +0.162 A 
ATOM     22  C   LIG    1      -22.325  90.380  10.995  0.00  0.00    +0.054 A 
ATOM     23  C   LIG    1      -22.681  89.138  11.547  0.00  0.00    -0.024 A 
ATOM     24  C   LIG    1      -24.036  88.855  11.755  0.00  0.00    +0.009 A 
ATOM     25  C   LIG    1      -25.013  89.780  11.383  0.00  0.00    +0.050 A 
BRANCH  21  26
ATOM     26  O   LIG    1      -22.960  92.555  10.158  0.00  0.00    -0.491 OA
ATOM     27  C   LIG    1      -21.571  92.862  10.242  0.00  0.00    +0.277 C 
ENDBRANCH  21  26
BRANCH  20  28
ATOM     28  O   LIG    1      -25.737  91.770  10.432  0.00  0.00    -0.484 OA
BRANCH  28  29
ATOM     29  C   LIG    1      -26.758  91.902  11.416  0.00  0.00    +0.266 C 
BRANCH  29  33
ATOM     30  C   LIG    1      -26.031  95.356  13.750  0.00  0.00    +0.214 A 
ATOM     31  N   LIG    1      -26.661  94.311  14.329  0.00  0.00    -0.221 NA
ATOM     32  C   LIG    1      -26.908  93.243  13.540  0.00  0.00    +0.121 A 
ATOM     33  C   LIG    1      -26.528  93.156  12.207  0.00  0.00    +0.008 A 
ATOM     34  C   LIG    1      -25.909  94.272  11.634  0.00  0.00    +0.013 A 
ATOM     35  C   LIG    1      -25.663  95.395  12.416  0.00  0.00    +0.067 A 
BRANCH  30  37
ATOM     36  C   LIG    1      -26.925  97.193  14.853  0.00  0.00    +0.279 C 
ATOM     37  O   LIG    1      -25.744  96.478  14.500  0.00  0.00    -0.480 OA
ENDBRANCH  30  37
ENDBRANCH  29  33
ENDBRANCH  28  29
ENDBRANCH  20  28
ENDBRANCH   1  23
TORSDOF 10
ENDMDL
MODEL 6
REMARK VINA RESULT:      -5.9     19.489     22.720
REMARK  Name = pdb/CHEMBL3673461.pdb
REMARK                            x       y       z     vdW  Elec       q    Type
REMARK                         _______ _______ _______ _____ _____    ______ ____
ROOT
ATOM      1  C   LIG    1      -20.184  87.877  12.987  0.00  0.00    +0.160 C 
ENDROOT
BRANCH   1   2
ATOM      2  N   LIG    1      -20.298  86.436  12.917  0.00  0.00    -0.311 N 
ATOM      3  C   LIG    1      -21.050  85.640  13.737  0.00  0.00    +0.161 A 
ATOM      4  N   LIG    1      -21.875  86.027  14.726  0.00  0.00    -0.234 NA
ATOM      5  C   LIG    1      -22.490  84.963  15.319  0.00  0.00    +0.136 A 
ATOM      6  C   LIG    1      -22.336  83.598  15.006  0.00  0.00    +0.051 A 
ATOM      7  C   LIG    1      -21.423  83.291  13.984  0.00  0.00    +0.056 A 
ATOM      8  C   LIG    1      -20.775  84.345  13.323  0.00  0.00    +0.110 A 
ATOM      9  N   LIG    1      -19.870  84.344  12.289  0.00  0.00    -0.234 NA
ATOM     10  C   LIG    1      -19.605  85.615  12.067  0.00  0.00    +0.201 A 
BRANCH   6  11
ATOM     11  N   LIG    1      -23.019  82.539  15.654  0.00  0.00    -0.316 N 
ATOM     12  C   LIG    1      -23.224  81.362  14.717  0.00  0.00    +0.182 C 
ATOM     13  C   LIG    1      -22.915  80.132  15.580  0.00  0.00    +0.035 C 
ATOM     14  C   LIG    1      -21.890  80.649  16.570  0.00  0.00    +0.021 C 
ATOM     15  C   LIG    1      -22.431  82.031  16.912  0.00  0.00    +0.106 C 
BRANCH  12  16
ATOM     16  C   LIG    1      -24.682  81.297  14.260  0.00  0.00    +0.325 C 
ATOM     17  O   LIG    1      -25.473  80.419  14.567  0.00  0.00    -0.249 OA
BRANCH  16  18
ATOM     18  O   LIG    1      -25.025  82.391  13.528  0.00  0.00    -0.479 OA
ATOM     19  H   LIG    1      -25.732  82.099  12.901  0.00  0.00    +0.295 HD
ENDBRANCH  16  18
ENDBRANCH  12  16
ENDBRANCH   6  11
ENDBRANCH   1   2
BRANCH   1  23
ATOM     20  C   LIG    1      -23.234  89.825  10.614  0.00  0.00    +0.162 A 
ATOM     21  C   LIG    1      -21.943  89.645  10.091  0.00  0.00    +0.162 A 
ATOM     22  C   LIG    1      -20.962  89.022  10.874  0.00  0.00    +0.054 A 
ATOM     23  C   LIG    1      -21.250  88.567  12.171  0.00  0.00    -0.024 A 
ATOM     24  C   LIG    1      -22.529  88.788  12.695  0.00  0.00    +0.009 A 
ATOM     25  C   LIG    1      -23.506  89.417  11.923  0.00  0.00    +0.050 A 
BRANCH  21  26
ATOM     26  O   LIG    1      -21.643  90.172   8.862  0.00  0.00    -0.491 OA
ATOM     27  C   LIG    1      -20.336  90.729   8.751  0.00  0.00    +0.277 C 
ENDBRANCH  21  26
BRANCH  20  28
ATOM     28  O   LIG    1      -24.314  90.378   9.971  0.00  0.00    -0.484 OA
BRANCH  28  29
ATOM     29  C   LIG    1      -24.446  91.792  10.082  0.00  0.00    +0.266 C 
BRANCH  29  33
ATOM     30  C   LIG    1      -27.690  92.559  12.690  0.00  0.00    +0.214 A 
ATOM     31  N   LIG    1      -27.782  91.513  11.842  0.00  0.00    -0.221 NA
ATOM     32  C   LIG    1      -26.743  91.324  11.000  0.00  0.00    +0.121 A 
ATOM     33  C   LIG    1      -25.600  92.113  10.987  0.00  0.00    +0.008 A 
ATOM     34  C   LIG    1      -25.557  93.208  11.856  0.00  0.00    +0.013 A 
ATOM     35  C   LIG    1      -26.623  93.441  12.718  0.00  0.00    +0.067 A 
BRANCH  30  37
ATOM     36  C   LIG    1      -28.285  93.618  14.669  0.00  0.00    +0.279 C 
ATOM     37  O   LIG    1      -28.715  92.806  13.580  0.00  0.00    -0.480 OA
ENDBRANCH  30  37
ENDBRANCH  29  33
ENDBRANCH  28  29
ENDBRANCH  20  28
ENDBRANCH   1  23
TORSDOF 10
ENDMDL
MODEL 7
REMARK VINA RESULT:      -5.9     18.783     21.049
REMARK  Name = pdb/CHEMBL3673461.pdb
REMARK                            x       y       z     vdW  Elec       q    Type
REMARK                         _______ _______ _______ _____ _____    ______ ____
ROOT
ATOM      1  C   LIG    1      -35.788  65.779  20.513  0.00  0.00    +0.160 C 
ENDROOT
BRANCH   1   2
ATOM      2  N   LIG    1      -35.243  66.321  19.286  0.00  0.00    -0.311 N 
ATOM      3  C   LIG    1      -33.967  66.775  19.094  0.00  0.00    +0.161 A 
ATOM      4  N   LIG    1      -32.947  66.755  19.973  0.00  0.00    -0.234 NA
ATOM      5  C   LIG    1      -31.803  67.262  19.431  0.00  0.00    +0.136 A 
ATOM      6  C   LIG    1      -31.619  67.771  18.130  0.00  0.00    +0.051 A 
ATOM      7  C   LIG    1      -32.751  67.785  17.300  0.00  0.00    +0.056 A 
ATOM      8  C   LIG    1      -33.953  67.256  17.794  0.00  0.00    +0.110 A 
ATOM      9  N   LIG    1      -35.189  67.118  17.208  0.00  0.00    -0.234 NA
ATOM     10  C   LIG    1      -35.941  66.551  18.130  0.00  0.00    +0.201 A 
BRANCH   6  11
ATOM     11  N   LIG    1      -30.394  68.271  17.624  0.00  0.00    -0.316 N 
ATOM     12  C   LIG    1      -29.855  69.392  18.495  0.00  0.00    +0.182 C 
ATOM     13  C   LIG    1      -28.351  69.106  18.592  0.00  0.00    +0.035 C 
ATOM     14  C   LIG    1      -28.275  67.596  18.483  0.00  0.00    +0.021 C 
ATOM     15  C   LIG    1      -29.308  67.291  17.406  0.00  0.00    +0.106 C 
BRANCH  12  16
ATOM     16  C   LIG    1      -30.062  70.743  17.808  0.00  0.00    +0.325 C 
ATOM     17  O   LIG    1      -29.523  71.090  16.770  0.00  0.00    -0.249 OA
BRANCH  16  18
ATOM     18  O   LIG    1      -30.995  71.493  18.454  0.00  0.00    -0.479 OA
ATOM     19  H   LIG    1      -31.836  70.973  18.434  0.00  0.00    +0.295 HD
ENDBRANCH  16  18
ENDBRANCH  12  16
ENDBRANCH   6  11
ENDBRANCH   1   2
BRANCH   1  23
ATOM     20  C   LIG    1      -37.211  68.915  23.135  0.00  0.00    +0.162 A 
ATOM     21  C   LIG    1      -35.939  68.355  23.333  0.00  0.00    +0.162 A 
ATOM     22  C   LIG    1      -35.494  67.333  22.483  0.00  0.00    +0.054 A 
ATOM     23  C   LIG    1      -36.297  66.864  21.430  0.00  0.00    -0.024 A 
ATOM     24  C   LIG    1      -37.579  67.402  21.269  0.00  0.00    +0.009 A 
ATOM     25  C   LIG    1      -38.031  68.413  22.119  0.00  0.00    +0.050 A 
BRANCH  21  26
ATOM     26  O   LIG    1      -35.198  68.753  24.415  0.00  0.00    -0.491 OA
ATOM     27  C   LIG    1      -34.648  67.690  25.189  0.00  0.00    +0.277 C 
ENDBRANCH  21  26
BRANCH  20  28
ATOM     28  O   LIG    1      -37.781  69.941  23.847  0.00  0.00    -0.484 OA
BRANCH  28  29
ATOM     29  C   LIG    1      -39.191  69.864  24.027  0.00  0.00    +0.266 C 
BRANCH  29  33
ATOM     30  C   LIG    1      -41.006  73.662  23.588  0.00  0.00    +0.214 A 
ATOM     31  N   LIG    1      -41.649  72.583  23.094  0.00  0.00    -0.221 NA
ATOM     32  C   LIG    1      -41.020  71.394  23.221  0.00  0.00    +0.121 A 
ATOM     33  C   LIG    1      -39.791  71.228  23.846  0.00  0.00    +0.008 A 
ATOM     34  C   LIG    1      -39.140  72.375  24.313  0.00  0.00    +0.013 A 
ATOM     35  C   LIG    1      -39.753  73.615  24.175  0.00  0.00    +0.067 A 
BRANCH  30  37
ATOM     36  C   LIG    1      -40.715  75.940  23.929  0.00  0.00    +0.279 C 
ATOM     37  O   LIG    1      -41.595  74.907  23.495  0.00  0.00    -0.480 OA
ENDBRANCH  30  37
ENDBRANCH  29  33
ENDBRANCH  28  29
ENDBRANCH  20  28
ENDBRANCH   1  23
TORSDOF 10
ENDMDL
MODEL 8
REMARK VINA RESULT:      -5.9     18.967     22.089
REMARK  Name = pdb/CHEMBL3673461.pdb
REMARK                            x       y       z     vdW  Elec       q    Type
REMARK                         _______ _______ _______ _____ _____    ______ ____
ROOT
ATOM      1  C   LIG    1      -28.766  73.589  11.426  0.00  0.00    +0.160 C 
ENDROOT
BRANCH   1   2
ATOM      2  N   LIG    1      -29.714  72.933  12.301  0.00  0.00    -0.311 N 
ATOM      3  C   LIG    1      -29.416  72.065  13.316  0.00  0.00    +0.161 A 
ATOM      4  N   LIG    1      -28.198  71.694  13.749  0.00  0.00    -0.234 NA
ATOM      5  C   LIG    1      -28.275  70.834  14.805  0.00  0.00    +0.136 A 
ATOM      6  C   LIG    1      -29.439  70.338  15.426  0.00  0.00    +0.051 A 
ATOM      7  C   LIG    1      -30.664  70.754  14.879  0.00  0.00    +0.056 A 
ATOM      8  C   LIG    1      -30.649  71.655  13.804  0.00  0.00    +0.110 A 
ATOM      9  N   LIG    1      -31.673  72.240  13.100  0.00  0.00    -0.234 NA
ATOM     10  C   LIG    1      -31.079  73.004  12.206  0.00  0.00    +0.201 A 
BRANCH   6  11
ATOM     11  N   LIG    1      -29.449  69.456  16.535  0.00  0.00    -0.316 N 
ATOM     12  C   LIG    1      -29.842  70.179  17.810  0.00  0.00    +0.182 C 
ATOM     13  C   LIG    1      -30.796  69.208  18.518  0.00  0.00    +0.035 C 
ATOM     14  C   LIG    1      -31.448  68.463  17.370  0.00  0.00    +0.021 C 
ATOM     15  C   LIG    1      -30.282  68.240  16.417  0.00  0.00    +0.106 C 
BRANCH  12  16
ATOM     16  C   LIG    1      -28.613  70.402  18.693  0.00  0.00    +0.325 C 
ATOM     17  O   LIG    1      -27.501  70.694  18.283  0.00  0.00    -0.249 OA
BRANCH  16  18
ATOM     18  O   LIG    1      -28.925  70.317  20.014  0.00  0.00    -0.479 OA
ATOM     19  H   LIG    1      -28.067  70.248  20.502  0.00  0.00    +0.295 HD
ENDBRANCH  16  18
ENDBRANCH  12  16
ENDBRANCH   6  11
ENDBRANCH   1   2
BRANCH   1  23
ATOM     20  C   LIG    1      -27.469  77.380  13.063  0.00  0.00    +0.162 A 
ATOM     21  C   LIG    1      -28.578  77.327  12.205  0.00  0.00    +0.162 A 
ATOM     22  C   LIG    1      -28.982  76.094  11.674  0.00  0.00    +0.054 A 
ATOM     23  C   LIG    1      -28.299  74.909  11.992  0.00  0.00    -0.024 A 
ATOM     24  C   LIG    1      -27.170  74.981  12.816  0.00  0.00    +0.009 A 
ATOM     25  C   LIG    1      -26.759  76.207  13.340  0.00  0.00    +0.050 A 
BRANCH  21  26
ATOM     26  O   LIG    1      -29.184  78.497  11.827  0.00  0.00    -0.491 OA
ATOM     27  C   LIG    1      -30.432  78.337  11.158  0.00  0.00    +0.277 C 
ENDBRANCH  21  26
BRANCH  20  28
ATOM     28  O   LIG    1      -26.968  78.491  13.696  0.00  0.00    -0.484 OA
BRANCH  28  29
ATOM     29  C   LIG    1      -26.089  78.241  14.788  0.00  0.00    +0.266 C 
BRANCH  29  33
ATOM     30  C   LIG    1      -23.474  81.544  15.190  0.00  0.00    +0.214 A 
ATOM     31  N   LIG    1      -24.497  81.638  14.313  0.00  0.00    -0.221 NA
ATOM     32  C   LIG    1      -25.286  80.549  14.187  0.00  0.00    +0.121 A 
ATOM     33  C   LIG    1      -25.120  79.380  14.918  0.00  0.00    +0.008 A 
ATOM     34  C   LIG    1      -24.029  79.308  15.790  0.00  0.00    +0.013 A 
ATOM     35  C   LIG    1      -23.186  80.406  15.923  0.00  0.00    +0.067 A 
BRANCH  30  37
ATOM     36  C   LIG    1      -22.574  83.022  16.737  0.00  0.00    +0.279 C 
ATOM     37  O   LIG    1      -22.632  82.622  15.371  0.00  0.00    -0.480 OA
ENDBRANCH  30  37
ENDBRANCH  29  33
ENDBRANCH  28  29
ENDBRANCH  20  28
ENDBRANCH   1  23
TORSDOF 10
ENDMDL
MODEL 9
REMARK VINA RESULT:      -5.8     16.785     19.210
REMARK  Name = pdb/CHEMBL3673461.pdb
REMARK                            x       y       z     vdW  Elec       q    Type
REMARK                         _______ _______ _______ _____ _____    ______ ____
ROOT
ATOM      1  C   LIG    1      -41.029  71.491  24.517  0.00  0.00    +0.160 C 
ENDROOT
BRANCH   1   2
ATOM      2  N   LIG    1      -40.837  70.763  23.281  0.00  0.00    -0.311 N 
ATOM      3  C   LIG    1      -39.717  70.068  22.912  0.00  0.00    +0.161 A 
ATOM      4  N   LIG    1      -38.600  69.868  23.635  0.00  0.00    -0.234 NA
ATOM      5  C   LIG    1      -37.694  69.100  22.965  0.00  0.00    +0.136 A 
ATOM      6  C   LIG    1      -37.822  68.549  21.674  0.00  0.00    +0.051 A 
ATOM      7  C   LIG    1      -39.009  68.845  20.983  0.00  0.00    +0.056 A 
ATOM      8  C   LIG    1      -39.988  69.614  21.630  0.00  0.00    +0.110 A 
ATOM      9  N   LIG    1      -41.231  70.029  21.216  0.00  0.00    -0.234 NA
ATOM     10  C   LIG    1      -41.716  70.715  22.231  0.00  0.00    +0.201 A 
BRANCH   6  11
ATOM     11  N   LIG    1      -36.845  67.743  21.039  0.00  0.00    -0.316 N 
ATOM     12  C   LIG    1      -36.199  66.784  22.022  0.00  0.00    +0.182 C 
ATOM     13  C   LIG    1      -36.101  65.461  21.252  0.00  0.00    +0.035 C 
ATOM     14  C   LIG    1      -37.288  65.517  20.310  0.00  0.00    +0.021 C 
ATOM     15  C   LIG    1      -37.278  66.970  19.855  0.00  0.00    +0.106 C 
BRANCH  12  16
ATOM     16  C   LIG    1      -34.789  67.259  22.378  0.00  0.00    +0.325 C 
ATOM     17  O   LIG    1      -33.782  67.000  21.740  0.00  0.00    -0.249 OA
BRANCH  16  18
ATOM     18  O   LIG    1      -34.799  68.086  23.457  0.00  0.00    -0.479 OA
ATOM     19  H   LIG    1      -35.683  67.977  23.887  0.00  0.00    +0.295 HD
ENDBRANCH  16  18
ENDBRANCH  12  16
ENDBRANCH   6  11
ENDBRANCH   1   2
BRANCH   1  23
ATOM     20  C   LIG    1      -39.460  75.519  24.312  0.00  0.00    +0.162 A 
ATOM     21  C   LIG    1      -40.721  75.226  23.768  0.00  0.00    +0.162 A 
ATOM     22  C   LIG    1      -41.213  73.915  23.832  0.00  0.00    +0.054 A 
ATOM     23  C   LIG    1      -40.469  72.890  24.438  0.00  0.00    -0.024 A 
ATOM     24  C   LIG    1      -39.197  73.187  24.941  0.00  0.00    +0.009 A 
ATOM     25  C   LIG    1      -38.698  74.488  24.871  0.00  0.00    +0.050 A 
BRANCH  21  26
ATOM     26  O   LIG    1      -41.401  76.209  23.098  0.00  0.00    -0.491 OA
ATOM     27  C   LIG    1      -42.477  76.796  23.825  0.00  0.00    +0.277 C 
ENDBRANCH  21  26
BRANCH  20  28
ATOM     28  O   LIG    1      -38.851  76.749  24.367  0.00  0.00    -0.484 OA
BRANCH  28  29
ATOM     29  C   LIG    1      -39.262  77.598  25.435  0.00  0.00    +0.266 C 
BRANCH  29  33
ATOM     30  C   LIG    1      -39.494  81.600  24.081  0.00  0.00    +0.214 A 
ATOM     31  N   LIG    1      -39.410  81.377  25.409  0.00  0.00    -0.221 NA
ATOM     32  C   LIG    1      -39.376  80.085  25.803  0.00  0.00    +0.121 A 
ATOM     33  C   LIG    1      -39.390  79.005  24.929  0.00  0.00    +0.008 A 
ATOM     34  C   LIG    1      -39.513  79.277  23.563  0.00  0.00    +0.013 A 
ATOM     35  C   LIG    1      -39.574  80.597  23.130  0.00  0.00    +0.067 A 
BRANCH  30  37
ATOM     36  C   LIG    1      -39.546  83.844  24.674  0.00  0.00    +0.279 C 
ATOM     37  O   LIG    1      -39.528  82.897  23.610  0.00  0.00    -0.480 OA
ENDBRANCH  30  37
ENDBRANCH  29  33
ENDBRANCH  28  29
ENDBRANCH  20  28
ENDBRANCH   1  23
TORSDOF 10
ENDMDL
