MODEL 1
REMARK VINA RESULT:      -6.6      0.000      0.000
REMARK  Name = pdb/CHEMBL3921554.pdb
REMARK                            x       y       z     vdW  Elec       q    Type
REMARK                         _______ _______ _______ _____ _____    ______ ____
ROOT
ATOM      1  C   LIG    1      -24.695  77.935  31.952  0.00  0.00    +0.131 A 
ATOM      2  C   LIG    1      -24.040  78.244  33.114  0.00  0.00    +0.183 A 
ATOM      3  N   LIG    1      -22.869  78.913  33.426  0.00  0.00    -0.211 NA
ATOM      4  C   LIG    1      -22.561  79.096  34.689  0.00  0.00    +0.126 A 
ATOM      5  C   LIG    1      -23.383  78.472  35.794  0.00  0.00    +0.063 A 
ATOM      6  C   LIG    1      -24.475  77.799  35.455  0.00  0.00    +0.118 A 
ATOM      7  N   LIG    1      -24.843  77.683  34.120  0.00  0.00    -0.220 N 
ATOM      8  N   LIG    1      -25.931  77.038  33.642  0.00  0.00    -0.171 NA
ATOM      9  C   LIG    1      -25.821  77.180  32.322  0.00  0.00    +0.165 A 
ENDROOT
BRANCH   4  10
ATOM     10  N   LIG    1      -21.451  79.879  35.072  0.00  0.00    -0.308 N 
ATOM     11  C   LIG    1      -21.009  79.795  36.485  0.00  0.00    +0.105 C 
ATOM     12  C   LIG    1      -19.861  78.824  36.392  0.00  0.00    +0.029 C 
ATOM     13  C   LIG    1      -19.325  78.779  34.979  0.00  0.00    +0.021 C 
ATOM     14  C   LIG    1      -20.233  79.725  34.227  0.00  0.00    +0.107 C 
BRANCH  11  15
ATOM     15  C   LIG    1      -20.526  81.068  37.129  0.00  0.00    -0.024 A 
ATOM     16  C   LIG    1      -19.641  81.053  38.203  0.00  0.00    +0.043 A 
ATOM     17  C   LIG    1      -19.256  82.216  38.833  0.00  0.00    +0.124 A 
ATOM     18  F   LIG    1      -18.422  82.129  39.874  0.00  0.00    -0.205 F 
ATOM     19  C   LIG    1      -19.717  83.440  38.392  0.00  0.00    +0.038 A 
ATOM     20  C   LIG    1      -20.615  83.492  37.327  0.00  0.00    +0.003 A 
ATOM     21  C   LIG    1      -21.042  82.311  36.711  0.00  0.00    +0.005 A 
ENDBRANCH  11  15
ENDBRANCH   4  10
BRANCH   1  23
ATOM     22  C   LIG    1      -23.291  77.594  30.085  0.00  0.00    +0.239 C 
ATOM     23  N   LIG    1      -24.344  78.055  30.602  0.00  0.00    -0.206 NA
BRANCH  22  26
ATOM     24  C   LIG    1      -23.119  74.601  31.126  0.00  0.00    +0.046 C 
ATOM     25  C   LIG    1      -21.980  75.579  31.094  0.00  0.00    -0.020 A 
ATOM     26  C   LIG    1      -22.036  76.910  30.627  0.00  0.00    +0.128 A 
ATOM     27  N   LIG    1      -20.922  77.694  30.562  0.00  0.00    -0.250 NA
ATOM     28  C   LIG    1      -19.748  77.175  30.986  0.00  0.00    +0.111 A 
ATOM     29  C   LIG    1      -19.588  75.861  31.407  0.00  0.00    +0.020 A 
ATOM     30  C   LIG    1      -20.730  75.071  31.496  0.00  0.00    +0.007 A 
ENDBRANCH  22  26
BRANCH  22  31
ATOM     31  O   LIG    1      -23.244  77.821  28.740  0.00  0.00    -0.491 OA
ATOM     32  H   LIG    1      -22.379  77.812  28.337  0.00  0.00    +0.294 HD
ENDBRANCH  22  31
ENDBRANCH   1  23
TORSDOF 5
ENDMDL
MODEL 2
REMARK VINA RESULT:      -6.6     18.768     22.220
REMARK  Name = pdb/CHEMBL3921554.pdb
REMARK                            x       y       z     vdW  Elec       q    Type
REMARK                         _______ _______ _______ _____ _____    ______ ____
ROOT
ATOM      1  C   LIG    1      -18.814  86.001  13.279  0.00  0.00    +0.131 A 
ATOM      2  C   LIG    1      -19.402  84.801  13.581  0.00  0.00    +0.183 A 
ATOM      3  N   LIG    1      -20.595  84.420  14.173  0.00  0.00    -0.211 NA
ATOM      4  C   LIG    1      -20.884  83.142  14.246  0.00  0.00    +0.126 A 
ATOM      5  C   LIG    1      -19.886  82.087  13.827  0.00  0.00    +0.063 A 
ATOM      6  C   LIG    1      -18.735  82.490  13.305  0.00  0.00    +0.118 A 
ATOM      7  N   LIG    1      -18.469  83.844  13.150  0.00  0.00    -0.220 N 
ATOM      8  N   LIG    1      -17.348  84.386  12.625  0.00  0.00    -0.171 NA
ATOM      9  C   LIG    1      -17.559  85.698  12.727  0.00  0.00    +0.165 A 
ENDROOT
BRANCH   4  10
ATOM     10  N   LIG    1      -22.137  82.696  14.720  0.00  0.00    -0.308 N 
ATOM     11  C   LIG    1      -22.219  81.306  15.233  0.00  0.00    +0.105 C 
ATOM     12  C   LIG    1      -22.113  81.519  16.720  0.00  0.00    +0.029 C 
ATOM     13  C   LIG    1      -22.500  82.938  17.076  0.00  0.00    +0.021 C 
ATOM     14  C   LIG    1      -22.790  83.571  15.734  0.00  0.00    +0.107 C 
BRANCH  11  15
ATOM     15  C   LIG    1      -23.480  80.539  14.933  0.00  0.00    -0.024 A 
ATOM     16  C   LIG    1      -24.240  80.798  13.796  0.00  0.00    +0.043 A 
ATOM     17  C   LIG    1      -25.428  80.143  13.562  0.00  0.00    +0.124 A 
ATOM     18  F   LIG    1      -26.121  80.456  12.462  0.00  0.00    -0.205 F 
ATOM     19  C   LIG    1      -25.886  79.180  14.439  0.00  0.00    +0.038 A 
ATOM     20  C   LIG    1      -25.157  78.904  15.595  0.00  0.00    +0.003 A 
ATOM     21  C   LIG    1      -23.971  79.597  15.859  0.00  0.00    +0.005 A 
ENDBRANCH  11  15
ENDBRANCH   4  10
BRANCH   1  23
ATOM     22  C   LIG    1      -20.177  87.928  13.211  0.00  0.00    +0.239 C 
ATOM     23  N   LIG    1      -19.140  87.326  13.597  0.00  0.00    -0.206 NA
BRANCH  22  26
ATOM     24  C   LIG    1      -23.036  86.843  14.059  0.00  0.00    +0.046 C 
ATOM     25  C   LIG    1      -22.586  87.104  12.650  0.00  0.00    -0.020 A 
ATOM     26  C   LIG    1      -21.323  87.594  12.255  0.00  0.00    +0.128 A 
ATOM     27  N   LIG    1      -21.040  87.878  10.952  0.00  0.00    -0.250 NA
ATOM     28  C   LIG    1      -21.997  87.651  10.025  0.00  0.00    +0.111 A 
ATOM     29  C   LIG    1      -23.283  87.226  10.326  0.00  0.00    +0.020 A 
ATOM     30  C   LIG    1      -23.562  86.912  11.654  0.00  0.00    +0.007 A 
ENDBRANCH  22  26
BRANCH  22  31
ATOM     31  O   LIG    1      -20.250  89.192  13.720  0.00  0.00    -0.491 OA
ATOM     32  H   LIG    1      -21.113  89.491  13.998  0.00  0.00    +0.294 HD
ENDBRANCH  22  31
ENDBRANCH   1  23
TORSDOF 5
ENDMDL
MODEL 3
REMARK VINA RESULT:      -6.5      1.579      3.739
REMARK  Name = pdb/CHEMBL3921554.pdb
REMARK                            x       y       z     vdW  Elec       q    Type
REMARK                         _______ _______ _______ _____ _____    ______ ____
ROOT
ATOM      1  C   LIG    1      -21.695  77.322  30.275  0.00  0.00    +0.131 A 
ATOM      2  C   LIG    1      -21.060  77.710  31.425  0.00  0.00    +0.183 A 
ATOM      3  N   LIG    1      -21.458  78.329  32.598  0.00  0.00    -0.211 NA
ATOM      4  C   LIG    1      -20.576  78.496  33.556  0.00  0.00    +0.126 A 
ATOM      5  C   LIG    1      -19.118  78.154  33.348  0.00  0.00    +0.063 A 
ATOM      6  C   LIG    1      -18.766  77.604  32.194  0.00  0.00    +0.118 A 
ATOM      7  N   LIG    1      -19.719  77.350  31.215  0.00  0.00    -0.220 N 
ATOM      8  N   LIG    1      -19.497  76.787  30.007  0.00  0.00    -0.171 NA
ATOM      9  C   LIG    1      -20.700  76.793  29.435  0.00  0.00    +0.165 A 
ENDROOT
BRANCH   4  10
ATOM     10  N   LIG    1      -20.948  79.001  34.821  0.00  0.00    -0.308 N 
ATOM     11  C   LIG    1      -20.888  80.470  35.014  0.00  0.00    +0.105 C 
ATOM     12  C   LIG    1      -22.327  80.867  34.810  0.00  0.00    +0.029 C 
ATOM     13  C   LIG    1      -23.236  79.679  35.034  0.00  0.00    +0.021 C 
ATOM     14  C   LIG    1      -22.274  78.551  35.329  0.00  0.00    +0.107 C 
BRANCH  11  15
ATOM     15  C   LIG    1      -20.427  80.966  36.359  0.00  0.00    -0.024 A 
ATOM     16  C   LIG    1      -20.859  82.184  36.877  0.00  0.00    +0.043 A 
ATOM     17  C   LIG    1      -20.381  82.665  38.075  0.00  0.00    +0.124 A 
ATOM     18  F   LIG    1      -20.820  83.854  38.504  0.00  0.00    -0.205 F 
ATOM     19  C   LIG    1      -19.476  81.933  38.817  0.00  0.00    +0.038 A 
ATOM     20  C   LIG    1      -19.011  80.715  38.323  0.00  0.00    +0.003 A 
ATOM     21  C   LIG    1      -19.462  80.241  37.087  0.00  0.00    +0.005 A 
ENDBRANCH  11  15
ENDBRANCH   4  10
BRANCH   1  23
ATOM     22  C   LIG    1      -24.051  77.214  30.369  0.00  0.00    +0.239 C 
ATOM     23  N   LIG    1      -22.986  77.543  29.781  0.00  0.00    -0.206 NA
BRANCH  22  26
ATOM     24  C   LIG    1      -23.683  74.085  30.747  0.00  0.00    +0.046 C 
ATOM     25  C   LIG    1      -24.219  75.030  31.783  0.00  0.00    -0.020 A 
ATOM     26  C   LIG    1      -24.381  76.424  31.636  0.00  0.00    +0.128 A 
ATOM     27  N   LIG    1      -24.799  77.210  32.670  0.00  0.00    -0.250 NA
ATOM     28  C   LIG    1      -25.088  76.617  33.849  0.00  0.00    +0.111 A 
ATOM     29  C   LIG    1      -24.905  75.264  34.102  0.00  0.00    +0.020 A 
ATOM     30  C   LIG    1      -24.502  74.460  33.039  0.00  0.00    +0.007 A 
ENDBRANCH  22  26
BRANCH  22  31
ATOM     31  O   LIG    1      -25.158  77.602  29.671  0.00  0.00    -0.491 OA
ATOM     32  H   LIG    1      -25.014  77.907  28.779  0.00  0.00    +0.294 HD
ENDBRANCH  22  31
ENDBRANCH   1  23
TORSDOF 5
ENDMDL
MODEL 4
REMARK VINA RESULT:      -6.4      2.510      4.281
REMARK  Name = pdb/CHEMBL3921554.pdb
REMARK                            x       y       z     vdW  Elec       q    Type
REMARK                         _______ _______ _______ _____ _____    ______ ____
ROOT
ATOM      1  C   LIG    1      -21.796  77.209  30.186  0.00  0.00    +0.131 A 
ATOM      2  C   LIG    1      -21.205  77.663  31.336  0.00  0.00    +0.183 A 
ATOM      3  N   LIG    1      -21.645  78.356  32.451  0.00  0.00    -0.211 NA
ATOM      4  C   LIG    1      -20.802  78.574  33.433  0.00  0.00    +0.126 A 
ATOM      5  C   LIG    1      -19.340  78.209  33.307  0.00  0.00    +0.063 A 
ATOM      6  C   LIG    1      -18.946  77.586  32.204  0.00  0.00    +0.118 A 
ATOM      7  N   LIG    1      -19.861  77.280  31.204  0.00  0.00    -0.220 N 
ATOM      8  N   LIG    1      -19.596  76.641  30.043  0.00  0.00    -0.171 NA
ATOM      9  C   LIG    1      -20.774  76.622  29.423  0.00  0.00    +0.165 A 
ENDROOT
BRANCH   4  10
ATOM     10  N   LIG    1      -21.220  79.160  34.648  0.00  0.00    -0.308 N 
ATOM     11  C   LIG    1      -22.667  79.113  34.967  0.00  0.00    +0.105 C 
ATOM     12  C   LIG    1      -22.738  77.935  35.904  0.00  0.00    +0.029 C 
ATOM     13  C   LIG    1      -21.380  77.670  36.516  0.00  0.00    +0.021 C 
ATOM     14  C   LIG    1      -20.492  78.706  35.865  0.00  0.00    +0.107 C 
BRANCH  11  15
ATOM     15  C   LIG    1      -23.259  80.319  35.647  0.00  0.00    -0.024 A 
ATOM     16  C   LIG    1      -24.542  80.298  36.187  0.00  0.00    +0.043 A 
ATOM     17  C   LIG    1      -25.105  81.423  36.746  0.00  0.00    +0.124 A 
ATOM     18  F   LIG    1      -26.351  81.340  37.225  0.00  0.00    -0.205 F 
ATOM     19  C   LIG    1      -24.395  82.605  36.815  0.00  0.00    +0.038 A 
ATOM     20  C   LIG    1      -23.112  82.667  36.272  0.00  0.00    +0.003 A 
ATOM     21  C   LIG    1      -22.552  81.538  35.666  0.00  0.00    +0.005 A 
ENDBRANCH  11  15
ENDBRANCH   4  10
BRANCH   1  23
ATOM     22  C   LIG    1      -24.156  77.131  30.192  0.00  0.00    +0.239 C 
ATOM     23  N   LIG    1      -23.065  77.409  29.627  0.00  0.00    -0.206 NA
BRANCH  22  26
ATOM     24  C   LIG    1      -23.815  74.036  30.803  0.00  0.00    +0.046 C 
ATOM     25  C   LIG    1      -24.395  75.051  31.745  0.00  0.00    -0.020 A 
ATOM     26  C   LIG    1      -24.547  76.431  31.494  0.00  0.00    +0.128 A 
ATOM     27  N   LIG    1      -25.009  77.287  32.450  0.00  0.00    -0.250 NA
ATOM     28  C   LIG    1      -25.353  76.778  33.653  0.00  0.00    +0.111 A 
ATOM     29  C   LIG    1      -25.186  75.446  34.008  0.00  0.00    +0.020 A 
ATOM     30  C   LIG    1      -24.738  74.570  33.023  0.00  0.00    +0.007 A 
ENDBRANCH  22  26
BRANCH  22  31
ATOM     31  O   LIG    1      -25.229  77.482  29.425  0.00  0.00    -0.491 OA
ATOM     32  H   LIG    1      -25.167  78.313  28.959  0.00  0.00    +0.294 HD
ENDBRANCH  22  31
ENDBRANCH   1  23
TORSDOF 5
ENDMDL
MODEL 5
REMARK VINA RESULT:      -6.3      2.021      3.970
REMARK  Name = pdb/CHEMBL3921554.pdb
REMARK                            x       y       z     vdW  Elec       q    Type
REMARK                         _______ _______ _______ _____ _____    ______ ____
ROOT
ATOM      1  C   LIG    1      -21.893  77.285  30.270  0.00  0.00    +0.131 A 
ATOM      2  C   LIG    1      -21.180  77.611  31.393  0.00  0.00    +0.183 A 
ATOM      3  N   LIG    1      -21.472  78.265  32.578  0.00  0.00    -0.211 NA
ATOM      4  C   LIG    1      -20.541  78.348  33.501  0.00  0.00    +0.126 A 
ATOM      5  C   LIG    1      -19.131  77.870  33.237  0.00  0.00    +0.063 A 
ATOM      6  C   LIG    1      -18.878  77.288  32.072  0.00  0.00    +0.118 A 
ATOM      7  N   LIG    1      -19.888  77.125  31.132  0.00  0.00    -0.220 N 
ATOM      8  N   LIG    1      -19.769  76.544  29.919  0.00  0.00    -0.171 NA
ATOM      9  C   LIG    1      -20.987  76.663  29.394  0.00  0.00    +0.165 A 
ENDROOT
BRANCH   4  10
ATOM     10  N   LIG    1      -20.814  78.887  34.777  0.00  0.00    -0.308 N 
ATOM     11  C   LIG    1      -22.207  79.311  35.057  0.00  0.00    +0.105 C 
ATOM     12  C   LIG    1      -22.743  78.127  35.817  0.00  0.00    +0.029 C 
ATOM     13  C   LIG    1      -21.605  77.328  36.413  0.00  0.00    +0.021 C 
ATOM     14  C   LIG    1      -20.372  78.058  35.933  0.00  0.00    +0.107 C 
BRANCH  11  15
ATOM     15  C   LIG    1      -22.391  80.554  35.887  0.00  0.00    -0.024 A 
ATOM     16  C   LIG    1      -21.407  81.536  35.961  0.00  0.00    +0.043 A 
ATOM     17  C   LIG    1      -21.550  82.636  36.775  0.00  0.00    +0.124 A 
ATOM     18  F   LIG    1      -20.556  83.530  36.818  0.00  0.00    -0.205 F 
ATOM     19  C   LIG    1      -22.697  82.814  37.523  0.00  0.00    +0.038 A 
ATOM     20  C   LIG    1      -23.698  81.845  37.483  0.00  0.00    +0.003 A 
ATOM     21  C   LIG    1      -23.539  80.704  36.690  0.00  0.00    +0.005 A 
ENDBRANCH  11  15
ENDBRANCH   4  10
BRANCH   1  23
ATOM     22  C   LIG    1      -24.250  77.164  30.295  0.00  0.00    +0.239 C 
ATOM     23  N   LIG    1      -23.177  77.627  29.826  0.00  0.00    -0.206 NA
BRANCH  22  26
ATOM     24  C   LIG    1      -25.175  77.679  33.286  0.00  0.00    +0.046 C 
ATOM     25  C   LIG    1      -25.003  76.330  32.647  0.00  0.00    -0.020 A 
ATOM     26  C   LIG    1      -24.602  76.083  31.317  0.00  0.00    +0.128 A 
ATOM     27  N   LIG    1      -24.557  74.819  30.805  0.00  0.00    -0.250 NA
ATOM     28  C   LIG    1      -24.882  73.789  31.616  0.00  0.00    +0.111 A 
ATOM     29  C   LIG    1      -25.341  73.940  32.918  0.00  0.00    +0.020 A 
ATOM     30  C   LIG    1      -25.362  75.228  33.446  0.00  0.00    +0.007 A 
ENDBRANCH  22  26
BRANCH  22  31
ATOM     31  O   LIG    1      -25.346  77.719  29.698  0.00  0.00    -0.491 OA
ATOM     32  H   LIG    1      -26.196  77.474  30.056  0.00  0.00    +0.294 HD
ENDBRANCH  22  31
ENDBRANCH   1  23
TORSDOF 5
ENDMDL
MODEL 6
REMARK VINA RESULT:      -6.1     13.619     18.252
REMARK  Name = pdb/CHEMBL3921554.pdb
REMARK                            x       y       z     vdW  Elec       q    Type
REMARK                         _______ _______ _______ _____ _____    ______ ____
ROOT
ATOM      1  C   LIG    1      -33.747  77.448  27.526  0.00  0.00    +0.131 A 
ATOM      2  C   LIG    1      -34.693  76.458  27.551  0.00  0.00    +0.183 A 
ATOM      3  N   LIG    1      -35.990  76.335  27.080  0.00  0.00    -0.211 NA
ATOM      4  C   LIG    1      -36.606  75.184  27.218  0.00  0.00    +0.126 A 
ATOM      5  C   LIG    1      -35.982  74.048  27.998  0.00  0.00    +0.063 A 
ATOM      6  C   LIG    1      -34.755  74.219  28.472  0.00  0.00    +0.118 A 
ATOM      7  N   LIG    1      -34.073  75.408  28.248  0.00  0.00    -0.220 N 
ATOM      8  N   LIG    1      -32.822  75.706  28.664  0.00  0.00    -0.171 NA
ATOM      9  C   LIG    1      -32.641  76.955  28.238  0.00  0.00    +0.165 A 
ENDROOT
BRANCH   4  10
ATOM     10  N   LIG    1      -37.877  74.955  26.648  0.00  0.00    -0.308 N 
ATOM     11  C   LIG    1      -37.946  74.782  25.177  0.00  0.00    +0.105 C 
ATOM     12  C   LIG    1      -37.993  73.282  25.045  0.00  0.00    +0.029 C 
ATOM     13  C   LIG    1      -38.475  72.657  26.335  0.00  0.00    +0.021 C 
ATOM     14  C   LIG    1      -38.663  73.843  27.253  0.00  0.00    +0.107 C 
BRANCH  11  15
ATOM     15  C   LIG    1      -39.137  75.376  24.472  0.00  0.00    -0.024 A 
ATOM     16  C   LIG    1      -39.235  76.744  24.230  0.00  0.00    +0.043 A 
ATOM     17  C   LIG    1      -40.356  77.291  23.648  0.00  0.00    +0.124 A 
ATOM     18  F   LIG    1      -40.396  78.616  23.466  0.00  0.00    -0.205 F 
ATOM     19  C   LIG    1      -41.409  76.489  23.256  0.00  0.00    +0.038 A 
ATOM     20  C   LIG    1      -41.350  75.116  23.494  0.00  0.00    +0.003 A 
ATOM     21  C   LIG    1      -40.231  74.561  24.123  0.00  0.00    +0.005 A 
ENDBRANCH  11  15
ENDBRANCH   4  10
BRANCH   1  23
ATOM     22  C   LIG    1      -34.397  79.706  27.754  0.00  0.00    +0.239 C 
ATOM     23  N   LIG    1      -33.789  78.793  27.136  0.00  0.00    -0.206 NA
BRANCH  22  26
ATOM     24  C   LIG    1      -37.560  79.484  27.640  0.00  0.00    +0.046 C 
ATOM     25  C   LIG    1      -36.744  79.657  28.888  0.00  0.00    -0.020 A 
ATOM     26  C   LIG    1      -35.337  79.749  28.959  0.00  0.00    +0.128 A 
ATOM     27  N   LIG    1      -34.683  79.822  30.154  0.00  0.00    -0.250 NA
ATOM     28  C   LIG    1      -35.419  79.833  31.287  0.00  0.00    +0.111 A 
ATOM     29  C   LIG    1      -36.800  79.690  31.317  0.00  0.00    +0.020 A 
ATOM     30  C   LIG    1      -37.468  79.642  30.096  0.00  0.00    +0.007 A 
ENDBRANCH  22  26
BRANCH  22  31
ATOM     31  O   LIG    1      -34.218  80.925  27.166  0.00  0.00    -0.491 OA
ATOM     32  H   LIG    1      -34.063  81.662  27.751  0.00  0.00    +0.294 HD
ENDBRANCH  22  31
ENDBRANCH   1  23
TORSDOF 5
ENDMDL
MODEL 7
REMARK VINA RESULT:      -6.1     18.594     21.469
REMARK  Name = pdb/CHEMBL3921554.pdb
REMARK                            x       y       z     vdW  Elec       q    Type
REMARK                         _______ _______ _______ _____ _____    ______ ____
ROOT
ATOM      1  C   LIG    1      -22.388  85.824  13.933  0.00  0.00    +0.131 A 
ATOM      2  C   LIG    1      -22.510  84.502  13.597  0.00  0.00    +0.183 A 
ATOM      3  N   LIG    1      -21.978  83.319  14.081  0.00  0.00    -0.211 NA
ATOM      4  C   LIG    1      -22.373  82.184  13.552  0.00  0.00    +0.126 A 
ATOM      5  C   LIG    1      -23.281  82.157  12.343  0.00  0.00    +0.063 A 
ATOM      6  C   LIG    1      -23.735  83.314  11.879  0.00  0.00    +0.118 A 
ATOM      7  N   LIG    1      -23.383  84.507  12.497  0.00  0.00    -0.220 N 
ATOM      8  N   LIG    1      -23.782  85.746  12.134  0.00  0.00    -0.171 NA
ATOM      9  C   LIG    1      -23.156  86.541  13.000  0.00  0.00    +0.165 A 
ENDROOT
BRANCH   4  10
ATOM     10  N   LIG    1      -21.968  80.941  14.085  0.00  0.00    -0.308 N 
ATOM     11  C   LIG    1      -21.076  80.963  15.270  0.00  0.00    +0.105 C 
ATOM     12  C   LIG    1      -22.054  80.742  16.395  0.00  0.00    +0.029 C 
ATOM     13  C   LIG    1      -23.315  80.091  15.873  0.00  0.00    +0.021 C 
ATOM     14  C   LIG    1      -23.066  79.981  14.386  0.00  0.00    +0.107 C 
BRANCH  11  15
ATOM     15  C   LIG    1      -20.001  79.911  15.338  0.00  0.00    -0.024 A 
ATOM     16  C   LIG    1      -19.757  79.190  16.504  0.00  0.00    +0.043 A 
ATOM     17  C   LIG    1      -18.728  78.279  16.582  0.00  0.00    +0.124 A 
ATOM     18  F   LIG    1      -18.533  77.638  17.740  0.00  0.00    -0.205 F 
ATOM     19  C   LIG    1      -17.922  78.031  15.489  0.00  0.00    +0.038 A 
ATOM     20  C   LIG    1      -18.130  78.744  14.309  0.00  0.00    +0.003 A 
ATOM     21  C   LIG    1      -19.147  79.701  14.237  0.00  0.00    +0.005 A 
ENDBRANCH  11  15
ENDBRANCH   4  10
BRANCH   1  23
ATOM     22  C   LIG    1      -20.433  87.011  14.518  0.00  0.00    +0.239 C 
ATOM     23  N   LIG    1      -21.546  86.505  14.821  0.00  0.00    -0.206 NA
BRANCH  22  26
ATOM     24  C   LIG    1      -18.686  84.567  13.496  0.00  0.00    +0.046 C 
ATOM     25  C   LIG    1      -18.775  85.911  12.833  0.00  0.00    -0.020 A 
ATOM     26  C   LIG    1      -19.552  87.006  13.268  0.00  0.00    +0.128 A 
ATOM     27  N   LIG    1      -19.631  88.161  12.547  0.00  0.00    -0.250 NA
ATOM     28  C   LIG    1      -18.917  88.251  11.404  0.00  0.00    +0.111 A 
ATOM     29  C   LIG    1      -18.171  87.209  10.871  0.00  0.00    +0.020 A 
ATOM     30  C   LIG    1      -18.072  86.040  11.621  0.00  0.00    +0.007 A 
ENDBRANCH  22  26
BRANCH  22  31
ATOM     31  O   LIG    1      -19.862  87.655  15.578  0.00  0.00    -0.491 OA
ATOM     32  H   LIG    1      -19.648  88.576  15.452  0.00  0.00    +0.294 HD
ENDBRANCH  22  31
ENDBRANCH   1  23
TORSDOF 5
ENDMDL
MODEL 8
REMARK VINA RESULT:      -6.0     14.524     19.171
REMARK  Name = pdb/CHEMBL3921554.pdb
REMARK                            x       y       z     vdW  Elec       q    Type
REMARK                         _______ _______ _______ _____ _____    ______ ____
ROOT
ATOM      1  C   LIG    1      -34.647  78.362  28.017  0.00  0.00    +0.131 A 
ATOM      2  C   LIG    1      -35.433  77.304  27.643  0.00  0.00    +0.183 A 
ATOM      3  N   LIG    1      -36.278  77.045  26.577  0.00  0.00    -0.211 NA
ATOM      4  C   LIG    1      -36.841  75.862  26.489  0.00  0.00    +0.126 A 
ATOM      5  C   LIG    1      -36.692  74.839  27.593  0.00  0.00    +0.063 A 
ATOM      6  C   LIG    1      -35.909  75.140  28.620  0.00  0.00    +0.118 A 
ATOM      7  N   LIG    1      -35.247  76.361  28.667  0.00  0.00    -0.220 N 
ATOM      8  N   LIG    1      -34.416  76.785  29.644  0.00  0.00    -0.171 NA
ATOM      9  C   LIG    1      -34.073  78.010  29.250  0.00  0.00    +0.165 A 
ENDROOT
BRANCH   4  10
ATOM     10  N   LIG    1      -37.609  75.493  25.364  0.00  0.00    -0.308 N 
ATOM     11  C   LIG    1      -39.040  75.176  25.586  0.00  0.00    +0.105 C 
ATOM     12  C   LIG    1      -39.707  76.468  25.193  0.00  0.00    +0.029 C 
ATOM     13  C   LIG    1      -38.799  77.274  24.291  0.00  0.00    +0.021 C 
ATOM     14  C   LIG    1      -37.547  76.430  24.207  0.00  0.00    +0.107 C 
BRANCH  11  15
ATOM     15  C   LIG    1      -39.627  74.051  24.775  0.00  0.00    -0.024 A 
ATOM     16  C   LIG    1      -40.793  74.218  24.032  0.00  0.00    +0.043 A 
ATOM     17  C   LIG    1      -41.364  73.169  23.347  0.00  0.00    +0.124 A 
ATOM     18  F   LIG    1      -42.497  73.391  22.672  0.00  0.00    -0.205 F 
ATOM     19  C   LIG    1      -40.774  71.920  23.353  0.00  0.00    +0.038 A 
ATOM     20  C   LIG    1      -39.614  71.714  24.097  0.00  0.00    +0.003 A 
ATOM     21  C   LIG    1      -39.053  72.766  24.828  0.00  0.00    +0.005 A 
ENDBRANCH  11  15
ENDBRANCH   4  10
BRANCH   1  23
ATOM     22  C   LIG    1      -35.233  80.644  27.867  0.00  0.00    +0.239 C 
ATOM     23  N   LIG    1      -34.514  79.667  27.527  0.00  0.00    -0.206 NA
BRANCH  22  26
ATOM     24  C   LIG    1      -38.217  80.061  26.961  0.00  0.00    +0.046 C 
ATOM     25  C   LIG    1      -37.799  80.556  28.316  0.00  0.00    -0.020 A 
ATOM     26  C   LIG    1      -36.478  80.813  28.739  0.00  0.00    +0.128 A 
ATOM     27  N   LIG    1      -36.194  81.181  30.021  0.00  0.00    -0.250 NA
ATOM     28  C   LIG    1      -37.221  81.327  30.887  0.00  0.00    +0.111 A 
ATOM     29  C   LIG    1      -38.544  81.043  30.576  0.00  0.00    +0.020 A 
ATOM     30  C   LIG    1      -38.834  80.691  29.261  0.00  0.00    +0.007 A 
ENDBRANCH  22  26
BRANCH  22  31
ATOM     31  O   LIG    1      -34.837  81.801  27.262  0.00  0.00    -0.491 OA
ATOM     32  H   LIG    1      -34.367  82.428  27.806  0.00  0.00    +0.294 HD
ENDBRANCH  22  31
ENDBRANCH   1  23
TORSDOF 5
ENDMDL
MODEL 9
REMARK VINA RESULT:      -5.9     15.032     18.909
REMARK  Name = pdb/CHEMBL3921554.pdb
REMARK                            x       y       z     vdW  Elec       q    Type
REMARK                         _______ _______ _______ _____ _____    ______ ____
ROOT
ATOM      1  C   LIG    1      -37.395  76.790  27.035  0.00  0.00    +0.131 A 
ATOM      2  C   LIG    1      -38.114  77.529  26.134  0.00  0.00    +0.183 A 
ATOM      3  N   LIG    1      -38.618  78.819  26.111  0.00  0.00    -0.211 NA
ATOM      4  C   LIG    1      -39.221  79.244  25.025  0.00  0.00    +0.126 A 
ATOM      5  C   LIG    1      -39.494  78.313  23.865  0.00  0.00    +0.063 A 
ATOM      6  C   LIG    1      -39.034  77.071  23.941  0.00  0.00    +0.118 A 
ATOM      7  N   LIG    1      -38.321  76.652  25.057  0.00  0.00    -0.220 N 
ATOM      8  N   LIG    1      -37.791  75.425  25.256  0.00  0.00    -0.171 NA
ATOM      9  C   LIG    1      -37.248  75.512  26.469  0.00  0.00    +0.165 A 
ENDROOT
BRANCH   4  10
ATOM     10  N   LIG    1      -39.643  80.584  24.892  0.00  0.00    -0.308 N 
ATOM     11  C   LIG    1      -40.023  81.050  23.536  0.00  0.00    +0.105 C 
ATOM     12  C   LIG    1      -41.525  80.939  23.583  0.00  0.00    +0.029 C 
ATOM     13  C   LIG    1      -42.007  80.945  25.017  0.00  0.00    +0.021 C 
ATOM     14  C   LIG    1      -40.728  81.013  25.818  0.00  0.00    +0.107 C 
BRANCH  11  15
ATOM     15  C   LIG    1      -39.645  82.459  23.164  0.00  0.00    -0.024 A 
ATOM     16  C   LIG    1      -38.615  83.134  23.813  0.00  0.00    +0.043 A 
ATOM     17  C   LIG    1      -38.318  84.446  23.518  0.00  0.00    +0.124 A 
ATOM     18  F   LIG    1      -37.331  85.043  24.196  0.00  0.00    -0.205 F 
ATOM     19  C   LIG    1      -39.018  85.123  22.540  0.00  0.00    +0.038 A 
ATOM     20  C   LIG    1      -40.065  84.483  21.879  0.00  0.00    +0.003 A 
ATOM     21  C   LIG    1      -40.398  83.164  22.205  0.00  0.00    +0.005 A 
ENDBRANCH  11  15
ENDBRANCH   4  10
BRANCH   1  23
ATOM     22  C   LIG    1      -35.907  77.489  28.730  0.00  0.00    +0.239 C 
ATOM     23  N   LIG    1      -37.016  77.017  28.364  0.00  0.00    -0.206 NA
BRANCH  22  26
ATOM     24  C   LIG    1      -33.718  75.432  27.707  0.00  0.00    +0.046 C 
ATOM     25  C   LIG    1      -33.638  76.926  27.576  0.00  0.00    -0.020 A 
ATOM     26  C   LIG    1      -34.605  77.855  28.016  0.00  0.00    +0.128 A 
ATOM     27  N   LIG    1      -34.478  79.191  27.774  0.00  0.00    -0.250 NA
ATOM     28  C   LIG    1      -33.377  79.621  27.119  0.00  0.00    +0.111 A 
ATOM     29  C   LIG    1      -32.404  78.777  26.600  0.00  0.00    +0.020 A 
ATOM     30  C   LIG    1      -32.523  77.416  26.871  0.00  0.00    +0.007 A 
ENDBRANCH  22  26
BRANCH  22  31
ATOM     31  O   LIG    1      -35.843  77.645  30.084  0.00  0.00    -0.491 OA
ATOM     32  H   LIG    1      -36.511  77.197  30.597  0.00  0.00    +0.294 HD
ENDBRANCH  22  31
ENDBRANCH   1  23
TORSDOF 5
ENDMDL
