MODEL 1
REMARK VINA RESULT:      -6.2      0.000      0.000
REMARK  Name = pdb/CHEMBL3661616.pdb
REMARK                            x       y       z     vdW  Elec       q    Type
REMARK                         _______ _______ _______ _____ _____    ______ ____
ROOT
ATOM      1  C   LIG    1      -20.474  76.809  30.611  0.00  0.00    +0.042 A 
ATOM      2  C   LIG    1      -20.539  77.647  31.732  0.00  0.00    +0.038 A 
ATOM      3  C   LIG    1      -19.365  78.111  32.334  0.00  0.00    +0.052 A 
ATOM      4  C   LIG    1      -18.158  77.687  31.778  0.00  0.00    +0.134 A 
ATOM      5  N   LIG    1      -18.062  76.869  30.697  0.00  0.00    -0.261 NA
ATOM      6  C   LIG    1      -19.219  76.462  30.130  0.00  0.00    +0.122 A 
ENDROOT
BRANCH   3   7
ATOM      7  N   LIG    1      -19.488  78.973  33.447  0.00  0.00    -0.284 N 
ATOM      8  H   LIG    1      -19.672  79.948  33.244  0.00  0.00    +0.155 HD
ATOM      9  C   LIG    1      -19.397  78.614  34.782  0.00  0.00    +0.222 C 
ATOM     10  O   LIG    1      -19.173  77.481  35.205  0.00  0.00    -0.275 OA
BRANCH   9  11
ATOM     11  C   LIG    1      -19.634  79.773  35.741  0.00  0.00    +0.131 C 
BRANCH  11  12
ATOM     12  C   LIG    1      -21.059  80.271  35.703  0.00  0.00    -0.038 A 
ATOM     13  C   LIG    1      -22.115  79.412  35.361  0.00  0.00    +0.016 A 
ATOM     14  C   LIG    1      -23.444  79.874  35.336  0.00  0.00    +0.055 A 
ATOM     15  C   LIG    1      -23.704  81.215  35.651  0.00  0.00    +0.012 A 
ATOM     16  C   LIG    1      -22.661  82.076  35.984  0.00  0.00    +0.001 A 
ATOM     17  C   LIG    1      -21.348  81.609  36.007  0.00  0.00    +0.004 A 
BRANCH  14  18
ATOM     18  C   LIG    1      -24.570  78.934  34.981  0.00  0.00    +0.417 C 
ATOM     19  F   LIG    1      -24.404  77.699  35.533  0.00  0.00    -0.166 F 
ATOM     20  F   LIG    1      -24.678  78.731  33.639  0.00  0.00    -0.166 F 
ATOM     21  F   LIG    1      -25.794  79.365  35.395  0.00  0.00    -0.166 F 
ENDBRANCH  14  18
ENDBRANCH  11  12
ENDBRANCH   9  11
ENDBRANCH   3   7
BRANCH   1  22
ATOM     22  C   LIG    1      -21.713  76.400  29.917  0.00  0.00    +0.197 C 
ATOM     23  O   LIG    1      -21.761  76.534  28.686  0.00  0.00    -0.287 OA
BRANCH  22  31
ATOM     24  N   LIG    1      -24.079  74.500  31.997  0.00  0.00    -0.323 N 
ATOM     25  C   LIG    1      -24.868  75.581  31.648  0.00  0.00    +0.145 A 
ATOM     26  N   LIG    1      -26.140  75.790  32.027  0.00  0.00    -0.218 NA
ATOM     27  C   LIG    1      -26.628  76.965  31.604  0.00  0.00    +0.223 A 
ATOM     28  N   LIG    1      -26.008  77.884  30.846  0.00  0.00    -0.243 NA
ATOM     29  C   LIG    1      -24.738  77.625  30.459  0.00  0.00    +0.124 A 
ATOM     30  C   LIG    1      -24.114  76.441  30.862  0.00  0.00    +0.048 A 
ATOM     31  C   LIG    1      -22.835  75.842  30.661  0.00  0.00    +0.051 A 
ATOM     32  C   LIG    1      -22.859  74.645  31.362  0.00  0.00    +0.100 A 
BRANCH  24  34
ATOM     33  C   LIG    1      -24.606  73.887  34.371  0.00  0.00    +0.036 C 
ATOM     34  C   LIG    1      -24.436  73.389  32.916  0.00  0.00    +0.064 C 
ATOM     35  C   LIG    1      -23.321  72.313  32.964  0.00  0.00    +0.036 C 
BRANCH  34  36
ATOM     36  C   LIG    1      -25.754  72.706  32.470  0.00  0.00    +0.183 C 
BRANCH  36  37
ATOM     37  O   LIG    1      -25.916  72.702  31.052  0.00  0.00    -0.393 OA
ATOM     38  H   LIG    1      -26.864  72.818  30.868  0.00  0.00    +0.209 HD
ENDBRANCH  36  37
ENDBRANCH  34  36
ENDBRANCH  24  34
ENDBRANCH  22  31
ENDBRANCH   1  22
TORSDOF 9
ENDMDL
MODEL 2
REMARK VINA RESULT:      -6.2     16.009     19.405
REMARK  Name = pdb/CHEMBL3661616.pdb
REMARK                            x       y       z     vdW  Elec       q    Type
REMARK                         _______ _______ _______ _____ _____    ______ ____
ROOT
ATOM      1  C   LIG    1      -23.044  80.621  15.565  0.00  0.00    +0.042 A 
ATOM      2  C   LIG    1      -22.315  79.433  15.417  0.00  0.00    +0.038 A 
ATOM      3  C   LIG    1      -22.900  78.318  14.810  0.00  0.00    +0.052 A 
ATOM      4  C   LIG    1      -24.223  78.447  14.389  0.00  0.00    +0.134 A 
ATOM      5  N   LIG    1      -24.959  79.582  14.525  0.00  0.00    -0.261 NA
ATOM      6  C   LIG    1      -24.349  80.645  15.094  0.00  0.00    +0.122 A 
ENDROOT
BRANCH   3   7
ATOM      7  N   LIG    1      -22.113  77.153  14.666  0.00  0.00    -0.284 N 
ATOM      8  H   LIG    1      -21.301  77.230  14.066  0.00  0.00    +0.155 HD
ATOM      9  C   LIG    1      -22.333  75.928  15.272  0.00  0.00    +0.222 C 
ATOM     10  O   LIG    1      -23.269  75.658  16.023  0.00  0.00    -0.275 OA
BRANCH   9  11
ATOM     11  C   LIG    1      -21.265  74.890  14.954  0.00  0.00    +0.131 C 
BRANCH  11  12
ATOM     12  C   LIG    1      -20.525  74.427  16.187  0.00  0.00    -0.038 A 
ATOM     13  C   LIG    1      -21.038  73.398  16.992  0.00  0.00    +0.016 A 
ATOM     14  C   LIG    1      -20.342  72.959  18.134  0.00  0.00    +0.055 A 
ATOM     15  C   LIG    1      -19.126  73.572  18.467  0.00  0.00    +0.012 A 
ATOM     16  C   LIG    1      -18.614  74.600  17.678  0.00  0.00    +0.001 A 
ATOM     17  C   LIG    1      -19.310  75.026  16.548  0.00  0.00    +0.004 A 
BRANCH  14  18
ATOM     18  C   LIG    1      -20.898  71.842  18.982  0.00  0.00    +0.417 C 
ATOM     19  F   LIG    1      -19.953  71.291  19.795  0.00  0.00    -0.166 F 
ATOM     20  F   LIG    1      -21.391  70.814  18.235  0.00  0.00    -0.166 F 
ATOM     21  F   LIG    1      -21.915  72.229  19.802  0.00  0.00    -0.166 F 
ENDBRANCH  14  18
ENDBRANCH  11  12
ENDBRANCH   9  11
ENDBRANCH   3   7
BRANCH   1  22
ATOM     22  C   LIG    1      -22.392  81.828  16.116  0.00  0.00    +0.197 C 
ATOM     23  O   LIG    1      -22.432  82.000  17.341  0.00  0.00    -0.287 OA
BRANCH  22  31
ATOM     24  N   LIG    1      -21.186  84.664  14.107  0.00  0.00    -0.323 N 
ATOM     25  C   LIG    1      -20.171  83.753  13.884  0.00  0.00    +0.145 A 
ATOM     26  N   LIG    1      -19.077  83.952  13.128  0.00  0.00    -0.218 NA
ATOM     27  C   LIG    1      -18.222  82.920  13.160  0.00  0.00    +0.223 A 
ATOM     28  N   LIG    1      -18.367  81.756  13.812  0.00  0.00    -0.243 NA
ATOM     29  C   LIG    1      -19.494  81.580  14.540  0.00  0.00    +0.124 A 
ATOM     30  C   LIG    1      -20.449  82.599  14.603  0.00  0.00    +0.048 A 
ATOM     31  C   LIG    1      -21.713  82.774  15.240  0.00  0.00    +0.051 A 
ATOM     32  C   LIG    1      -22.139  84.050  14.899  0.00  0.00    +0.100 A 
BRANCH  24  34
ATOM     33  C   LIG    1      -22.466  86.817  14.226  0.00  0.00    +0.036 C 
ATOM     34  C   LIG    1      -21.252  86.069  13.628  0.00  0.00    +0.064 C 
ATOM     35  C   LIG    1      -21.429  86.135  12.090  0.00  0.00    +0.036 C 
BRANCH  34  36
ATOM     36  C   LIG    1      -19.961  86.840  14.003  0.00  0.00    +0.183 C 
BRANCH  36  37
ATOM     37  O   LIG    1      -20.043  87.455  15.288  0.00  0.00    -0.393 OA
ATOM     38  H   LIG    1      -19.595  86.867  15.920  0.00  0.00    +0.209 HD
ENDBRANCH  36  37
ENDBRANCH  34  36
ENDBRANCH  24  34
ENDBRANCH  22  31
ENDBRANCH   1  22
TORSDOF 9
ENDMDL
MODEL 3
REMARK VINA RESULT:      -6.0     11.871     16.135
REMARK  Name = pdb/CHEMBL3661616.pdb
REMARK                            x       y       z     vdW  Elec       q    Type
REMARK                         _______ _______ _______ _____ _____    ______ ____
ROOT
ATOM      1  C   LIG    1      -33.329  73.435  28.975  0.00  0.00    +0.042 A 
ATOM      2  C   LIG    1      -34.162  73.236  27.865  0.00  0.00    +0.038 A 
ATOM      3  C   LIG    1      -34.542  71.943  27.492  0.00  0.00    +0.052 A 
ATOM      4  C   LIG    1      -34.043  70.890  28.259  0.00  0.00    +0.134 A 
ATOM      5  N   LIG    1      -33.228  71.050  29.335  0.00  0.00    -0.261 NA
ATOM      6  C   LIG    1      -32.904  72.316  29.677  0.00  0.00    +0.122 A 
ENDROOT
BRANCH   3   7
ATOM      7  N   LIG    1      -35.401  71.800  26.379  0.00  0.00    -0.284 N 
ATOM      8  H   LIG    1      -34.959  71.796  25.468  0.00  0.00    +0.155 HD
ATOM      9  C   LIG    1      -36.777  71.651  26.413  0.00  0.00    +0.222 C 
ATOM     10  O   LIG    1      -37.471  71.639  27.428  0.00  0.00    -0.275 OA
BRANCH   9  11
ATOM     11  C   LIG    1      -37.403  71.463  25.038  0.00  0.00    +0.131 C 
BRANCH  11  12
ATOM     12  C   LIG    1      -38.397  72.551  24.703  0.00  0.00    -0.038 A 
ATOM     13  C   LIG    1      -38.080  73.903  24.903  0.00  0.00    +0.016 A 
ATOM     14  C   LIG    1      -39.002  74.917  24.580  0.00  0.00    +0.055 A 
ATOM     15  C   LIG    1      -40.253  74.558  24.061  0.00  0.00    +0.012 A 
ATOM     16  C   LIG    1      -40.579  73.217  23.866  0.00  0.00    +0.001 A 
ATOM     17  C   LIG    1      -39.659  72.221  24.188  0.00  0.00    +0.004 A 
BRANCH  14  18
ATOM     18  C   LIG    1      -38.641  76.367  24.787  0.00  0.00    +0.417 C 
ATOM     19  F   LIG    1      -39.420  76.963  25.734  0.00  0.00    -0.166 F 
ATOM     20  F   LIG    1      -38.796  77.111  23.657  0.00  0.00    -0.166 F 
ATOM     21  F   LIG    1      -37.354  76.560  25.189  0.00  0.00    -0.166 F 
ENDBRANCH  14  18
ENDBRANCH  11  12
ENDBRANCH   9  11
ENDBRANCH   3   7
BRANCH   1  22
ATOM     22  C   LIG    1      -33.009  74.805  29.426  0.00  0.00    +0.197 C 
ATOM     23  O   LIG    1      -32.020  74.960  30.155  0.00  0.00    -0.287 OA
BRANCH  22  31
ATOM     24  N   LIG    1      -35.581  77.347  28.749  0.00  0.00    -0.323 N 
ATOM     25  C   LIG    1      -34.483  77.943  28.158  0.00  0.00    +0.145 A 
ATOM     26  N   LIG    1      -34.464  79.135  27.538  0.00  0.00    -0.218 NA
ATOM     27  C   LIG    1      -33.238  79.496  27.131  0.00  0.00    +0.223 A 
ATOM     28  N   LIG    1      -32.098  78.798  27.248  0.00  0.00    -0.243 NA
ATOM     29  C   LIG    1      -32.161  77.589  27.852  0.00  0.00    +0.124 A 
ATOM     30  C   LIG    1      -33.382  77.117  28.341  0.00  0.00    +0.048 A 
ATOM     31  C   LIG    1      -33.826  75.937  29.009  0.00  0.00    +0.051 A 
ATOM     32  C   LIG    1      -35.185  76.112  29.230  0.00  0.00    +0.100 A 
BRANCH  24  34
ATOM     33  C   LIG    1      -38.011  76.815  29.066  0.00  0.00    +0.036 C 
ATOM     34  C   LIG    1      -36.944  77.921  28.892  0.00  0.00    +0.064 C 
ATOM     35  C   LIG    1      -37.359  78.716  27.628  0.00  0.00    +0.036 C 
BRANCH  34  36
ATOM     36  C   LIG    1      -37.015  78.874  30.112  0.00  0.00    +0.183 C 
BRANCH  36  37
ATOM     37  O   LIG    1      -37.477  80.179  29.762  0.00  0.00    -0.393 OA
ATOM     38  H   LIG    1      -38.193  80.068  29.112  0.00  0.00    +0.209 HD
ENDBRANCH  36  37
ENDBRANCH  34  36
ENDBRANCH  24  34
ENDBRANCH  22  31
ENDBRANCH   1  22
TORSDOF 9
ENDMDL
MODEL 4
REMARK VINA RESULT:      -5.9     12.317     16.123
REMARK  Name = pdb/CHEMBL3661616.pdb
REMARK                            x       y       z     vdW  Elec       q    Type
REMARK                         _______ _______ _______ _____ _____    ______ ____
ROOT
ATOM      1  C   LIG    1      -33.578  74.926  28.677  0.00  0.00    +0.042 A 
ATOM      2  C   LIG    1      -34.547  75.107  27.681  0.00  0.00    +0.038 A 
ATOM      3  C   LIG    1      -34.974  76.393  27.338  0.00  0.00    +0.052 A 
ATOM      4  C   LIG    1      -34.407  77.457  28.040  0.00  0.00    +0.134 A 
ATOM      5  N   LIG    1      -33.472  77.314  29.016  0.00  0.00    -0.261 NA
ATOM      6  C   LIG    1      -33.068  76.057  29.300  0.00  0.00    +0.122 A 
ENDROOT
BRANCH   3   7
ATOM      7  N   LIG    1      -35.937  76.520  26.311  0.00  0.00    -0.284 N 
ATOM      8  H   LIG    1      -35.580  76.582  25.365  0.00  0.00    +0.155 HD
ATOM      9  C   LIG    1      -37.312  76.553  26.469  0.00  0.00    +0.222 C 
ATOM     10  O   LIG    1      -37.911  76.495  27.541  0.00  0.00    -0.275 OA
BRANCH   9  11
ATOM     11  C   LIG    1      -38.074  76.640  25.153  0.00  0.00    +0.131 C 
BRANCH  11  12
ATOM     12  C   LIG    1      -38.718  75.327  24.772  0.00  0.00    -0.038 A 
ATOM     13  C   LIG    1      -38.046  74.111  24.967  0.00  0.00    +0.016 A 
ATOM     14  C   LIG    1      -38.650  72.888  24.622  0.00  0.00    +0.055 A 
ATOM     15  C   LIG    1      -39.938  72.897  24.068  0.00  0.00    +0.012 A 
ATOM     16  C   LIG    1      -40.609  74.102  23.864  0.00  0.00    +0.001 A 
ATOM     17  C   LIG    1      -40.002  75.308  24.210  0.00  0.00    +0.004 A 
BRANCH  14  18
ATOM     18  C   LIG    1      -37.922  71.587  24.853  0.00  0.00    +0.417 C 
ATOM     19  F   LIG    1      -38.668  70.697  25.566  0.00  0.00    -0.166 F 
ATOM     20  F   LIG    1      -36.767  71.751  25.556  0.00  0.00    -0.166 F 
ATOM     21  F   LIG    1      -37.572  70.943  23.704  0.00  0.00    -0.166 F 
ENDBRANCH  14  18
ENDBRANCH  11  12
ENDBRANCH   9  11
ENDBRANCH   3   7
BRANCH   1  22
ATOM     22  C   LIG    1      -33.056  73.574  28.968  0.00  0.00    +0.197 C 
ATOM     23  O   LIG    1      -31.882  73.475  29.350  0.00  0.00    -0.287 OA
BRANCH  22  31
ATOM     24  N   LIG    1      -34.717  70.401  28.132  0.00  0.00    -0.323 N 
ATOM     25  C   LIG    1      -35.528  70.841  29.161  0.00  0.00    +0.145 A 
ATOM     26  N   LIG    1      -36.604  70.202  29.654  0.00  0.00    -0.218 NA
ATOM     27  C   LIG    1      -37.149  70.828  30.707  0.00  0.00    +0.223 A 
ATOM     28  N   LIG    1      -36.763  71.989  31.260  0.00  0.00    -0.243 NA
ATOM     29  C   LIG    1      -35.694  72.617  30.719  0.00  0.00    +0.124 A 
ATOM     30  C   LIG    1      -35.027  72.046  29.632  0.00  0.00    +0.048 A 
ATOM     31  C   LIG    1      -33.906  72.400  28.823  0.00  0.00    +0.051 A 
ATOM     32  C   LIG    1      -33.757  71.370  27.905  0.00  0.00    +0.100 A 
BRANCH  24  34
ATOM     33  C   LIG    1      -36.239  68.861  26.867  0.00  0.00    +0.036 C 
ATOM     34  C   LIG    1      -34.811  69.107  27.407  0.00  0.00    +0.064 C 
ATOM     35  C   LIG    1      -34.500  67.910  28.342  0.00  0.00    +0.036 C 
BRANCH  34  36
ATOM     36  C   LIG    1      -33.818  69.067  26.218  0.00  0.00    +0.183 C 
BRANCH  36  37
ATOM     37  O   LIG    1      -34.410  69.499  24.994  0.00  0.00    -0.393 OA
ATOM     38  H   LIG    1      -34.175  68.846  24.312  0.00  0.00    +0.209 HD
ENDBRANCH  36  37
ENDBRANCH  34  36
ENDBRANCH  24  34
ENDBRANCH  22  31
ENDBRANCH   1  22
TORSDOF 9
ENDMDL
MODEL 5
REMARK VINA RESULT:      -5.9     12.566     16.976
REMARK  Name = pdb/CHEMBL3661616.pdb
REMARK                            x       y       z     vdW  Elec       q    Type
REMARK                         _______ _______ _______ _____ _____    ______ ____
ROOT
ATOM      1  C   LIG    1      -36.908  79.587  29.731  0.00  0.00    +0.042 A 
ATOM      2  C   LIG    1      -37.145  79.008  28.476  0.00  0.00    +0.038 A 
ATOM      3  C   LIG    1      -38.391  79.152  27.858  0.00  0.00    +0.052 A 
ATOM      4  C   LIG    1      -39.363  79.872  28.552  0.00  0.00    +0.134 A 
ATOM      5  N   LIG    1      -39.167  80.438  29.772  0.00  0.00    -0.261 NA
ATOM      6  C   LIG    1      -37.943  80.296  30.325  0.00  0.00    +0.122 A 
ENDROOT
BRANCH   3   7
ATOM      7  N   LIG    1      -38.569  78.568  26.583  0.00  0.00    -0.284 N 
ATOM      8  H   LIG    1      -38.057  78.992  25.819  0.00  0.00    +0.155 HD
ATOM      9  C   LIG    1      -39.359  77.472  26.282  0.00  0.00    +0.222 C 
ATOM     10  O   LIG    1      -40.048  76.843  27.083  0.00  0.00    -0.275 OA
BRANCH   9  11
ATOM     11  C   LIG    1      -39.289  77.056  24.818  0.00  0.00    +0.131 C 
BRANCH  11  12
ATOM     12  C   LIG    1      -39.294  75.555  24.645  0.00  0.00    -0.038 A 
ATOM     13  C   LIG    1      -40.400  74.897  24.085  0.00  0.00    +0.016 A 
ATOM     14  C   LIG    1      -40.400  73.500  23.913  0.00  0.00    +0.055 A 
ATOM     15  C   LIG    1      -39.277  72.765  24.318  0.00  0.00    +0.012 A 
ATOM     16  C   LIG    1      -38.178  73.410  24.881  0.00  0.00    +0.001 A 
ATOM     17  C   LIG    1      -38.187  74.794  25.046  0.00  0.00    +0.004 A 
BRANCH  14  18
ATOM     18  C   LIG    1      -41.591  72.809  23.295  0.00  0.00    +0.417 C 
ATOM     19  F   LIG    1      -42.427  72.285  24.235  0.00  0.00    -0.166 F 
ATOM     20  F   LIG    1      -41.233  71.768  22.493  0.00  0.00    -0.166 F 
ATOM     21  F   LIG    1      -42.362  73.627  22.526  0.00  0.00    -0.166 F 
ENDBRANCH  14  18
ENDBRANCH  11  12
ENDBRANCH   9  11
ENDBRANCH   3   7
BRANCH   1  22
ATOM     22  C   LIG    1      -35.562  79.518  30.337  0.00  0.00    +0.197 C 
ATOM     23  O   LIG    1      -35.327  80.245  31.312  0.00  0.00    -0.287 OA
BRANCH  22  31
ATOM     24  N   LIG    1      -33.210  76.804  29.540  0.00  0.00    -0.323 N 
ATOM     25  C   LIG    1      -32.997  77.641  28.461  0.00  0.00    +0.145 A 
ATOM     26  N   LIG    1      -32.145  77.425  27.444  0.00  0.00    -0.218 NA
ATOM     27  C   LIG    1      -32.209  78.370  26.495  0.00  0.00    +0.223 A 
ATOM     28  N   LIG    1      -32.978  79.471  26.487  0.00  0.00    -0.243 NA
ATOM     29  C   LIG    1      -33.801  79.670  27.541  0.00  0.00    +0.124 A 
ATOM     30  C   LIG    1      -33.841  78.737  28.581  0.00  0.00    +0.048 A 
ATOM     31  C   LIG    1      -34.553  78.609  29.810  0.00  0.00    +0.051 A 
ATOM     32  C   LIG    1      -34.127  77.416  30.376  0.00  0.00    +0.100 A 
BRANCH  24  34
ATOM     33  C   LIG    1      -33.161  74.416  28.777  0.00  0.00    +0.036 C 
ATOM     34  C   LIG    1      -32.608  75.466  29.769  0.00  0.00    +0.064 C 
ATOM     35  C   LIG    1      -32.942  74.928  31.184  0.00  0.00    +0.036 C 
BRANCH  34  36
ATOM     36  C   LIG    1      -31.066  75.523  29.623  0.00  0.00    +0.183 C 
BRANCH  36  37
ATOM     37  O   LIG    1      -30.498  76.673  30.247  0.00  0.00    -0.393 OA
ATOM     38  H   LIG    1      -30.010  77.163  29.563  0.00  0.00    +0.209 HD
ENDBRANCH  36  37
ENDBRANCH  34  36
ENDBRANCH  24  34
ENDBRANCH  22  31
ENDBRANCH   1  22
TORSDOF 9
ENDMDL
MODEL 6
REMARK VINA RESULT:      -5.8     11.682     16.094
REMARK  Name = pdb/CHEMBL3661616.pdb
REMARK                            x       y       z     vdW  Elec       q    Type
REMARK                         _______ _______ _______ _____ _____    ______ ____
ROOT
ATOM      1  C   LIG    1      -34.937  77.164  27.627  0.00  0.00    +0.042 A 
ATOM      2  C   LIG    1      -36.083  76.733  26.945  0.00  0.00    +0.038 A 
ATOM      3  C   LIG    1      -37.267  77.474  27.018  0.00  0.00    +0.052 A 
ATOM      4  C   LIG    1      -37.245  78.626  27.804  0.00  0.00    +0.134 A 
ATOM      5  N   LIG    1      -36.153  79.065  28.483  0.00  0.00    -0.261 NA
ATOM      6  C   LIG    1      -35.023  78.335  28.367  0.00  0.00    +0.122 A 
ENDROOT
BRANCH   3   7
ATOM      7  N   LIG    1      -38.386  77.007  26.292  0.00  0.00    -0.284 N 
ATOM      8  H   LIG    1      -39.223  76.814  26.830  0.00  0.00    +0.155 HD
ATOM      9  C   LIG    1      -38.456  76.804  24.925  0.00  0.00    +0.222 C 
ATOM     10  O   LIG    1      -37.538  76.981  24.126  0.00  0.00    -0.275 OA
BRANCH   9  11
ATOM     11  C   LIG    1      -39.828  76.348  24.446  0.00  0.00    +0.131 C 
BRANCH  11  12
ATOM     12  C   LIG    1      -39.904  74.851  24.254  0.00  0.00    -0.038 A 
ATOM     13  C   LIG    1      -38.877  74.012  24.711  0.00  0.00    +0.016 A 
ATOM     14  C   LIG    1      -38.953  72.617  24.542  0.00  0.00    +0.055 A 
ATOM     15  C   LIG    1      -40.072  72.070  23.899  0.00  0.00    +0.012 A 
ATOM     16  C   LIG    1      -41.093  72.897  23.435  0.00  0.00    +0.001 A 
ATOM     17  C   LIG    1      -41.009  74.277  23.608  0.00  0.00    +0.004 A 
BRANCH  14  18
ATOM     18  C   LIG    1      -37.847  71.727  25.052  0.00  0.00    +0.417 C 
ATOM     19  F   LIG    1      -37.109  71.189  24.040  0.00  0.00    -0.166 F 
ATOM     20  F   LIG    1      -38.317  70.670  25.772  0.00  0.00    -0.166 F 
ATOM     21  F   LIG    1      -36.958  72.366  25.863  0.00  0.00    -0.166 F 
ENDBRANCH  14  18
ENDBRANCH  11  12
ENDBRANCH   9  11
ENDBRANCH   3   7
BRANCH   1  22
ATOM     22  C   LIG    1      -33.661  76.434  27.469  0.00  0.00    +0.197 C 
ATOM     23  O   LIG    1      -32.847  76.863  26.640  0.00  0.00    -0.287 OA
BRANCH  22  31
ATOM     24  N   LIG    1      -33.390  73.140  29.083  0.00  0.00    -0.323 N 
ATOM     25  C   LIG    1      -32.408  73.833  29.768  0.00  0.00    +0.145 A 
ATOM     26  N   LIG    1      -31.619  73.341  30.737  0.00  0.00    -0.218 NA
ATOM     27  C   LIG    1      -30.701  74.220  31.164  0.00  0.00    +0.223 A 
ATOM     28  N   LIG    1      -30.533  75.490  30.760  0.00  0.00    -0.243 NA
ATOM     29  C   LIG    1      -31.366  75.959  29.803  0.00  0.00    +0.124 A 
ATOM     30  C   LIG    1      -32.348  75.124  29.262  0.00  0.00    +0.048 A 
ATOM     31  C   LIG    1      -33.370  75.257  28.277  0.00  0.00    +0.051 A 
ATOM     32  C   LIG    1      -33.996  74.021  28.206  0.00  0.00    +0.100 A 
BRANCH  24  34
ATOM     33  C   LIG    1      -34.657  71.227  28.072  0.00  0.00    +0.036 C 
ATOM     34  C   LIG    1      -33.727  71.699  29.215  0.00  0.00    +0.064 C 
ATOM     35  C   LIG    1      -34.496  71.416  30.531  0.00  0.00    +0.036 C 
BRANCH  34  36
ATOM     36  C   LIG    1      -32.445  70.829  29.202  0.00  0.00    +0.183 C 
BRANCH  36  37
ATOM     37  O   LIG    1      -32.096  70.349  30.500  0.00  0.00    -0.393 OA
ATOM     38  H   LIG    1      -32.708  69.623  30.715  0.00  0.00    +0.209 HD
ENDBRANCH  36  37
ENDBRANCH  34  36
ENDBRANCH  24  34
ENDBRANCH  22  31
ENDBRANCH   1  22
TORSDOF 9
ENDMDL
MODEL 7
REMARK VINA RESULT:      -5.8     11.645     15.711
REMARK  Name = pdb/CHEMBL3661616.pdb
REMARK                            x       y       z     vdW  Elec       q    Type
REMARK                         _______ _______ _______ _____ _____    ______ ____
ROOT
ATOM      1  C   LIG    1      -34.280  75.341  29.357  0.00  0.00    +0.042 A 
ATOM      2  C   LIG    1      -35.149  75.403  28.260  0.00  0.00    +0.038 A 
ATOM      3  C   LIG    1      -35.036  76.440  27.329  0.00  0.00    +0.052 A 
ATOM      4  C   LIG    1      -34.046  77.394  27.560  0.00  0.00    +0.134 A 
ATOM      5  N   LIG    1      -33.193  77.366  28.618  0.00  0.00    -0.261 NA
ATOM      6  C   LIG    1      -33.319  76.335  29.482  0.00  0.00    +0.122 A 
ENDROOT
BRANCH   3   7
ATOM      7  N   LIG    1      -35.923  76.442  26.228  0.00  0.00    -0.284 N 
ATOM      8  H   LIG    1      -35.502  76.357  25.311  0.00  0.00    +0.155 HD
ATOM      9  C   LIG    1      -37.304  76.533  26.282  0.00  0.00    +0.222 C 
ATOM     10  O   LIG    1      -37.975  76.646  27.306  0.00  0.00    -0.275 OA
BRANCH   9  11
ATOM     11  C   LIG    1      -37.973  76.449  24.917  0.00  0.00    +0.131 C 
BRANCH  11  12
ATOM     12  C   LIG    1      -38.612  75.102  24.670  0.00  0.00    -0.038 A 
ATOM     13  C   LIG    1      -37.895  73.914  24.883  0.00  0.00    +0.016 A 
ATOM     14  C   LIG    1      -38.494  72.659  24.664  0.00  0.00    +0.055 A 
ATOM     15  C   LIG    1      -39.822  72.608  24.218  0.00  0.00    +0.012 A 
ATOM     16  C   LIG    1      -40.538  73.783  23.996  0.00  0.00    +0.001 A 
ATOM     17  C   LIG    1      -39.936  75.020  24.217  0.00  0.00    +0.004 A 
BRANCH  14  18
ATOM     18  C   LIG    1      -37.716  71.391  24.912  0.00  0.00    +0.417 C 
ATOM     19  F   LIG    1      -37.460  70.708  23.760  0.00  0.00    -0.166 F 
ATOM     20  F   LIG    1      -38.380  70.519  25.722  0.00  0.00    -0.166 F 
ATOM     21  F   LIG    1      -36.504  71.597  25.499  0.00  0.00    -0.166 F 
ENDBRANCH  14  18
ENDBRANCH  11  12
ENDBRANCH   9  11
ENDBRANCH   3   7
BRANCH   1  22
ATOM     22  C   LIG    1      -34.336  74.192  30.285  0.00  0.00    +0.197 C 
ATOM     23  O   LIG    1      -34.769  74.390  31.428  0.00  0.00    -0.287 OA
BRANCH  22  31
ATOM     24  N   LIG    1      -33.929  70.770  28.999  0.00  0.00    -0.323 N 
ATOM     25  C   LIG    1      -32.618  71.073  29.313  0.00  0.00    +0.145 A 
ATOM     26  N   LIG    1      -31.554  70.268  29.147  0.00  0.00    -0.218 NA
ATOM     27  C   LIG    1      -30.393  70.860  29.464  0.00  0.00    +0.223 A 
ATOM     28  N   LIG    1      -30.210  72.101  29.942  0.00  0.00    -0.243 NA
ATOM     29  C   LIG    1      -31.307  72.872  30.123  0.00  0.00    +0.124 A 
ATOM     30  C   LIG    1      -32.572  72.371  29.803  0.00  0.00    +0.048 A 
ATOM     31  C   LIG    1      -33.909  72.867  29.857  0.00  0.00    +0.051 A 
ATOM     32  C   LIG    1      -34.713  71.848  29.367  0.00  0.00    +0.100 A 
BRANCH  24  34
ATOM     33  C   LIG    1      -33.766  69.308  26.969  0.00  0.00    +0.036 C 
ATOM     34  C   LIG    1      -34.431  69.533  28.347  0.00  0.00    +0.064 C 
ATOM     35  C   LIG    1      -35.955  69.615  28.073  0.00  0.00    +0.036 C 
BRANCH  34  36
ATOM     36  C   LIG    1      -34.163  68.292  29.236  0.00  0.00    +0.183 C 
BRANCH  36  37
ATOM     37  O   LIG    1      -32.998  67.572  28.834  0.00  0.00    -0.393 OA
ATOM     38  H   LIG    1      -33.272  66.656  28.652  0.00  0.00    +0.209 HD
ENDBRANCH  36  37
ENDBRANCH  34  36
ENDBRANCH  24  34
ENDBRANCH  22  31
ENDBRANCH   1  22
TORSDOF 9
ENDMDL
MODEL 8
REMARK VINA RESULT:      -5.8     11.937     15.751
REMARK  Name = pdb/CHEMBL3661616.pdb
REMARK                            x       y       z     vdW  Elec       q    Type
REMARK                         _______ _______ _______ _____ _____    ______ ____
ROOT
ATOM      1  C   LIG    1      -33.040  74.468  29.096  0.00  0.00    +0.042 A 
ATOM      2  C   LIG    1      -33.870  74.086  28.033  0.00  0.00    +0.038 A 
ATOM      3  C   LIG    1      -34.408  72.796  27.986  0.00  0.00    +0.052 A 
ATOM      4  C   LIG    1      -34.065  71.929  29.023  0.00  0.00    +0.134 A 
ATOM      5  N   LIG    1      -33.257  72.267  30.063  0.00  0.00    -0.261 NA
ATOM      6  C   LIG    1      -32.777  73.529  30.084  0.00  0.00    +0.122 A 
ENDROOT
BRANCH   3   7
ATOM      7  N   LIG    1      -35.258  72.471  26.904  0.00  0.00    -0.284 N 
ATOM      8  H   LIG    1      -34.804  72.277  26.019  0.00  0.00    +0.155 HD
ATOM      9  C   LIG    1      -36.639  72.379  26.939  0.00  0.00    +0.222 C 
ATOM     10  O   LIG    1      -37.346  72.586  27.922  0.00  0.00    -0.275 OA
BRANCH   9  11
ATOM     11  C   LIG    1      -37.253  71.951  25.612  0.00  0.00    +0.131 C 
BRANCH  11  12
ATOM     12  C   LIG    1      -38.226  72.973  25.072  0.00  0.00    -0.038 A 
ATOM     13  C   LIG    1      -37.958  74.347  25.170  0.00  0.00    +0.016 A 
ATOM     14  C   LIG    1      -38.859  75.298  24.656  0.00  0.00    +0.055 A 
ATOM     15  C   LIG    1      -40.042  74.855  24.047  0.00  0.00    +0.012 A 
ATOM     16  C   LIG    1      -40.319  73.492  23.953  0.00  0.00    +0.001 A 
ATOM     17  C   LIG    1      -39.420  72.559  24.464  0.00  0.00    +0.004 A 
BRANCH  14  18
ATOM     18  C   LIG    1      -38.550  76.771  24.755  0.00  0.00    +0.417 C 
ATOM     19  F   LIG    1      -39.604  77.488  25.238  0.00  0.00    -0.166 F 
ATOM     20  F   LIG    1      -38.245  77.324  23.548  0.00  0.00    -0.166 F 
ATOM     21  F   LIG    1      -37.499  77.056  25.574  0.00  0.00    -0.166 F 
ENDBRANCH  14  18
ENDBRANCH  11  12
ENDBRANCH   9  11
ENDBRANCH   3   7
BRANCH   1  22
ATOM     22  C   LIG    1      -32.553  75.859  29.195  0.00  0.00    +0.197 C 
ATOM     23  O   LIG    1      -31.335  76.057  29.087  0.00  0.00    -0.287 OA
BRANCH  22  31
ATOM     24  N   LIG    1      -35.029  78.333  30.328  0.00  0.00    -0.323 N 
ATOM     25  C   LIG    1      -34.609  78.924  29.151  0.00  0.00    +0.145 A 
ATOM     26  N   LIG    1      -35.045  80.093  28.650  0.00  0.00    -0.218 NA
ATOM     27  C   LIG    1      -34.400  80.458  27.532  0.00  0.00    +0.223 A 
ATOM     28  N   LIG    1      -33.438  79.782  26.883  0.00  0.00    -0.243 NA
ATOM     29  C   LIG    1      -33.046  78.596  27.402  0.00  0.00    +0.124 A 
ATOM     30  C   LIG    1      -33.630  78.123  28.581  0.00  0.00    +0.048 A 
ATOM     31  C   LIG    1      -33.484  76.962  29.397  0.00  0.00    +0.051 A 
ATOM     32  C   LIG    1      -34.370  77.124  30.452  0.00  0.00    +0.100 A 
BRANCH  24  34
ATOM     33  C   LIG    1      -37.370  79.156  30.688  0.00  0.00    +0.036 C 
ATOM     34  C   LIG    1      -35.983  78.891  31.320  0.00  0.00    +0.064 C 
ATOM     35  C   LIG    1      -35.499  80.259  31.866  0.00  0.00    +0.036 C 
BRANCH  34  36
ATOM     36  C   LIG    1      -36.161  77.924  32.518  0.00  0.00    +0.183 C 
BRANCH  36  37
ATOM     37  O   LIG    1      -37.427  77.264  32.507  0.00  0.00    -0.393 OA
ATOM     38  H   LIG    1      -37.461  76.717  31.703  0.00  0.00    +0.209 HD
ENDBRANCH  36  37
ENDBRANCH  34  36
ENDBRANCH  24  34
ENDBRANCH  22  31
ENDBRANCH   1  22
TORSDOF 9
ENDMDL
MODEL 9
REMARK VINA RESULT:      -5.7     13.059     17.419
REMARK  Name = pdb/CHEMBL3661616.pdb
REMARK                            x       y       z     vdW  Elec       q    Type
REMARK                         _______ _______ _______ _____ _____    ______ ____
ROOT
ATOM      1  C   LIG    1      -37.430  80.254  28.654  0.00  0.00    +0.042 A 
ATOM      2  C   LIG    1      -37.727  79.447  27.547  0.00  0.00    +0.038 A 
ATOM      3  C   LIG    1      -38.790  79.775  26.701  0.00  0.00    +0.052 A 
ATOM      4  C   LIG    1      -39.530  80.912  27.025  0.00  0.00    +0.134 A 
ATOM      5  N   LIG    1      -39.273  81.709  28.095  0.00  0.00    -0.261 NA
ATOM      6  C   LIG    1      -38.222  81.372  28.874  0.00  0.00    +0.122 A 
ENDROOT
BRANCH   3   7
ATOM      7  N   LIG    1      -39.032  78.940  25.586  0.00  0.00    -0.284 N 
ATOM      8  H   LIG    1      -38.524  79.163  24.739  0.00  0.00    +0.155 HD
ATOM      9  C   LIG    1      -39.878  77.845  25.544  0.00  0.00    +0.222 C 
ATOM     10  O   LIG    1      -40.571  77.439  26.474  0.00  0.00    -0.275 OA
BRANCH   9  11
ATOM     11  C   LIG    1      -39.870  77.121  24.204  0.00  0.00    +0.131 C 
BRANCH  11  12
ATOM     12  C   LIG    1      -39.553  75.650  24.345  0.00  0.00    -0.038 A 
ATOM     13  C   LIG    1      -40.450  74.672  23.889  0.00  0.00    +0.016 A 
ATOM     14  C   LIG    1      -40.149  73.302  24.010  0.00  0.00    +0.055 A 
ATOM     15  C   LIG    1      -38.937  72.922  24.604  0.00  0.00    +0.012 A 
ATOM     16  C   LIG    1      -38.044  73.887  25.066  0.00  0.00    +0.001 A 
ATOM     17  C   LIG    1      -38.351  75.241  24.940  0.00  0.00    +0.004 A 
BRANCH  14  18
ATOM     18  C   LIG    1      -41.116  72.262  23.502  0.00  0.00    +0.417 C 
ATOM     19  F   LIG    1      -40.491  71.272  22.805  0.00  0.00    -0.166 F 
ATOM     20  F   LIG    1      -42.047  72.783  22.655  0.00  0.00    -0.166 F 
ATOM     21  F   LIG    1      -41.817  71.637  24.489  0.00  0.00    -0.166 F 
ENDBRANCH  14  18
ENDBRANCH  11  12
ENDBRANCH   9  11
ENDBRANCH   3   7
BRANCH   1  22
ATOM     22  C   LIG    1      -36.246  79.961  29.489  0.00  0.00    +0.197 C 
ATOM     23  O   LIG    1      -36.031  80.692  30.466  0.00  0.00    -0.287 OA
BRANCH  22  31
ATOM     24  N   LIG    1      -34.472  76.760  29.120  0.00  0.00    -0.323 N 
ATOM     25  C   LIG    1      -33.770  77.538  28.218  0.00  0.00    +0.145 A 
ATOM     26  N   LIG    1      -32.739  77.134  27.456  0.00  0.00    -0.218 NA
ATOM     27  C   LIG    1      -32.305  78.084  26.614  0.00  0.00    +0.223 A 
ATOM     28  N   LIG    1      -32.757  79.343  26.497  0.00  0.00    -0.243 NA
ATOM     29  C   LIG    1      -33.777  79.721  27.301  0.00  0.00    +0.124 A 
ATOM     30  C   LIG    1      -34.329  78.808  28.203  0.00  0.00    +0.048 A 
ATOM     31  C   LIG    1      -35.372  78.839  29.177  0.00  0.00    +0.051 A 
ATOM     32  C   LIG    1      -35.418  77.566  29.727  0.00  0.00    +0.100 A 
BRANCH  24  34
ATOM     33  C   LIG    1      -35.393  74.761  30.322  0.00  0.00    +0.036 C 
ATOM     34  C   LIG    1      -34.293  75.309  29.383  0.00  0.00    +0.064 C 
ATOM     35  C   LIG    1      -32.946  75.025  30.097  0.00  0.00    +0.036 C 
BRANCH  34  36
ATOM     36  C   LIG    1      -34.322  74.501  28.061  0.00  0.00    +0.183 C 
BRANCH  36  37
ATOM     37  O   LIG    1      -35.299  74.990  27.141  0.00  0.00    -0.393 OA
ATOM     38  H   LIG    1      -36.109  74.468  27.275  0.00  0.00    +0.209 HD
ENDBRANCH  36  37
ENDBRANCH  34  36
ENDBRANCH  24  34
ENDBRANCH  22  31
ENDBRANCH   1  22
TORSDOF 9
ENDMDL
