MODEL 1
REMARK VINA RESULT:      -5.4      0.000      0.000
REMARK  Name = pdb/CHEMBL3675958.pdb
REMARK                            x       y       z     vdW  Elec       q    Type
REMARK                         _______ _______ _______ _____ _____    ______ ____
ROOT
ATOM      1  C   LIG    1      -25.229  77.302  31.802  0.00  0.00    +0.102 A 
ATOM      2  C   LIG    1      -24.838  78.006  32.927  0.00  0.00    +0.170 A 
ATOM      3  N   LIG    1      -23.695  78.710  33.239  0.00  0.00    -0.212 NA
ATOM      4  C   LIG    1      -23.589  79.216  34.452  0.00  0.00    +0.126 A 
ATOM      5  C   LIG    1      -24.723  79.127  35.451  0.00  0.00    +0.063 A 
ATOM      6  C   LIG    1      -25.811  78.440  35.094  0.00  0.00    +0.118 A 
ATOM      7  N   LIG    1      -25.883  77.856  33.844  0.00  0.00    -0.221 N 
ATOM      8  N   LIG    1      -26.901  77.116  33.354  0.00  0.00    -0.173 NA
ATOM      9  C   LIG    1      -26.489  76.763  32.136  0.00  0.00    +0.150 A 
ENDROOT
BRANCH   4  10
ATOM     10  N   LIG    1      -22.418  79.858  34.844  0.00  0.00    -0.308 N 
ATOM     11  C   LIG    1      -21.303  79.140  35.493  0.00  0.00    +0.107 C 
ATOM     12  C   LIG    1      -20.630  80.197  36.387  0.00  0.00    +0.029 C 
ATOM     13  C   LIG    1      -21.000  81.522  35.749  0.00  0.00    +0.021 C 
ATOM     14  C   LIG    1      -22.407  81.268  35.243  0.00  0.00    +0.107 C 
BRANCH  11  15
ATOM     15  C   LIG    1      -20.345  78.527  34.484  0.00  0.00    -0.001 A 
ATOM     16  CA  LIG    1      -20.489  77.193  34.048  0.00  0.00    +0.072 A 
ATOM     17  N   LIG    1      -19.674  76.626  33.105  0.00  0.00    -0.254 NA
ATOM     18  C   LIG    1      -18.677  77.393  32.601  0.00  0.00    +0.149 A 
ATOM     19  C   LIG    1      -18.444  78.694  32.995  0.00  0.00    +0.142 A 
ATOM     20  F   LIG    1      -17.441  79.404  32.463  0.00  0.00    -0.204 F 
ATOM     21  C   LIG    1      -19.276  79.266  33.945  0.00  0.00    +0.047 A 
BRANCH  16  22
ATOM     22  C   LIG    1      -21.568  76.285  34.615  0.00  0.00    +0.211 C 
BRANCH  22  23
ATOM     23  O   LIG    1      -22.474  75.816  33.618  0.00  0.00    -0.389 OA
ATOM     24  H   LIG    1      -21.923  75.621  32.833  0.00  0.00    +0.210 HD
ENDBRANCH  22  23
ENDBRANCH  16  22
ENDBRANCH  11  15
ENDBRANCH   4  10
BRANCH   1  27
ATOM     25  N   LIG    1      -23.186  76.864  30.685  0.00  0.00    -0.191 N 
ATOM     26  H   LIG    1      -22.722  76.845  31.582  0.00  0.00    +0.183 HD
ATOM     27  C   LIG    1      -24.536  77.100  30.544  0.00  0.00    +0.272 C 
ATOM     28  O   LIG    1      -25.121  77.195  29.480  0.00  0.00    -0.268 OA
BRANCH  25  30
ATOM     29  C   LIG    1      -21.067  76.934  29.756  0.00  0.00    +0.226 C 
ATOM     30  O   LIG    1      -22.447  76.711  29.494  0.00  0.00    -0.283 OA
ENDBRANCH  25  30
ENDBRANCH   1  27
TORSDOF 6
ENDMDL
MODEL 2
REMARK VINA RESULT:      -5.2     17.923     20.497
REMARK  Name = pdb/CHEMBL3675958.pdb
REMARK                            x       y       z     vdW  Elec       q    Type
REMARK                         _______ _______ _______ _____ _____    ______ ____
ROOT
ATOM      1  C   LIG    1      -19.593  85.467  13.408  0.00  0.00    +0.102 A 
ATOM      2  C   LIG    1      -19.086  84.197  13.623  0.00  0.00    +0.170 A 
ATOM      3  N   LIG    1      -19.655  83.029  14.082  0.00  0.00    -0.212 NA
ATOM      4  C   LIG    1      -18.871  81.982  14.254  0.00  0.00    +0.126 A 
ATOM      5  C   LIG    1      -17.409  82.014  13.867  0.00  0.00    +0.063 A 
ATOM      6  C   LIG    1      -16.910  83.170  13.420  0.00  0.00    +0.118 A 
ATOM      7  N   LIG    1      -17.726  84.278  13.308  0.00  0.00    -0.221 N 
ATOM      8  N   LIG    1      -17.362  85.512  12.898  0.00  0.00    -0.173 NA
ATOM      9  C   LIG    1      -18.483  86.228  12.987  0.00  0.00    +0.150 A 
ENDROOT
BRANCH   4  10
ATOM     10  N   LIG    1      -19.381  80.807  14.799  0.00  0.00    -0.308 N 
ATOM     11  C   LIG    1      -20.476  80.806  15.789  0.00  0.00    +0.107 C 
ATOM     12  C   LIG    1      -20.229  79.546  16.639  0.00  0.00    +0.029 C 
ATOM     13  C   LIG    1      -19.421  78.634  15.736  0.00  0.00    +0.021 C 
ATOM     14  C   LIG    1      -18.550  79.611  14.968  0.00  0.00    +0.107 C 
BRANCH  11  15
ATOM     15  C   LIG    1      -21.848  80.813  15.133  0.00  0.00    -0.001 A 
ATOM     16  CA  LIG    1      -22.821  81.777  15.470  0.00  0.00    +0.072 A 
ATOM     17  N   LIG    1      -24.046  81.841  14.864  0.00  0.00    -0.254 NA
ATOM     18  C   LIG    1      -24.323  80.910  13.919  0.00  0.00    +0.149 A 
ATOM     19  C   LIG    1      -23.445  79.911  13.553  0.00  0.00    +0.142 A 
ATOM     20  F   LIG    1      -23.774  79.017  12.613  0.00  0.00    -0.204 F 
ATOM     21  C   LIG    1      -22.202  79.856  14.165  0.00  0.00    +0.047 A 
BRANCH  16  22
ATOM     22  C   LIG    1      -22.568  82.815  16.551  0.00  0.00    +0.211 C 
BRANCH  22  23
ATOM     23  O   LIG    1      -22.160  84.075  16.021  0.00  0.00    -0.389 OA
ATOM     24  H   LIG    1      -21.872  83.894  15.103  0.00  0.00    +0.210 HD
ENDBRANCH  22  23
ENDBRANCH  16  22
ENDBRANCH  11  15
ENDBRANCH   4  10
BRANCH   1  27
ATOM     25  N   LIG    1      -21.154  86.573  14.805  0.00  0.00    -0.191 N 
ATOM     26  H   LIG    1      -20.439  86.644  15.516  0.00  0.00    +0.183 HD
ATOM     27  C   LIG    1      -20.941  85.972  13.584  0.00  0.00    +0.272 C 
ATOM     28  O   LIG    1      -21.791  85.808  12.728  0.00  0.00    -0.268 OA
BRANCH  25  30
ATOM     29  C   LIG    1      -22.513  88.447  14.863  0.00  0.00    +0.226 C 
ATOM     30  O   LIG    1      -22.461  87.039  15.057  0.00  0.00    -0.283 OA
ENDBRANCH  25  30
ENDBRANCH   1  27
TORSDOF 6
ENDMDL
MODEL 3
REMARK VINA RESULT:      -5.2      5.544      7.928
REMARK  Name = pdb/CHEMBL3675958.pdb
REMARK                            x       y       z     vdW  Elec       q    Type
REMARK                         _______ _______ _______ _____ _____    ______ ____
ROOT
ATOM      1  C   LIG    1      -23.547  76.499  30.382  0.00  0.00    +0.102 A 
ATOM      2  C   LIG    1      -24.043  75.334  30.942  0.00  0.00    +0.170 A 
ATOM      3  N   LIG    1      -23.471  74.110  31.212  0.00  0.00    -0.212 NA
ATOM      4  C   LIG    1      -24.244  73.154  31.689  0.00  0.00    +0.126 A 
ATOM      5  C   LIG    1      -25.696  73.407  32.034  0.00  0.00    +0.063 A 
ATOM      6  C   LIG    1      -26.198  74.614  31.758  0.00  0.00    +0.118 A 
ATOM      7  N   LIG    1      -25.395  75.586  31.196  0.00  0.00    -0.221 N 
ATOM      8  N   LIG    1      -25.764  76.836  30.842  0.00  0.00    -0.173 NA
ATOM      9  C   LIG    1      -24.655  77.369  30.328  0.00  0.00    +0.150 A 
ENDROOT
BRANCH   4  10
ATOM     10  N   LIG    1      -23.733  71.876  31.894  0.00  0.00    -0.308 N 
ATOM     11  C   LIG    1      -24.536  70.659  31.665  0.00  0.00    +0.107 C 
ATOM     12  C   LIG    1      -23.962  69.624  32.651  0.00  0.00    +0.029 C 
ATOM     13  C   LIG    1      -22.547  70.102  32.917  0.00  0.00    +0.021 C 
ATOM     14  C   LIG    1      -22.694  71.612  32.894  0.00  0.00    +0.107 C 
BRANCH  11  15
ATOM     15  C   LIG    1      -24.475  70.190  30.220  0.00  0.00    -0.001 A 
ATOM     16  CA  LIG    1      -25.639  69.816  29.517  0.00  0.00    +0.072 A 
ATOM     17  N   LIG    1      -25.626  69.437  28.202  0.00  0.00    -0.254 NA
ATOM     18  C   LIG    1      -24.424  69.403  27.576  0.00  0.00    +0.149 A 
ATOM     19  C   LIG    1      -23.233  69.719  28.197  0.00  0.00    +0.142 A 
ATOM     20  F   LIG    1      -22.074  69.665  27.527  0.00  0.00    -0.204 F 
ATOM     21  C   LIG    1      -23.254  70.109  29.526  0.00  0.00    +0.047 A 
BRANCH  16  22
ATOM     22  C   LIG    1      -27.002  69.802  30.190  0.00  0.00    +0.211 C 
BRANCH  22  23
ATOM     23  O   LIG    1      -27.982  70.544  29.466  0.00  0.00    -0.389 OA
ATOM     24  H   LIG    1      -27.846  71.479  29.721  0.00  0.00    +0.210 HD
ENDBRANCH  22  23
ENDBRANCH  16  22
ENDBRANCH  11  15
ENDBRANCH   4  10
BRANCH   1  27
ATOM     25  N   LIG    1      -21.466  77.550  30.801  0.00  0.00    -0.191 N 
ATOM     26  H   LIG    1      -21.823  77.858  31.695  0.00  0.00    +0.183 HD
ATOM     27  C   LIG    1      -22.211  76.809  29.910  0.00  0.00    +0.272 C 
ATOM     28  O   LIG    1      -21.842  76.474  28.800  0.00  0.00    -0.268 OA
BRANCH  25  30
ATOM     29  C   LIG    1      -19.198  77.219  31.131  0.00  0.00    +0.226 C 
ATOM     30  O   LIG    1      -20.175  77.928  30.378  0.00  0.00    -0.283 OA
ENDBRANCH  25  30
ENDBRANCH   1  27
TORSDOF 6
ENDMDL
MODEL 4
REMARK VINA RESULT:      -5.2      2.653      4.787
REMARK  Name = pdb/CHEMBL3675958.pdb
REMARK                            x       y       z     vdW  Elec       q    Type
REMARK                         _______ _______ _______ _____ _____    ______ ____
ROOT
ATOM      1  C   LIG    1      -20.668  76.895  30.746  0.00  0.00    +0.102 A 
ATOM      2  C   LIG    1      -21.910  77.281  31.221  0.00  0.00    +0.170 A 
ATOM      3  N   LIG    1      -22.361  77.643  32.472  0.00  0.00    -0.212 NA
ATOM      4  C   LIG    1      -23.648  77.888  32.621  0.00  0.00    +0.126 A 
ATOM      5  C   LIG    1      -24.599  77.877  31.444  0.00  0.00    +0.063 A 
ATOM      6  C   LIG    1      -24.108  77.527  30.252  0.00  0.00    +0.118 A 
ATOM      7  N   LIG    1      -22.770  77.207  30.121  0.00  0.00    -0.221 N 
ATOM      8  N   LIG    1      -22.139  76.815  28.995  0.00  0.00    -0.173 NA
ATOM      9  C   LIG    1      -20.881  76.602  29.383  0.00  0.00    +0.150 A 
ENDROOT
BRANCH   4  10
ATOM     10  N   LIG    1      -24.166  78.170  33.882  0.00  0.00    -0.308 N 
ATOM     11  C   LIG    1      -23.353  78.070  35.110  0.00  0.00    +0.107 C 
ATOM     12  C   LIG    1      -24.364  77.714  36.216  0.00  0.00    +0.029 C 
ATOM     13  C   LIG    1      -25.694  78.220  35.689  0.00  0.00    +0.021 C 
ATOM     14  C   LIG    1      -25.582  77.961  34.198  0.00  0.00    +0.107 C 
BRANCH  11  15
ATOM     15  C   LIG    1      -22.589  79.352  35.402  0.00  0.00    -0.001 A 
ATOM     16  CA  LIG    1      -21.194  79.346  35.612  0.00  0.00    +0.072 A 
ATOM     17  N   LIG    1      -20.469  80.486  35.829  0.00  0.00    -0.254 NA
ATOM     18  C   LIG    1      -21.148  81.659  35.864  0.00  0.00    +0.149 A 
ATOM     19  C   LIG    1      -22.515  81.752  35.703  0.00  0.00    +0.142 A 
ATOM     20  F   LIG    1      -23.133  82.939  35.750  0.00  0.00    -0.204 F 
ATOM     21  C   LIG    1      -23.243  80.595  35.477  0.00  0.00    +0.047 A 
BRANCH  16  22
ATOM     22  C   LIG    1      -20.398  78.050  35.620  0.00  0.00    +0.211 C 
BRANCH  22  23
ATOM     23  O   LIG    1      -19.009  78.256  35.369  0.00  0.00    -0.389 OA
ATOM     24  H   LIG    1      -18.679  77.408  35.008  0.00  0.00    +0.210 HD
ENDBRANCH  22  23
ENDBRANCH  16  22
ENDBRANCH  11  15
ENDBRANCH   4  10
BRANCH   1  27
ATOM     25  N   LIG    1      -19.111  77.844  32.259  0.00  0.00    -0.191 N 
ATOM     26  H   LIG    1      -19.718  78.647  32.351  0.00  0.00    +0.183 HD
ATOM     27  C   LIG    1      -19.403  76.772  31.444  0.00  0.00    +0.272 C 
ATOM     28  O   LIG    1      -18.670  75.819  31.256  0.00  0.00    -0.268 OA
BRANCH  25  30
ATOM     29  C   LIG    1      -16.964  78.710  32.300  0.00  0.00    +0.226 C 
ATOM     30  O   LIG    1      -17.869  77.807  32.925  0.00  0.00    -0.283 OA
ENDBRANCH  25  30
ENDBRANCH   1  27
TORSDOF 6
ENDMDL
MODEL 5
REMARK VINA RESULT:      -5.0      2.767      5.164
REMARK  Name = pdb/CHEMBL3675958.pdb
REMARK                            x       y       z     vdW  Elec       q    Type
REMARK                         _______ _______ _______ _____ _____    ______ ____
ROOT
ATOM      1  C   LIG    1      -23.100  80.116  35.325  0.00  0.00    +0.102 A 
ATOM      2  C   LIG    1      -23.350  79.166  34.349  0.00  0.00    +0.170 A 
ATOM      3  N   LIG    1      -22.552  78.573  33.395  0.00  0.00    -0.212 NA
ATOM      4  C   LIG    1      -23.117  77.742  32.541  0.00  0.00    +0.126 A 
ATOM      5  C   LIG    1      -24.576  77.358  32.656  0.00  0.00    +0.063 A 
ATOM      6  C   LIG    1      -25.303  77.956  33.604  0.00  0.00    +0.118 A 
ATOM      7  N   LIG    1      -24.715  78.876  34.450  0.00  0.00    -0.221 N 
ATOM      8  N   LIG    1      -25.322  79.575  35.433  0.00  0.00    -0.173 NA
ATOM      9  C   LIG    1      -24.351  80.338  35.936  0.00  0.00    +0.150 A 
ENDROOT
BRANCH   4  10
ATOM     10  N   LIG    1      -22.371  77.188  31.505  0.00  0.00    -0.308 N 
ATOM     11  C   LIG    1      -20.941  77.496  31.309  0.00  0.00    +0.107 C 
ATOM     12  C   LIG    1      -20.719  77.353  29.791  0.00  0.00    +0.029 C 
ATOM     13  C   LIG    1      -21.824  76.420  29.334  0.00  0.00    +0.021 C 
ATOM     14  C   LIG    1      -22.985  76.816  30.227  0.00  0.00    +0.107 C 
BRANCH  11  15
ATOM     15  C   LIG    1      -20.037  76.585  32.123  0.00  0.00    -0.001 A 
ATOM     16  CA  LIG    1      -18.945  77.095  32.856  0.00  0.00    +0.072 A 
ATOM     17  N   LIG    1      -18.141  76.310  33.638  0.00  0.00    -0.254 NA
ATOM     18  C   LIG    1      -18.413  74.983  33.674  0.00  0.00    +0.149 A 
ATOM     19  C   LIG    1      -19.438  74.395  32.963  0.00  0.00    +0.142 A 
ATOM     20  F   LIG    1      -19.657  73.076  33.036  0.00  0.00    -0.204 F 
ATOM     21  C   LIG    1      -20.253  75.196  32.178  0.00  0.00    +0.047 A 
BRANCH  16  22
ATOM     22  C   LIG    1      -18.581  78.570  32.814  0.00  0.00    +0.211 C 
BRANCH  22  23
ATOM     23  O   LIG    1      -19.513  79.388  33.518  0.00  0.00    -0.389 OA
ATOM     24  H   LIG    1      -20.287  78.815  33.692  0.00  0.00    +0.210 HD
ENDBRANCH  22  23
ENDBRANCH  16  22
ENDBRANCH  11  15
ENDBRANCH   4  10
BRANCH   1  27
ATOM     25  N   LIG    1      -20.820  79.930  35.941  0.00  0.00    -0.191 N 
ATOM     26  H   LIG    1      -20.914  78.924  35.912  0.00  0.00    +0.183 HD
ATOM     27  C   LIG    1      -21.863  80.789  35.671  0.00  0.00    +0.272 C 
ATOM     28  O   LIG    1      -21.810  82.002  35.759  0.00  0.00    -0.268 OA
BRANCH  25  30
ATOM     29  C   LIG    1      -18.794  79.561  36.999  0.00  0.00    +0.226 C 
ATOM     30  O   LIG    1      -19.603  80.524  36.336  0.00  0.00    -0.283 OA
ENDBRANCH  25  30
ENDBRANCH   1  27
TORSDOF 6
ENDMDL
MODEL 6
REMARK VINA RESULT:      -5.0     21.115     23.338
REMARK  Name = pdb/CHEMBL3675958.pdb
REMARK                            x       y       z     vdW  Elec       q    Type
REMARK                         _______ _______ _______ _____ _____    ______ ____
ROOT
ATOM      1  C   LIG    1      -31.800  93.713  22.373  0.00  0.00    +0.102 A 
ATOM      2  C   LIG    1      -32.432  93.331  21.202  0.00  0.00    +0.170 A 
ATOM      3  N   LIG    1      -33.523  92.528  20.948  0.00  0.00    -0.212 NA
ATOM      4  C   LIG    1      -33.839  92.291  19.690  0.00  0.00    +0.126 A 
ATOM      5  C   LIG    1      -33.101  92.954  18.548  0.00  0.00    +0.063 A 
ATOM      6  C   LIG    1      -32.055  93.728  18.851  0.00  0.00    +0.118 A 
ATOM      7  N   LIG    1      -31.692  93.916  20.170  0.00  0.00    -0.221 N 
ATOM      8  N   LIG    1      -30.652  94.646  20.627  0.00  0.00    -0.173 NA
ATOM      9  C   LIG    1      -30.707  94.497  21.951  0.00  0.00    +0.150 A 
ENDROOT
BRANCH   4  10
ATOM     10  N   LIG    1      -34.877  91.416  19.382  0.00  0.00    -0.308 N 
ATOM     11  C   LIG    1      -35.494  91.363  18.042  0.00  0.00    +0.107 C 
ATOM     12  C   LIG    1      -36.945  90.915  18.301  0.00  0.00    +0.029 C 
ATOM     13  C   LIG    1      -36.883  90.184  19.628  0.00  0.00    +0.021 C 
ATOM     14  C   LIG    1      -35.839  90.973  20.396  0.00  0.00    +0.107 C 
BRANCH  11  15
ATOM     15  C   LIG    1      -34.750  90.430  17.100  0.00  0.00    -0.001 A 
ATOM     16  CA  LIG    1      -34.733  90.650  15.707  0.00  0.00    +0.072 A 
ATOM     17  N   LIG    1      -34.034  89.858  14.836  0.00  0.00    -0.254 NA
ATOM     18  C   LIG    1      -33.354  88.808  15.359  0.00  0.00    +0.149 A 
ATOM     19  C   LIG    1      -33.344  88.500  16.703  0.00  0.00    +0.142 A 
ATOM     20  F   LIG    1      -32.656  87.447  17.161  0.00  0.00    -0.204 F 
ATOM     21  C   LIG    1      -34.049  89.309  17.581  0.00  0.00    +0.047 A 
BRANCH  16  22
ATOM     22  C   LIG    1      -35.513  91.792  15.075  0.00  0.00    +0.211 C 
BRANCH  22  23
ATOM     23  O   LIG    1      -34.737  92.981  14.942  0.00  0.00    -0.389 OA
ATOM     24  H   LIG    1      -34.806  93.438  15.805  0.00  0.00    +0.210 HD
ENDBRANCH  22  23
ENDBRANCH  16  22
ENDBRANCH  11  15
ENDBRANCH   4  10
BRANCH   1  27
ATOM     25  N   LIG    1      -33.473  93.332  24.007  0.00  0.00    -0.191 N 
ATOM     26  H   LIG    1      -34.175  93.510  23.302  0.00  0.00    +0.183 HD
ATOM     27  C   LIG    1      -32.120  93.391  23.751  0.00  0.00    +0.272 C 
ATOM     28  O   LIG    1      -31.245  93.249  24.585  0.00  0.00    -0.268 OA
BRANCH  25  30
ATOM     29  C   LIG    1      -35.204  92.645  25.382  0.00  0.00    +0.226 C 
ATOM     30  O   LIG    1      -33.849  93.075  25.341  0.00  0.00    -0.283 OA
ENDBRANCH  25  30
ENDBRANCH   1  27
TORSDOF 6
ENDMDL
MODEL 7
REMARK VINA RESULT:      -5.0     17.554     20.126
REMARK  Name = pdb/CHEMBL3675958.pdb
REMARK                            x       y       z     vdW  Elec       q    Type
REMARK                         _______ _______ _______ _____ _____    ______ ____
ROOT
ATOM      1  C   LIG    1      -22.757  84.360  12.400  0.00  0.00    +0.102 A 
ATOM      2  C   LIG    1      -21.539  83.909  12.877  0.00  0.00    +0.170 A 
ATOM      3  N   LIG    1      -21.124  82.695  13.381  0.00  0.00    -0.212 NA
ATOM      4  C   LIG    1      -19.889  82.600  13.835  0.00  0.00    +0.126 A 
ATOM      5  C   LIG    1      -18.912  83.749  13.719  0.00  0.00    +0.063 A 
ATOM      6  C   LIG    1      -19.364  84.901  13.216  0.00  0.00    +0.118 A 
ATOM      7  N   LIG    1      -20.678  85.008  12.806  0.00  0.00    -0.221 N 
ATOM      8  N   LIG    1      -21.282  86.107  12.303  0.00  0.00    -0.173 NA
ATOM      9  C   LIG    1      -22.539  85.717  12.088  0.00  0.00    +0.150 A 
ENDROOT
BRANCH   4  10
ATOM     10  N   LIG    1      -19.451  81.423  14.434  0.00  0.00    -0.308 N 
ATOM     11  C   LIG    1      -19.911  80.999  15.772  0.00  0.00    +0.107 C 
ATOM     12  C   LIG    1      -18.737  80.184  16.345  0.00  0.00    +0.029 C 
ATOM     13  C   LIG    1      -17.981  79.700  15.122  0.00  0.00    +0.021 C 
ATOM     14  C   LIG    1      -18.124  80.864  14.159  0.00  0.00    +0.107 C 
BRANCH  11  15
ATOM     15  C   LIG    1      -21.205  80.204  15.712  0.00  0.00    -0.001 A 
ATOM     16  CA  LIG    1      -22.429  80.754  16.149  0.00  0.00    +0.072 A 
ATOM     17  N   LIG    1      -23.619  80.084  16.065  0.00  0.00    -0.254 NA
ATOM     18  C   LIG    1      -23.591  78.827  15.558  0.00  0.00    +0.149 A 
ATOM     19  C   LIG    1      -22.436  78.200  15.139  0.00  0.00    +0.142 A 
ATOM     20  F   LIG    1      -22.470  76.955  14.649  0.00  0.00    -0.204 F 
ATOM     21  C   LIG    1      -21.235  78.886  15.221  0.00  0.00    +0.047 A 
BRANCH  16  22
ATOM     22  C   LIG    1      -22.499  82.144  16.761  0.00  0.00    +0.211 C 
BRANCH  22  23
ATOM     23  O   LIG    1      -22.960  83.129  15.837  0.00  0.00    -0.389 OA
ATOM     24  H   LIG    1      -22.179  83.681  15.629  0.00  0.00    +0.210 HD
ENDBRANCH  22  23
ENDBRANCH  16  22
ENDBRANCH  11  15
ENDBRANCH   4  10
BRANCH   1  27
ATOM     25  N   LIG    1      -24.312  82.822  13.313  0.00  0.00    -0.191 N 
ATOM     26  H   LIG    1      -23.699  82.703  14.108  0.00  0.00    +0.183 HD
ATOM     27  C   LIG    1      -24.018  83.656  12.257  0.00  0.00    +0.272 C 
ATOM     28  O   LIG    1      -24.696  83.778  11.253  0.00  0.00    -0.268 OA
BRANCH  25  30
ATOM     29  C   LIG    1      -25.189  80.734  12.833  0.00  0.00    +0.226 C 
ATOM     30  O   LIG    1      -25.500  82.070  13.208  0.00  0.00    -0.283 OA
ENDBRANCH  25  30
ENDBRANCH   1  27
TORSDOF 6
ENDMDL
MODEL 8
REMARK VINA RESULT:      -4.9     12.817     17.074
REMARK  Name = pdb/CHEMBL3675958.pdb
REMARK                            x       y       z     vdW  Elec       q    Type
REMARK                         _______ _______ _______ _____ _____    ______ ____
ROOT
ATOM      1  C   LIG    1      -33.961  77.904  27.838  0.00  0.00    +0.102 A 
ATOM      2  C   LIG    1      -34.877  76.910  27.537  0.00  0.00    +0.170 A 
ATOM      3  N   LIG    1      -35.967  76.867  26.695  0.00  0.00    -0.212 NA
ATOM      4  C   LIG    1      -36.703  75.773  26.688  0.00  0.00    +0.126 A 
ATOM      5  C   LIG    1      -36.318  74.553  27.496  0.00  0.00    +0.063 A 
ATOM      6  C   LIG    1      -35.248  74.646  28.289  0.00  0.00    +0.118 A 
ATOM      7  N   LIG    1      -34.523  75.821  28.339  0.00  0.00    -0.221 N 
ATOM      8  N   LIG    1      -33.441  76.071  29.106  0.00  0.00    -0.173 NA
ATOM      9  C   LIG    1      -33.124  77.334  28.819  0.00  0.00    +0.150 A 
ENDROOT
BRANCH   4  10
ATOM     10  N   LIG    1      -37.864  75.715  25.922  0.00  0.00    -0.308 N 
ATOM     11  C   LIG    1      -39.134  76.323  26.366  0.00  0.00    +0.107 C 
ATOM     12  C   LIG    1      -40.227  75.455  25.715  0.00  0.00    +0.029 C 
ATOM     13  C   LIG    1      -39.546  74.829  24.513  0.00  0.00    +0.021 C 
ATOM     14  C   LIG    1      -38.133  74.597  25.012  0.00  0.00    +0.107 C 
BRANCH  11  15
ATOM     15  C   LIG    1      -39.239  77.789  25.978  0.00  0.00    -0.001 A 
ATOM     16  CA  LIG    1      -39.037  78.817  26.922  0.00  0.00    +0.072 A 
ATOM     17  N   LIG    1      -39.076  80.146  26.596  0.00  0.00    -0.254 NA
ATOM     18  C   LIG    1      -39.347  80.463  25.306  0.00  0.00    +0.149 A 
ATOM     19  C   LIG    1      -39.592  79.523  24.326  0.00  0.00    +0.142 A 
ATOM     20  F   LIG    1      -39.858  79.896  23.068  0.00  0.00    -0.204 F 
ATOM     21  C   LIG    1      -39.544  78.179  24.661  0.00  0.00    +0.047 A 
BRANCH  16  22
ATOM     22  C   LIG    1      -38.769  78.508  28.386  0.00  0.00    +0.211 C 
BRANCH  22  23
ATOM     23  O   LIG    1      -37.425  78.793  28.772  0.00  0.00    -0.389 OA
ATOM     24  H   LIG    1      -36.876  78.110  28.338  0.00  0.00    +0.210 HD
ENDBRANCH  22  23
ENDBRANCH  16  22
ENDBRANCH  11  15
ENDBRANCH   4  10
BRANCH   1  27
ATOM     25  N   LIG    1      -34.957  80.036  27.563  0.00  0.00    -0.191 N 
ATOM     26  H   LIG    1      -35.775  79.695  28.048  0.00  0.00    +0.183 HD
ATOM     27  C   LIG    1      -33.850  79.253  27.318  0.00  0.00    +0.272 C 
ATOM     28  O   LIG    1      -32.874  79.605  26.682  0.00  0.00    -0.268 OA
BRANCH  25  30
ATOM     29  C   LIG    1      -35.968  82.118  27.627  0.00  0.00    +0.226 C 
ATOM     30  O   LIG    1      -34.931  81.344  27.037  0.00  0.00    -0.283 OA
ENDBRANCH  25  30
ENDBRANCH   1  27
TORSDOF 6
ENDMDL
MODEL 9
REMARK VINA RESULT:      -4.9     18.365     21.083
REMARK  Name = pdb/CHEMBL3675958.pdb
REMARK                            x       y       z     vdW  Elec       q    Type
REMARK                         _______ _______ _______ _____ _____    ______ ____
ROOT
ATOM      1  C   LIG    1      -23.154  81.615  14.991  0.00  0.00    +0.102 A 
ATOM      2  C   LIG    1      -23.618  82.367  13.927  0.00  0.00    +0.170 A 
ATOM      3  N   LIG    1      -23.154  83.514  13.320  0.00  0.00    -0.212 NA
ATOM      4  C   LIG    1      -23.880  84.043  12.354  0.00  0.00    +0.126 A 
ATOM      5  C   LIG    1      -25.135  83.368  11.844  0.00  0.00    +0.063 A 
ATOM      6  C   LIG    1      -25.536  82.254  12.463  0.00  0.00    +0.118 A 
ATOM      7  N   LIG    1      -24.803  81.746  13.518  0.00  0.00    -0.221 N 
ATOM      8  N   LIG    1      -25.094  80.651  14.252  0.00  0.00    -0.173 NA
ATOM      9  C   LIG    1      -24.113  80.594  15.153  0.00  0.00    +0.150 A 
ENDROOT
BRANCH   4  10
ATOM     10  N   LIG    1      -23.499  85.249  11.772  0.00  0.00    -0.308 N 
ATOM     11  C   LIG    1      -23.057  86.407  12.572  0.00  0.00    +0.107 C 
ATOM     12  C   LIG    1      -23.455  87.634  11.731  0.00  0.00    +0.029 C 
ATOM     13  C   LIG    1      -23.528  87.109  10.309  0.00  0.00    +0.021 C 
ATOM     14  C   LIG    1      -24.069  85.704  10.500  0.00  0.00    +0.107 C 
BRANCH  11  15
ATOM     15  C   LIG    1      -21.568  86.362  12.878  0.00  0.00    -0.001 A 
ATOM     16  CA  LIG    1      -21.045  86.903  14.072  0.00  0.00    +0.072 A 
ATOM     17  N   LIG    1      -19.718  86.837  14.401  0.00  0.00    -0.254 NA
ATOM     18  C   LIG    1      -18.886  86.241  13.512  0.00  0.00    +0.149 A 
ATOM     19  C   LIG    1      -19.306  85.717  12.308  0.00  0.00    +0.142 A 
ATOM     20  F   LIG    1      -18.436  85.141  11.468  0.00  0.00    -0.204 F 
ATOM     21  C   LIG    1      -20.652  85.781  11.983  0.00  0.00    +0.047 A 
BRANCH  16  22
ATOM     22  C   LIG    1      -21.936  87.615  15.078  0.00  0.00    +0.211 C 
BRANCH  22  23
ATOM     23  O   LIG    1      -21.537  87.383  16.427  0.00  0.00    -0.389 OA
ATOM     24  H   LIG    1      -20.666  87.819  16.523  0.00  0.00    +0.210 HD
ENDBRANCH  22  23
ENDBRANCH  16  22
ENDBRANCH  11  15
ENDBRANCH   4  10
BRANCH   1  27
ATOM     25  N   LIG    1      -20.879  81.079  15.382  0.00  0.00    -0.191 N 
ATOM     26  H   LIG    1      -20.903  80.473  14.573  0.00  0.00    +0.183 HD
ATOM     27  C   LIG    1      -21.973  81.797  15.814  0.00  0.00    +0.272 C 
ATOM     28  O   LIG    1      -22.004  82.485  16.817  0.00  0.00    -0.268 OA
BRANCH  25  30
ATOM     29  C   LIG    1      -18.599  80.683  15.436  0.00  0.00    +0.226 C 
ATOM     30  O   LIG    1      -19.714  81.173  16.170  0.00  0.00    -0.283 OA
ENDBRANCH  25  30
ENDBRANCH   1  27
TORSDOF 6
ENDMDL
