MODEL 1
REMARK VINA RESULT:      -6.8      0.000      0.000
REMARK  Name = pdb/CHEMBL260092.pdb
REMARK                            x       y       z     vdW  Elec       q    Type
REMARK                         _______ _______ _______ _____ _____    ______ ____
ROOT
ATOM      1  C   LIG    1      -32.920  75.802  29.928  0.00  0.00    -0.004 A 
ATOM      2  C   LIG    1      -33.049  74.835  28.931  0.00  0.00    +0.011 A 
ATOM      3  C   LIG    1      -33.884  75.076  27.832  0.00  0.00    +0.024 A 
ATOM      4  C   LIG    1      -34.616  76.267  27.727  0.00  0.00    +0.035 A 
ATOM      5  C   LIG    1      -34.502  77.219  28.739  0.00  0.00    +0.024 A 
ATOM      6  C   LIG    1      -33.650  76.992  29.827  0.00  0.00    +0.011 A 
ENDROOT
BRANCH   1  10
ATOM      7  C   LIG    1      -28.749  76.663  32.056  0.00  0.00    +0.147 A 
ATOM      8  C   LIG    1      -29.779  75.724  31.919  0.00  0.00    +0.143 A 
ATOM      9  N   LIG    1      -30.712  75.867  30.860  0.00  0.00    -0.245 NA
ATOM     10  C   LIG    1      -31.973  75.637  31.072  0.00  0.00    +0.051 C 
ATOM     11  C   LIG    1      -32.511  75.217  32.425  0.00  0.00    +0.074 C 
ATOM     12  C   LIG    1      -32.057  73.800  32.736  0.00  0.00    +0.109 C 
ATOM     13  N   LIG    1      -30.616  73.586  32.815  0.00  0.00    -0.327 N 
ATOM     14  H   LIG    1      -30.338  72.981  33.586  0.00  0.00    +0.148 HD
ATOM     15  C   LIG    1      -29.729  74.657  32.825  0.00  0.00    +0.149 A 
ATOM     16  N   LIG    1      -28.773  74.553  33.769  0.00  0.00    -0.219 NA
ATOM     17  C   LIG    1      -27.859  75.534  33.806  0.00  0.00    +0.225 A 
ATOM     18  N   LIG    1      -27.795  76.595  32.995  0.00  0.00    -0.219 NA
BRANCH   7  19
ATOM     19  N   LIG    1      -28.710  77.793  31.223  0.00  0.00    -0.341 N 
ATOM     20  H   LIG    1      -28.961  77.524  30.276  0.00  0.00    +0.144 HD
ATOM     21  H   LIG    1      -27.797  78.225  31.310  0.00  0.00    +0.144 HD
ENDBRANCH   7  19
ENDBRANCH   1  10
BRANCH   4  22
ATOM     22  N   LIG    1      -35.405  76.436  26.571  0.00  0.00    -0.269 N 
ATOM     23  H   LIG    1      -34.896  76.586  25.716  0.00  0.00    +0.156 HD
ATOM     24  C   LIG    1      -36.780  76.286  26.449  0.00  0.00    +0.308 C 
ATOM     25  N   LIG    1      -37.176  76.543  25.147  0.00  0.00    -0.269 N 
ATOM     26  H   LIG    1      -36.453  76.853  24.520  0.00  0.00    +0.156 HD
ATOM     27  O   LIG    1      -37.529  75.947  27.360  0.00  0.00    -0.252 OA
BRANCH  25  28
ATOM     28  C   LIG    1      -38.466  76.450  24.586  0.00  0.00    +0.035 A 
ATOM     29  C   LIG    1      -39.004  75.161  24.457  0.00  0.00    +0.035 A 
ATOM     30  C   LIG    1      -40.285  74.951  23.913  0.00  0.00    +0.057 A 
ATOM     31  C   LIG    1      -41.026  76.058  23.485  0.00  0.00    +0.012 A 
ATOM     32  C   LIG    1      -40.498  77.344  23.613  0.00  0.00    +0.002 A 
ATOM     33  C   LIG    1      -39.228  77.539  24.166  0.00  0.00    +0.023 A 
BRANCH  30  34
ATOM     34  C   LIG    1      -40.833  73.550  23.812  0.00  0.00    +0.417 C 
ATOM     35  F   LIG    1      -41.667  73.399  22.745  0.00  0.00    -0.166 F 
ATOM     36  F   LIG    1      -41.566  73.200  24.906  0.00  0.00    -0.166 F 
ATOM     37  F   LIG    1      -39.876  72.591  23.678  0.00  0.00    -0.166 F 
ENDBRANCH  30  34
ENDBRANCH  25  28
ENDBRANCH   4  22
TORSDOF 5
ENDMDL
MODEL 2
REMARK VINA RESULT:      -6.7      7.771     11.208
REMARK  Name = pdb/CHEMBL260092.pdb
REMARK                            x       y       z     vdW  Elec       q    Type
REMARK                         _______ _______ _______ _____ _____    ______ ____
ROOT
ATOM      1  C   LIG    1      -39.122  82.827  23.783  0.00  0.00    -0.004 A 
ATOM      2  C   LIG    1      -38.772  82.369  25.053  0.00  0.00    +0.011 A 
ATOM      3  C   LIG    1      -39.036  81.041  25.411  0.00  0.00    +0.024 A 
ATOM      4  C   LIG    1      -39.671  80.163  24.520  0.00  0.00    +0.035 A 
ATOM      5  C   LIG    1      -40.041  80.635  23.261  0.00  0.00    +0.024 A 
ATOM      6  C   LIG    1      -39.758  81.955  22.891  0.00  0.00    +0.011 A 
ENDROOT
BRANCH   1  10
ATOM      7  C   LIG    1      -36.787  86.946  24.281  0.00  0.00    +0.147 A 
ATOM      8  C   LIG    1      -37.958  86.360  23.785  0.00  0.00    +0.143 A 
ATOM      9  N   LIG    1      -38.298  85.042  24.185  0.00  0.00    -0.245 NA
ATOM     10  C   LIG    1      -38.780  84.205  23.317  0.00  0.00    +0.051 C 
ATOM     11  C   LIG    1      -38.998  84.571  21.862  0.00  0.00    +0.074 C 
ATOM     12  C   LIG    1      -40.147  85.560  21.753  0.00  0.00    +0.109 C 
ATOM     13  N   LIG    1      -39.972  86.832  22.444  0.00  0.00    -0.327 N 
ATOM     14  H   LIG    1      -40.295  87.634  21.906  0.00  0.00    +0.148 HD
ATOM     15  C   LIG    1      -38.741  87.197  22.980  0.00  0.00    +0.149 A 
ATOM     16  N   LIG    1      -38.385  88.464  22.691  0.00  0.00    -0.219 NA
ATOM     17  C   LIG    1      -37.227  88.893  23.213  0.00  0.00    +0.225 A 
ATOM     18  N   LIG    1      -36.398  88.197  23.998  0.00  0.00    -0.219 NA
BRANCH   7  19
ATOM     19  N   LIG    1      -35.905  86.195  25.076  0.00  0.00    -0.341 N 
ATOM     20  H   LIG    1      -35.737  86.687  25.950  0.00  0.00    +0.144 HD
ATOM     21  H   LIG    1      -35.071  86.000  24.535  0.00  0.00    +0.144 HD
ENDBRANCH   7  19
ENDBRANCH   1  10
BRANCH   4  22
ATOM     22  N   LIG    1      -39.866  78.837  24.954  0.00  0.00    -0.269 N 
ATOM     23  H   LIG    1      -40.589  78.707  25.642  0.00  0.00    +0.156 HD
ATOM     24  C   LIG    1      -39.281  77.682  24.454  0.00  0.00    +0.308 C 
ATOM     25  N   LIG    1      -39.729  76.574  25.154  0.00  0.00    -0.269 N 
ATOM     26  H   LIG    1      -40.336  76.764  25.934  0.00  0.00    +0.156 HD
ATOM     27  O   LIG    1      -38.500  77.648  23.507  0.00  0.00    -0.252 OA
BRANCH  25  28
ATOM     28  C   LIG    1      -39.430  75.215  24.935  0.00  0.00    +0.035 A 
ATOM     29  C   LIG    1      -40.416  74.450  24.293  0.00  0.00    +0.035 A 
ATOM     30  C   LIG    1      -40.223  73.083  24.020  0.00  0.00    +0.057 A 
ATOM     31  C   LIG    1      -39.022  72.480  24.411  0.00  0.00    +0.012 A 
ATOM     32  C   LIG    1      -38.036  73.235  25.047  0.00  0.00    +0.002 A 
ATOM     33  C   LIG    1      -38.236  74.596  25.302  0.00  0.00    +0.023 A 
BRANCH  30  34
ATOM     34  C   LIG    1      -41.301  72.304  23.310  0.00  0.00    +0.417 C 
ATOM     35  F   LIG    1      -41.942  73.052  22.368  0.00  0.00    -0.166 F 
ATOM     36  F   LIG    1      -42.273  71.870  24.159  0.00  0.00    -0.166 F 
ATOM     37  F   LIG    1      -40.846  71.197  22.662  0.00  0.00    -0.166 F 
ENDBRANCH  30  34
ENDBRANCH  25  28
ENDBRANCH   4  22
TORSDOF 5
ENDMDL
MODEL 3
REMARK VINA RESULT:      -6.6      5.744     13.064
REMARK  Name = pdb/CHEMBL260092.pdb
REMARK                            x       y       z     vdW  Elec       q    Type
REMARK                         _______ _______ _______ _____ _____    ______ ____
ROOT
ATOM      1  C   LIG    1      -41.059  72.851  23.384  0.00  0.00    -0.004 A 
ATOM      2  C   LIG    1      -40.781  74.180  23.704  0.00  0.00    +0.011 A 
ATOM      3  C   LIG    1      -39.619  74.496  24.419  0.00  0.00    +0.024 A 
ATOM      4  C   LIG    1      -38.735  73.493  24.844  0.00  0.00    +0.035 A 
ATOM      5  C   LIG    1      -39.031  72.164  24.543  0.00  0.00    +0.024 A 
ATOM      6  C   LIG    1      -40.180  71.847  23.807  0.00  0.00    +0.011 A 
ENDROOT
BRANCH   1  10
ATOM      7  C   LIG    1      -43.365  69.769  20.583  0.00  0.00    +0.147 A 
ATOM      8  C   LIG    1      -43.165  71.129  20.848  0.00  0.00    +0.143 A 
ATOM      9  N   LIG    1      -42.075  71.524  21.665  0.00  0.00    -0.245 NA
ATOM     10  C   LIG    1      -42.233  72.469  22.543  0.00  0.00    +0.051 C 
ATOM     11  C   LIG    1      -43.554  73.183  22.747  0.00  0.00    +0.074 C 
ATOM     12  C   LIG    1      -43.847  74.063  21.542  0.00  0.00    +0.109 C 
ATOM     13  N   LIG    1      -43.976  73.381  20.260  0.00  0.00    -0.327 N 
ATOM     14  H   LIG    1      -44.741  73.734  19.688  0.00  0.00    +0.148 HD
ATOM     15  C   LIG    1      -44.046  71.994  20.187  0.00  0.00    +0.149 A 
ATOM     16  N   LIG    1      -45.023  71.549  19.372  0.00  0.00    -0.219 NA
ATOM     17  C   LIG    1      -45.118  70.220  19.223  0.00  0.00    +0.225 A 
ATOM     18  N   LIG    1      -44.337  69.295  19.791  0.00  0.00    -0.219 NA
BRANCH   7  19
ATOM     19  N   LIG    1      -42.562  68.802  21.212  0.00  0.00    -0.341 N 
ATOM     20  H   LIG    1      -41.833  68.500  20.571  0.00  0.00    +0.144 HD
ATOM     21  H   LIG    1      -43.160  68.058  21.552  0.00  0.00    +0.144 HD
ENDBRANCH   7  19
ENDBRANCH   1  10
BRANCH   4  22
ATOM     22  N   LIG    1      -37.576  73.907  25.530  0.00  0.00    -0.269 N 
ATOM     23  H   LIG    1      -36.739  73.391  25.318  0.00  0.00    +0.156 HD
ATOM     24  C   LIG    1      -37.423  75.016  26.351  0.00  0.00    +0.308 C 
ATOM     25  N   LIG    1      -36.129  75.075  26.841  0.00  0.00    -0.269 N 
ATOM     26  H   LIG    1      -35.531  74.303  26.596  0.00  0.00    +0.156 HD
ATOM     27  O   LIG    1      -38.302  75.839  26.584  0.00  0.00    -0.252 OA
BRANCH  25  28
ATOM     28  C   LIG    1      -35.541  76.063  27.657  0.00  0.00    +0.035 A 
ATOM     29  C   LIG    1      -34.501  76.812  27.088  0.00  0.00    +0.035 A 
ATOM     30  C   LIG    1      -33.846  77.826  27.810  0.00  0.00    +0.057 A 
ATOM     31  C   LIG    1      -34.241  78.077  29.129  0.00  0.00    +0.012 A 
ATOM     32  C   LIG    1      -35.277  77.338  29.701  0.00  0.00    +0.002 A 
ATOM     33  C   LIG    1      -35.927  76.340  28.967  0.00  0.00    +0.023 A 
BRANCH  30  34
ATOM     34  C   LIG    1      -32.747  78.621  27.152  0.00  0.00    +0.417 C 
ATOM     35  F   LIG    1      -31.686  78.821  27.985  0.00  0.00    -0.166 F 
ATOM     36  F   LIG    1      -33.159  79.864  26.776  0.00  0.00    -0.166 F 
ATOM     37  F   LIG    1      -32.238  78.039  26.032  0.00  0.00    -0.166 F 
ENDBRANCH  30  34
ENDBRANCH  25  28
ENDBRANCH   4  22
TORSDOF 5
ENDMDL
MODEL 4
REMARK VINA RESULT:      -6.5      5.387     12.720
REMARK  Name = pdb/CHEMBL260092.pdb
REMARK                            x       y       z     vdW  Elec       q    Type
REMARK                         _______ _______ _______ _____ _____    ______ ____
ROOT
ATOM      1  C   LIG    1      -40.872  73.296  23.763  0.00  0.00    -0.004 A 
ATOM      2  C   LIG    1      -40.859  74.690  23.837  0.00  0.00    +0.011 A 
ATOM      3  C   LIG    1      -39.713  75.351  24.298  0.00  0.00    +0.024 A 
ATOM      4  C   LIG    1      -38.581  74.634  24.713  0.00  0.00    +0.035 A 
ATOM      5  C   LIG    1      -38.611  73.241  24.660  0.00  0.00    +0.024 A 
ATOM      6  C   LIG    1      -39.745  72.577  24.177  0.00  0.00    +0.011 A 
ENDROOT
BRANCH   1  10
ATOM      7  C   LIG    1      -42.699  70.094  20.751  0.00  0.00    +0.147 A 
ATOM      8  C   LIG    1      -42.966  71.284  21.438  0.00  0.00    +0.143 A 
ATOM      9  N   LIG    1      -41.891  72.007  22.017  0.00  0.00    -0.245 NA
ATOM     10  C   LIG    1      -42.031  72.546  23.191  0.00  0.00    +0.051 C 
ATOM     11  C   LIG    1      -43.312  72.437  23.993  0.00  0.00    +0.074 C 
ATOM     12  C   LIG    1      -44.401  73.264  23.329  0.00  0.00    +0.109 C 
ATOM     13  N   LIG    1      -44.767  72.879  21.971  0.00  0.00    -0.327 N 
ATOM     14  H   LIG    1      -45.771  72.901  21.801  0.00  0.00    +0.148 HD
ATOM     15  C   LIG    1      -44.304  71.694  21.410  0.00  0.00    +0.149 A 
ATOM     16  N   LIG    1      -45.265  70.986  20.784  0.00  0.00    -0.219 NA
ATOM     17  C   LIG    1      -44.877  69.852  20.184  0.00  0.00    +0.225 A 
ATOM     18  N   LIG    1      -43.635  69.359  20.134  0.00  0.00    -0.219 NA
BRANCH   7  19
ATOM     19  N   LIG    1      -41.397  69.565  20.734  0.00  0.00    -0.341 N 
ATOM     20  H   LIG    1      -40.774  70.218  20.266  0.00  0.00    +0.144 HD
ATOM     21  H   LIG    1      -41.429  68.642  20.318  0.00  0.00    +0.144 HD
ENDBRANCH   7  19
ENDBRANCH   1  10
BRANCH   4  22
ATOM     22  N   LIG    1      -37.465  75.384  25.132  0.00  0.00    -0.269 N 
ATOM     23  H   LIG    1      -37.026  75.944  24.420  0.00  0.00    +0.156 HD
ATOM     24  C   LIG    1      -36.984  75.548  26.424  0.00  0.00    +0.308 C 
ATOM     25  N   LIG    1      -35.862  76.359  26.420  0.00  0.00    -0.269 N 
ATOM     26  H   LIG    1      -35.530  76.646  25.514  0.00  0.00    +0.156 HD
ATOM     27  O   LIG    1      -37.500  75.065  27.427  0.00  0.00    -0.252 OA
BRANCH  25  28
ATOM     28  C   LIG    1      -35.105  76.820  27.516  0.00  0.00    +0.035 A 
ATOM     29  C   LIG    1      -34.046  76.002  27.938  0.00  0.00    +0.035 A 
ATOM     30  C   LIG    1      -33.223  76.365  29.020  0.00  0.00    +0.057 A 
ATOM     31  C   LIG    1      -33.482  77.566  29.690  0.00  0.00    +0.012 A 
ATOM     32  C   LIG    1      -34.531  78.386  29.275  0.00  0.00    +0.002 A 
ATOM     33  C   LIG    1      -35.335  78.018  28.190  0.00  0.00    +0.023 A 
BRANCH  30  34
ATOM     34  C   LIG    1      -32.083  75.466  29.426  0.00  0.00    +0.417 C 
ATOM     35  F   LIG    1      -32.236  74.196  28.956  0.00  0.00    -0.166 F 
ATOM     36  F   LIG    1      -31.972  75.349  30.778  0.00  0.00    -0.166 F 
ATOM     37  F   LIG    1      -30.865  75.885  28.983  0.00  0.00    -0.166 F 
ENDBRANCH  30  34
ENDBRANCH  25  28
ENDBRANCH   4  22
TORSDOF 5
ENDMDL
MODEL 5
REMARK VINA RESULT:      -6.4      8.582     10.569
REMARK  Name = pdb/CHEMBL260092.pdb
REMARK                            x       y       z     vdW  Elec       q    Type
REMARK                         _______ _______ _______ _____ _____    ______ ____
ROOT
ATOM      1  C   LIG    1      -39.639  75.120  24.444  0.00  0.00    -0.004 A 
ATOM      2  C   LIG    1      -40.720  75.764  23.840  0.00  0.00    +0.011 A 
ATOM      3  C   LIG    1      -40.588  77.093  23.415  0.00  0.00    +0.024 A 
ATOM      4  C   LIG    1      -39.392  77.800  23.608  0.00  0.00    +0.035 A 
ATOM      5  C   LIG    1      -38.325  77.158  24.234  0.00  0.00    +0.024 A 
ATOM      6  C   LIG    1      -38.444  75.823  24.639  0.00  0.00    +0.011 A 
ENDROOT
BRANCH   1  10
ATOM      7  C   LIG    1      -37.663  70.800  24.755  0.00  0.00    +0.147 A 
ATOM      8  C   LIG    1      -38.876  71.483  24.603  0.00  0.00    +0.143 A 
ATOM      9  N   LIG    1      -38.859  72.860  24.264  0.00  0.00    -0.245 NA
ATOM     10  C   LIG    1      -39.694  73.678  24.831  0.00  0.00    +0.051 C 
ATOM     11  C   LIG    1      -40.707  73.226  25.863  0.00  0.00    +0.074 C 
ATOM     12  C   LIG    1      -41.776  72.379  25.191  0.00  0.00    +0.109 C 
ATOM     13  N   LIG    1      -41.318  71.155  24.544  0.00  0.00    -0.327 N 
ATOM     14  H   LIG    1      -41.931  70.358  24.703  0.00  0.00    +0.148 HD
ATOM     15  C   LIG    1      -40.021  70.686  24.726  0.00  0.00    +0.149 A 
ATOM     16  N   LIG    1      -39.960  69.366  24.989  0.00  0.00    -0.219 NA
ATOM     17  C   LIG    1      -38.734  68.842  25.134  0.00  0.00    +0.225 A 
ATOM     18  N   LIG    1      -37.570  69.492  25.034  0.00  0.00    -0.219 NA
BRANCH   7  19
ATOM     19  N   LIG    1      -36.446  71.499  24.683  0.00  0.00    -0.341 N 
ATOM     20  H   LIG    1      -35.705  70.929  25.082  0.00  0.00    +0.144 HD
ATOM     21  H   LIG    1      -36.567  72.403  25.125  0.00  0.00    +0.144 HD
ENDBRANCH   7  19
ENDBRANCH   1  10
BRANCH   4  22
ATOM     22  N   LIG    1      -39.342  79.120  23.119  0.00  0.00    -0.269 N 
ATOM     23  H   LIG    1      -39.361  79.214  22.118  0.00  0.00    +0.156 HD
ATOM     24  C   LIG    1      -39.406  80.301  23.847  0.00  0.00    +0.308 C 
ATOM     25  N   LIG    1      -39.319  81.393  22.999  0.00  0.00    -0.269 N 
ATOM     26  H   LIG    1      -39.161  81.183  22.027  0.00  0.00    +0.156 HD
ATOM     27  O   LIG    1      -39.548  80.364  25.064  0.00  0.00    -0.252 OA
BRANCH  25  28
ATOM     28  C   LIG    1      -39.400  82.763  23.318  0.00  0.00    +0.035 A 
ATOM     29  C   LIG    1      -38.279  83.330  23.944  0.00  0.00    +0.035 A 
ATOM     30  C   LIG    1      -38.249  84.690  24.303  0.00  0.00    +0.057 A 
ATOM     31  C   LIG    1      -39.371  85.483  24.038  0.00  0.00    +0.012 A 
ATOM     32  C   LIG    1      -40.488  84.927  23.414  0.00  0.00    +0.002 A 
ATOM     33  C   LIG    1      -40.500  83.576  23.051  0.00  0.00    +0.023 A 
BRANCH  30  34
ATOM     34  C   LIG    1      -37.016  85.263  24.954  0.00  0.00    +0.417 C 
ATOM     35  F   LIG    1      -36.031  84.332  25.102  0.00  0.00    -0.166 F 
ATOM     36  F   LIG    1      -37.263  85.739  26.206  0.00  0.00    -0.166 F 
ATOM     37  F   LIG    1      -36.455  86.294  24.264  0.00  0.00    -0.166 F 
ENDBRANCH  30  34
ENDBRANCH  25  28
ENDBRANCH   4  22
TORSDOF 5
ENDMDL
MODEL 6
REMARK VINA RESULT:      -6.3      5.612     12.928
REMARK  Name = pdb/CHEMBL260092.pdb
REMARK                            x       y       z     vdW  Elec       q    Type
REMARK                         _______ _______ _______ _____ _____    ______ ____
ROOT
ATOM      1  C   LIG    1      -41.086  73.731  23.540  0.00  0.00    -0.004 A 
ATOM      2  C   LIG    1      -40.146  72.755  23.871  0.00  0.00    +0.011 A 
ATOM      3  C   LIG    1      -39.036  73.096  24.655  0.00  0.00    +0.024 A 
ATOM      4  C   LIG    1      -38.838  74.413  25.097  0.00  0.00    +0.035 A 
ATOM      5  C   LIG    1      -39.769  75.388  24.742  0.00  0.00    +0.024 A 
ATOM      6  C   LIG    1      -40.892  75.047  23.978  0.00  0.00    +0.011 A 
ENDROOT
BRANCH   1  10
ATOM      7  C   LIG    1      -43.762  70.728  20.994  0.00  0.00    +0.147 A 
ATOM      8  C   LIG    1      -43.458  72.079  21.199  0.00  0.00    +0.143 A 
ATOM      9  N   LIG    1      -42.295  72.424  21.934  0.00  0.00    -0.245 NA
ATOM     10  C   LIG    1      -42.334  73.403  22.787  0.00  0.00    +0.051 C 
ATOM     11  C   LIG    1      -43.590  74.211  23.047  0.00  0.00    +0.074 C 
ATOM     12  C   LIG    1      -43.902  75.072  21.833  0.00  0.00    +0.109 C 
ATOM     13  N   LIG    1      -44.156  74.361  20.585  0.00  0.00    -0.327 N 
ATOM     14  H   LIG    1      -44.932  74.747  20.050  0.00  0.00    +0.148 HD
ATOM     15  C   LIG    1      -44.321  72.980  20.564  0.00  0.00    +0.149 A 
ATOM     16  N   LIG    1      -45.375  72.578  19.827  0.00  0.00    -0.219 NA
ATOM     17  C   LIG    1      -45.566  71.254  19.730  0.00  0.00    +0.225 A 
ATOM     18  N   LIG    1      -44.812  70.296  20.281  0.00  0.00    -0.219 NA
BRANCH   7  19
ATOM     19  N   LIG    1      -42.985  69.729  21.605  0.00  0.00    -0.341 N 
ATOM     20  H   LIG    1      -42.573  69.137  20.889  0.00  0.00    +0.144 HD
ATOM     21  H   LIG    1      -43.563  69.237  22.277  0.00  0.00    +0.144 HD
ENDBRANCH   7  19
ENDBRANCH   1  10
BRANCH   4  22
ATOM     22  N   LIG    1      -37.712  74.655  25.908  0.00  0.00    -0.269 N 
ATOM     23  H   LIG    1      -37.370  73.863  26.425  0.00  0.00    +0.156 HD
ATOM     24  C   LIG    1      -36.942  75.809  25.973  0.00  0.00    +0.308 C 
ATOM     25  N   LIG    1      -35.922  75.653  26.897  0.00  0.00    -0.269 N 
ATOM     26  H   LIG    1      -35.926  74.789  27.414  0.00  0.00    +0.156 HD
ATOM     27  O   LIG    1      -37.125  76.810  25.288  0.00  0.00    -0.252 OA
BRANCH  25  28
ATOM     28  C   LIG    1      -34.890  76.554  27.228  0.00  0.00    +0.035 A 
ATOM     29  C   LIG    1      -35.283  77.813  27.706  0.00  0.00    +0.035 A 
ATOM     30  C   LIG    1      -34.336  78.789  28.069  0.00  0.00    +0.057 A 
ATOM     31  C   LIG    1      -32.975  78.490  27.937  0.00  0.00    +0.012 A 
ATOM     32  C   LIG    1      -32.577  77.239  27.465  0.00  0.00    +0.002 A 
ATOM     33  C   LIG    1      -33.528  76.274  27.118  0.00  0.00    +0.023 A 
BRANCH  30  34
ATOM     34  C   LIG    1      -34.803  80.121  28.599  0.00  0.00    +0.417 C 
ATOM     35  F   LIG    1      -34.593  81.131  27.708  0.00  0.00    -0.166 F 
ATOM     36  F   LIG    1      -34.144  80.488  29.733  0.00  0.00    -0.166 F 
ATOM     37  F   LIG    1      -36.129  80.160  28.904  0.00  0.00    -0.166 F 
ENDBRANCH  30  34
ENDBRANCH  25  28
ENDBRANCH   4  22
TORSDOF 5
ENDMDL
MODEL 7
REMARK VINA RESULT:      -6.3     10.356     11.498
REMARK  Name = pdb/CHEMBL260092.pdb
REMARK                            x       y       z     vdW  Elec       q    Type
REMARK                         _______ _______ _______ _____ _____    ______ ____
ROOT
ATOM      1  C   LIG    1      -31.783  86.913  31.190  0.00  0.00    -0.004 A 
ATOM      2  C   LIG    1      -31.801  85.627  30.649  0.00  0.00    +0.011 A 
ATOM      3  C   LIG    1      -32.459  85.393  29.435  0.00  0.00    +0.024 A 
ATOM      4  C   LIG    1      -33.126  86.427  28.761  0.00  0.00    +0.035 A 
ATOM      5  C   LIG    1      -33.126  87.704  29.320  0.00  0.00    +0.024 A 
ATOM      6  C   LIG    1      -32.448  87.948  30.522  0.00  0.00    +0.011 A 
ENDROOT
BRANCH   1  10
ATOM      7  C   LIG    1      -28.979  89.799  33.734  0.00  0.00    +0.147 A 
ATOM      8  C   LIG    1      -29.317  88.460  33.506  0.00  0.00    +0.143 A 
ATOM      9  N   LIG    1      -30.068  88.121  32.351  0.00  0.00    -0.245 NA
ATOM     10  C   LIG    1      -31.017  87.238  32.431  0.00  0.00    +0.051 C 
ATOM     11  C   LIG    1      -31.375  86.538  33.727  0.00  0.00    +0.074 C 
ATOM     12  C   LIG    1      -30.260  85.578  34.112  0.00  0.00    +0.109 C 
ATOM     13  N   LIG    1      -28.950  86.173  34.349  0.00  0.00    -0.327 N 
ATOM     14  H   LIG    1      -28.467  85.782  35.156  0.00  0.00    +0.148 HD
ATOM     15  C   LIG    1      -28.789  87.552  34.433  0.00  0.00    +0.149 A 
ATOM     16  N   LIG    1      -28.029  87.940  35.475  0.00  0.00    -0.219 NA
ATOM     17  C   LIG    1      -27.800  89.257  35.590  0.00  0.00    +0.225 A 
ATOM     18  N   LIG    1      -28.239  90.218  34.771  0.00  0.00    -0.219 NA
BRANCH   7  19
ATOM     19  N   LIG    1      -29.474  90.806  32.889  0.00  0.00    -0.341 N 
ATOM     20  H   LIG    1      -30.399  91.086  33.203  0.00  0.00    +0.144 HD
ATOM     21  H   LIG    1      -29.437  90.470  31.933  0.00  0.00    +0.144 HD
ENDBRANCH   7  19
ENDBRANCH   1  10
BRANCH   4  22
ATOM     22  N   LIG    1      -33.733  86.105  27.531  0.00  0.00    -0.269 N 
ATOM     23  H   LIG    1      -33.135  86.160  26.724  0.00  0.00    +0.156 HD
ATOM     24  C   LIG    1      -35.007  85.595  27.318  0.00  0.00    +0.308 C 
ATOM     25  N   LIG    1      -35.232  85.416  25.963  0.00  0.00    -0.269 N 
ATOM     26  H   LIG    1      -34.497  85.731  25.351  0.00  0.00    +0.156 HD
ATOM     27  O   LIG    1      -35.806  85.316  28.207  0.00  0.00    -0.252 OA
BRANCH  25  28
ATOM     28  C   LIG    1      -36.363  84.872  25.323  0.00  0.00    +0.035 A 
ATOM     29  C   LIG    1      -37.136  85.754  24.554  0.00  0.00    +0.035 A 
ATOM     30  C   LIG    1      -38.285  85.318  23.869  0.00  0.00    +0.057 A 
ATOM     31  C   LIG    1      -38.663  83.975  23.973  0.00  0.00    +0.012 A 
ATOM     32  C   LIG    1      -37.898  83.090  24.733  0.00  0.00    +0.002 A 
ATOM     33  C   LIG    1      -36.751  83.535  25.400  0.00  0.00    +0.023 A 
BRANCH  30  34
ATOM     34  C   LIG    1      -39.075  86.296  23.036  0.00  0.00    +0.417 C 
ATOM     35  F   LIG    1      -38.326  87.369  22.653  0.00  0.00    -0.166 F 
ATOM     36  F   LIG    1      -40.139  86.813  23.713  0.00  0.00    -0.166 F 
ATOM     37  F   LIG    1      -39.580  85.764  21.890  0.00  0.00    -0.166 F 
ENDBRANCH  30  34
ENDBRANCH  25  28
ENDBRANCH   4  22
TORSDOF 5
ENDMDL
MODEL 8
REMARK VINA RESULT:      -6.3     22.572     24.392
REMARK  Name = pdb/CHEMBL260092.pdb
REMARK                            x       y       z     vdW  Elec       q    Type
REMARK                         _______ _______ _______ _____ _____    ______ ____
ROOT
ATOM      1  C   LIG    1      -22.830  89.082  11.763  0.00  0.00    -0.004 A 
ATOM      2  C   LIG    1      -23.696  88.004  11.579  0.00  0.00    +0.011 A 
ATOM      3  C   LIG    1      -23.702  86.951  12.502  0.00  0.00    +0.024 A 
ATOM      4  C   LIG    1      -22.832  86.947  13.603  0.00  0.00    +0.035 A 
ATOM      5  C   LIG    1      -21.952  88.016  13.767  0.00  0.00    +0.024 A 
ATOM      6  C   LIG    1      -21.959  89.082  12.859  0.00  0.00    +0.011 A 
ENDROOT
BRANCH   1  10
ATOM      7  C   LIG    1      -20.599  92.464   9.263  0.00  0.00    +0.147 A 
ATOM      8  C   LIG    1      -21.765  92.168   9.979  0.00  0.00    +0.143 A 
ATOM      9  N   LIG    1      -21.790  91.027  10.822  0.00  0.00    -0.245 NA
ATOM     10  C   LIG    1      -22.848  90.274  10.862  0.00  0.00    +0.051 C 
ATOM     11  C   LIG    1      -24.083  90.555  10.031  0.00  0.00    +0.074 C 
ATOM     12  C   LIG    1      -24.779  91.800  10.559  0.00  0.00    +0.109 C 
ATOM     13  N   LIG    1      -24.006  93.036  10.524  0.00  0.00    -0.327 N 
ATOM     14  H   LIG    1      -24.547  93.844  10.223  0.00  0.00    +0.148 HD
ATOM     15  C   LIG    1      -22.794  93.108   9.846  0.00  0.00    +0.149 A 
ATOM     16  N   LIG    1      -22.677  94.205   9.072  0.00  0.00    -0.219 NA
ATOM     17  C   LIG    1      -21.514  94.357   8.423  0.00  0.00    +0.225 A 
ATOM     18  N   LIG    1      -20.458  93.538   8.473  0.00  0.00    -0.219 NA
BRANCH   7  19
ATOM     19  N   LIG    1      -19.507  91.580   9.294  0.00  0.00    -0.341 N 
ATOM     20  H   LIG    1      -18.824  91.862   8.597  0.00  0.00    +0.144 HD
ATOM     21  H   LIG    1      -19.856  90.634   9.184  0.00  0.00    +0.144 HD
ENDBRANCH   7  19
ENDBRANCH   1  10
BRANCH   4  22
ATOM     22  N   LIG    1      -22.931  85.862  14.496  0.00  0.00    -0.269 N 
ATOM     23  H   LIG    1      -23.493  86.024  15.315  0.00  0.00    +0.156 HD
ATOM     24  C   LIG    1      -22.465  84.567  14.318  0.00  0.00    +0.308 C 
ATOM     25  N   LIG    1      -22.756  83.795  15.430  0.00  0.00    -0.269 N 
ATOM     26  H   LIG    1      -23.185  84.279  16.201  0.00  0.00    +0.156 HD
ATOM     27  O   LIG    1      -21.902  84.160  13.306  0.00  0.00    -0.252 OA
BRANCH  25  28
ATOM     28  C   LIG    1      -22.511  82.422  15.637  0.00  0.00    +0.035 A 
ATOM     29  C   LIG    1      -23.594  81.552  15.434  0.00  0.00    +0.035 A 
ATOM     30  C   LIG    1      -23.461  80.163  15.608  0.00  0.00    +0.057 A 
ATOM     31  C   LIG    1      -22.222  79.647  16.003  0.00  0.00    +0.012 A 
ATOM     32  C   LIG    1      -21.140  80.505  16.204  0.00  0.00    +0.002 A 
ATOM     33  C   LIG    1      -21.282  81.885  16.016  0.00  0.00    +0.023 A 
BRANCH  30  34
ATOM     34  C   LIG    1      -24.645  79.263  15.359  0.00  0.00    +0.417 C 
ATOM     35  F   LIG    1      -24.325  78.196  14.574  0.00  0.00    -0.166 F 
ATOM     36  F   LIG    1      -25.658  79.905  14.712  0.00  0.00    -0.166 F 
ATOM     37  F   LIG    1      -25.192  78.743  16.492  0.00  0.00    -0.166 F 
ENDBRANCH  30  34
ENDBRANCH  25  28
ENDBRANCH   4  22
TORSDOF 5
ENDMDL
MODEL 9
REMARK VINA RESULT:      -6.3      9.798     10.893
REMARK  Name = pdb/CHEMBL260092.pdb
REMARK                            x       y       z     vdW  Elec       q    Type
REMARK                         _______ _______ _______ _____ _____    ______ ____
ROOT
ATOM      1  C   LIG    1      -31.837  86.704  31.193  0.00  0.00    -0.004 A 
ATOM      2  C   LIG    1      -31.975  85.386  30.754  0.00  0.00    +0.011 A 
ATOM      3  C   LIG    1      -32.612  85.122  29.535  0.00  0.00    +0.024 A 
ATOM      4  C   LIG    1      -33.140  86.160  28.754  0.00  0.00    +0.035 A 
ATOM      5  C   LIG    1      -33.022  87.472  29.210  0.00  0.00    +0.024 A 
ATOM      6  C   LIG    1      -32.364  87.743  30.416  0.00  0.00    +0.011 A 
ENDROOT
BRANCH   1  10
ATOM      7  C   LIG    1      -29.041  89.621  33.709  0.00  0.00    +0.147 A 
ATOM      8  C   LIG    1      -29.387  88.280  33.506  0.00  0.00    +0.143 A 
ATOM      9  N   LIG    1      -30.126  87.922  32.349  0.00  0.00    -0.245 NA
ATOM     10  C   LIG    1      -31.084  87.049  32.436  0.00  0.00    +0.051 C 
ATOM     11  C   LIG    1      -31.465  86.380  33.742  0.00  0.00    +0.074 C 
ATOM     12  C   LIG    1      -30.363  85.420  34.162  0.00  0.00    +0.109 C 
ATOM     13  N   LIG    1      -29.050  86.008  34.402  0.00  0.00    -0.327 N 
ATOM     14  H   LIG    1      -28.581  85.631  35.224  0.00  0.00    +0.148 HD
ATOM     15  C   LIG    1      -28.879  87.388  34.458  0.00  0.00    +0.149 A 
ATOM     16  N   LIG    1      -28.129  87.793  35.502  0.00  0.00    -0.219 NA
ATOM     17  C   LIG    1      -27.890  89.109  35.591  0.00  0.00    +0.225 A 
ATOM     18  N   LIG    1      -28.310  90.056  34.746  0.00  0.00    -0.219 NA
BRANCH   7  19
ATOM     19  N   LIG    1      -29.516  90.613  32.836  0.00  0.00    -0.341 N 
ATOM     20  H   LIG    1      -30.355  90.278  32.370  0.00  0.00    +0.144 HD
ATOM     21  H   LIG    1      -28.764  90.879  32.210  0.00  0.00    +0.144 HD
ENDBRANCH   7  19
ENDBRANCH   1  10
BRANCH   4  22
ATOM     22  N   LIG    1      -33.736  85.801  27.528  0.00  0.00    -0.269 N 
ATOM     23  H   LIG    1      -33.127  85.355  26.864  0.00  0.00    +0.156 HD
ATOM     24  C   LIG    1      -35.079  85.866  27.182  0.00  0.00    +0.308 C 
ATOM     25  N   LIG    1      -35.262  85.426  25.882  0.00  0.00    -0.269 N 
ATOM     26  H   LIG    1      -34.423  85.197  25.374  0.00  0.00    +0.156 HD
ATOM     27  O   LIG    1      -35.977  86.233  27.934  0.00  0.00    -0.252 OA
BRANCH  25  28
ATOM     28  C   LIG    1      -36.466  85.277  25.165  0.00  0.00    +0.035 A 
ATOM     29  C   LIG    1      -37.090  84.022  25.236  0.00  0.00    +0.035 A 
ATOM     30  C   LIG    1      -38.297  83.764  24.562  0.00  0.00    +0.057 A 
ATOM     31  C   LIG    1      -38.875  84.784  23.798  0.00  0.00    +0.012 A 
ATOM     32  C   LIG    1      -38.262  86.035  23.724  0.00  0.00    +0.002 A 
ATOM     33  C   LIG    1      -37.067  86.282  24.409  0.00  0.00    +0.023 A 
BRANCH  30  34
ATOM     34  C   LIG    1      -38.944  82.408  24.683  0.00  0.00    +0.417 C 
ATOM     35  F   LIG    1      -40.281  82.494  24.931  0.00  0.00    -0.166 F 
ATOM     36  F   LIG    1      -38.426  81.675  25.708  0.00  0.00    -0.166 F 
ATOM     37  F   LIG    1      -38.820  81.635  23.569  0.00  0.00    -0.166 F 
ENDBRANCH  30  34
ENDBRANCH  25  28
ENDBRANCH   4  22
TORSDOF 5
ENDMDL
