MODEL 1
REMARK VINA RESULT:      -6.4      0.000      0.000
REMARK  Name = pdb/CHEMBL3671150.pdb
REMARK                            x       y       z     vdW  Elec       q    Type
REMARK                         _______ _______ _______ _____ _____    ______ ____
ROOT
ATOM      1  C   LIG    1      -25.263  77.525  32.229  0.00  0.00    +0.100 A 
ATOM      2  C   LIG    1      -24.853  78.183  33.377  0.00  0.00    +0.170 A 
ATOM      3  N   LIG    1      -23.705  78.870  33.693  0.00  0.00    -0.212 NA
ATOM      4  C   LIG    1      -23.606  79.405  34.895  0.00  0.00    +0.126 A 
ATOM      5  C   LIG    1      -24.705  79.244  35.923  0.00  0.00    +0.063 A 
ATOM      6  C   LIG    1      -25.800  78.571  35.561  0.00  0.00    +0.118 A 
ATOM      7  N   LIG    1      -25.898  78.034  34.292  0.00  0.00    -0.221 N 
ATOM      8  N   LIG    1      -26.933  77.328  33.784  0.00  0.00    -0.173 NA
ATOM      9  C   LIG    1      -26.541  77.022  32.548  0.00  0.00    +0.150 A 
ENDROOT
BRANCH   4  10
ATOM     10  N   LIG    1      -22.467  80.129  35.231  0.00  0.00    -0.308 N 
ATOM     11  C   LIG    1      -21.384  79.587  36.070  0.00  0.00    +0.108 C 
ATOM     12  C   LIG    1      -21.099  80.743  37.039  0.00  0.00    +0.029 C 
ATOM     13  C   LIG    1      -21.269  81.969  36.162  0.00  0.00    +0.021 C 
ATOM     14  C   LIG    1      -22.465  81.599  35.286  0.00  0.00    +0.107 C 
BRANCH  11  15
ATOM     15  C   LIG    1      -20.167  79.177  35.260  0.00  0.00    +0.011 A 
ATOM     16  C   LIG    1      -19.054  78.648  35.932  0.00  0.00    +0.129 A 
ATOM     17  F   LIG    1      -19.100  78.481  37.262  0.00  0.00    -0.205 F 
ATOM     18  C   LIG    1      -17.892  78.276  35.258  0.00  0.00    +0.041 A 
ATOM     19  C   LIG    1      -17.827  78.414  33.875  0.00  0.00    +0.041 A 
ATOM     20  C   LIG    1      -18.931  78.905  33.189  0.00  0.00    +0.124 A 
ATOM     21  F   LIG    1      -18.880  79.014  31.855  0.00  0.00    -0.205 F 
ATOM     22  C   LIG    1      -20.094  79.280  33.862  0.00  0.00    +0.046 A 
ENDBRANCH  11  15
ENDBRANCH   4  10
BRANCH   1  25
ATOM     23  N   LIG    1      -23.197  77.373  31.054  0.00  0.00    -0.307 N 
ATOM     24  H   LIG    1      -22.779  77.623  31.946  0.00  0.00    +0.149 HD
ATOM     25  C   LIG    1      -24.569  77.345  30.971  0.00  0.00    +0.249 C 
ATOM     26  O   LIG    1      -25.170  77.177  29.922  0.00  0.00    -0.270 OA
BRANCH  23  27
ATOM     27  C   LIG    1      -22.375  77.177  29.890  0.00  0.00    +0.143 C 
BRANCH  27  32
ATOM     28  C   LIG    1      -17.485  76.104  30.232  0.00  0.00    +0.172 C 
ATOM     29  N   LIG    1      -18.901  76.222  30.476  0.00  0.00    -0.274 N 
ATOM     30  N   LIG    1      -19.426  75.702  31.602  0.00  0.00    -0.180 NA
ATOM     31  C   LIG    1      -20.725  75.990  31.504  0.00  0.00    +0.139 A 
ATOM     32  C   LIG    1      -21.044  76.690  30.320  0.00  0.00    +0.007 A 
ATOM     33  C   LIG    1      -19.826  76.830  29.681  0.00  0.00    +0.113 A 
ENDBRANCH  27  32
ENDBRANCH  23  27
ENDBRANCH   1  25
TORSDOF 5
ENDMDL
MODEL 2
REMARK VINA RESULT:      -6.0      2.093      5.327
REMARK  Name = pdb/CHEMBL3671150.pdb
REMARK                            x       y       z     vdW  Elec       q    Type
REMARK                         _______ _______ _______ _____ _____    ______ ____
ROOT
ATOM      1  C   LIG    1      -20.487  76.835  30.803  0.00  0.00    +0.100 A 
ATOM      2  C   LIG    1      -20.389  77.666  31.907  0.00  0.00    +0.170 A 
ATOM      3  N   LIG    1      -21.328  78.164  32.780  0.00  0.00    -0.212 NA
ATOM      4  C   LIG    1      -20.918  78.947  33.760  0.00  0.00    +0.126 A 
ATOM      5  C   LIG    1      -19.461  79.324  33.911  0.00  0.00    +0.063 A 
ATOM      6  C   LIG    1      -18.591  78.809  33.038  0.00  0.00    +0.118 A 
ATOM      7  N   LIG    1      -19.032  77.974  32.029  0.00  0.00    -0.221 N 
ATOM      8  N   LIG    1      -18.279  77.383  31.074  0.00  0.00    -0.173 NA
ATOM      9  C   LIG    1      -19.161  76.706  30.340  0.00  0.00    +0.150 A 
ENDROOT
BRANCH   4  10
ATOM     10  N   LIG    1      -21.842  79.441  34.673  0.00  0.00    -0.308 N 
ATOM     11  C   LIG    1      -21.791  79.146  36.115  0.00  0.00    +0.108 C 
ATOM     12  C   LIG    1      -23.253  78.813  36.443  0.00  0.00    +0.029 C 
ATOM     13  C   LIG    1      -24.024  79.787  35.572  0.00  0.00    +0.021 C 
ATOM     14  C   LIG    1      -23.213  79.805  34.278  0.00  0.00    +0.107 C 
BRANCH  11  15
ATOM     15  C   LIG    1      -21.248  80.306  36.931  0.00  0.00    +0.011 A 
ATOM     16  C   LIG    1      -20.889  80.083  38.269  0.00  0.00    +0.129 A 
ATOM     17  F   LIG    1      -20.995  78.851  38.788  0.00  0.00    -0.205 F 
ATOM     18  C   LIG    1      -20.410  81.106  39.086  0.00  0.00    +0.041 A 
ATOM     19  C   LIG    1      -20.266  82.388  38.566  0.00  0.00    +0.041 A 
ATOM     20  C   LIG    1      -20.584  82.621  37.233  0.00  0.00    +0.124 A 
ATOM     21  F   LIG    1      -20.420  83.849  36.724  0.00  0.00    -0.205 F 
ATOM     22  C   LIG    1      -21.065  81.599  36.415  0.00  0.00    +0.046 A 
ENDBRANCH  11  15
ENDBRANCH   4  10
BRANCH   1  25
ATOM     23  N   LIG    1      -22.492  75.581  31.089  0.00  0.00    -0.307 N 
ATOM     24  H   LIG    1      -22.180  75.482  32.052  0.00  0.00    +0.149 HD
ATOM     25  C   LIG    1      -21.658  76.226  30.207  0.00  0.00    +0.249 C 
ATOM     26  O   LIG    1      -21.880  76.294  29.008  0.00  0.00    -0.270 OA
BRANCH  23  27
ATOM     27  C   LIG    1      -23.709  74.958  30.645  0.00  0.00    +0.143 C 
BRANCH  27  32
ATOM     28  C   LIG    1      -27.987  76.794  32.522  0.00  0.00    +0.172 C 
ATOM     29  N   LIG    1      -26.724  76.632  31.844  0.00  0.00    -0.274 N 
ATOM     30  N   LIG    1      -26.176  77.681  31.202  0.00  0.00    -0.180 NA
ATOM     31  C   LIG    1      -25.040  77.186  30.706  0.00  0.00    +0.139 A 
ATOM     32  C   LIG    1      -24.853  75.822  31.019  0.00  0.00    +0.007 A 
ATOM     33  C   LIG    1      -25.968  75.500  31.771  0.00  0.00    +0.113 A 
ENDBRANCH  27  32
ENDBRANCH  23  27
ENDBRANCH   1  25
TORSDOF 5
ENDMDL
MODEL 3
REMARK VINA RESULT:      -5.9      2.194      5.668
REMARK  Name = pdb/CHEMBL3671150.pdb
REMARK                            x       y       z     vdW  Elec       q    Type
REMARK                         _______ _______ _______ _____ _____    ______ ____
ROOT
ATOM      1  C   LIG    1      -23.101  77.145  30.707  0.00  0.00    +0.100 A 
ATOM      2  C   LIG    1      -22.075  77.550  31.545  0.00  0.00    +0.170 A 
ATOM      3  N   LIG    1      -22.055  77.958  32.858  0.00  0.00    -0.212 NA
ATOM      4  C   LIG    1      -20.895  78.283  33.395  0.00  0.00    +0.126 A 
ATOM      5  C   LIG    1      -19.615  78.247  32.590  0.00  0.00    +0.063 A 
ATOM      6  C   LIG    1      -19.691  77.839  31.320  0.00  0.00    +0.118 A 
ATOM      7  N   LIG    1      -20.910  77.482  30.777  0.00  0.00    -0.221 N 
ATOM      8  N   LIG    1      -21.146  77.057  29.515  0.00  0.00    -0.173 NA
ATOM      9  C   LIG    1      -22.463  76.862  29.481  0.00  0.00    +0.150 A 
ENDROOT
BRANCH   4  10
ATOM     10  N   LIG    1      -20.843  78.672  34.729  0.00  0.00    -0.308 N 
ATOM     11  C   LIG    1      -20.651  80.069  35.157  0.00  0.00    +0.108 C 
ATOM     12  C   LIG    1      -19.600  79.939  36.268  0.00  0.00    +0.029 C 
ATOM     13  C   LIG    1      -19.998  78.649  36.959  0.00  0.00    +0.021 C 
ATOM     14  C   LIG    1      -20.416  77.752  35.795  0.00  0.00    +0.107 C 
BRANCH  11  15
ATOM     15  C   LIG    1      -21.939  80.719  35.630  0.00  0.00    +0.011 A 
ATOM     16  C   LIG    1      -21.887  82.016  36.163  0.00  0.00    +0.129 A 
ATOM     17  F   LIG    1      -20.715  82.666  36.211  0.00  0.00    -0.205 F 
ATOM     18  C   LIG    1      -23.024  82.664  36.643  0.00  0.00    +0.041 A 
ATOM     19  C   LIG    1      -24.257  82.022  36.581  0.00  0.00    +0.041 A 
ATOM     20  C   LIG    1      -24.334  80.750  36.025  0.00  0.00    +0.124 A 
ATOM     21  F   LIG    1      -25.524  80.142  35.942  0.00  0.00    -0.205 F 
ATOM     22  C   LIG    1      -23.197  80.099  35.547  0.00  0.00    +0.046 A 
ENDBRANCH  11  15
ENDBRANCH   4  10
BRANCH   1  25
ATOM     23  N   LIG    1      -24.877  77.159  32.293  0.00  0.00    -0.307 N 
ATOM     24  H   LIG    1      -24.133  77.200  32.984  0.00  0.00    +0.149 HD
ATOM     25  C   LIG    1      -24.521  77.039  30.971  0.00  0.00    +0.249 C 
ATOM     26  O   LIG    1      -25.331  76.861  30.075  0.00  0.00    -0.270 OA
BRANCH  23  27
ATOM     27  C   LIG    1      -26.255  77.106  32.702  0.00  0.00    +0.143 C 
BRANCH  27  32
ATOM     28  C   LIG    1      -25.192  76.858  37.601  0.00  0.00    +0.172 C 
ATOM     29  N   LIG    1      -25.853  77.020  36.329  0.00  0.00    -0.274 N 
ATOM     30  N   LIG    1      -27.154  77.365  36.298  0.00  0.00    -0.180 NA
ATOM     31  C   LIG    1      -27.430  77.429  34.994  0.00  0.00    +0.139 A 
ATOM     32  C   LIG    1      -26.316  77.123  34.182  0.00  0.00    +0.007 A 
ATOM     33  C   LIG    1      -25.305  76.871  35.090  0.00  0.00    +0.113 A 
ENDBRANCH  27  32
ENDBRANCH  23  27
ENDBRANCH   1  25
TORSDOF 5
ENDMDL
MODEL 4
REMARK VINA RESULT:      -5.9     16.426     20.546
REMARK  Name = pdb/CHEMBL3671150.pdb
REMARK                            x       y       z     vdW  Elec       q    Type
REMARK                         _______ _______ _______ _____ _____    ______ ____
ROOT
ATOM      1  C   LIG    1      -36.985  68.335  22.209  0.00  0.00    +0.100 A 
ATOM      2  C   LIG    1      -38.084  69.116  22.528  0.00  0.00    +0.170 A 
ATOM      3  N   LIG    1      -38.346  69.967  23.576  0.00  0.00    -0.212 NA
ATOM      4  C   LIG    1      -39.509  70.588  23.603  0.00  0.00    +0.126 A 
ATOM      5  C   LIG    1      -40.554  70.352  22.534  0.00  0.00    +0.063 A 
ATOM      6  C   LIG    1      -40.246  69.519  21.537  0.00  0.00    +0.118 A 
ATOM      7  N   LIG    1      -39.015  68.891  21.511  0.00  0.00    -0.221 N 
ATOM      8  N   LIG    1      -38.562  68.024  20.578  0.00  0.00    -0.173 NA
ATOM      9  C   LIG    1      -37.346  67.691  21.008  0.00  0.00    +0.150 A 
ENDROOT
BRANCH   4  10
ATOM     10  N   LIG    1      -39.788  71.475  24.636  0.00  0.00    -0.308 N 
ATOM     11  C   LIG    1      -38.968  72.664  24.924  0.00  0.00    +0.108 C 
ATOM     12  C   LIG    1      -38.818  72.609  26.450  0.00  0.00    +0.029 C 
ATOM     13  C   LIG    1      -40.174  72.103  26.904  0.00  0.00    +0.021 C 
ATOM     14  C   LIG    1      -40.525  71.063  25.842  0.00  0.00    +0.107 C 
BRANCH  11  15
ATOM     15  C   LIG    1      -39.611  73.951  24.436  0.00  0.00    +0.011 A 
ATOM     16  C   LIG    1      -38.917  75.159  24.601  0.00  0.00    +0.129 A 
ATOM     17  F   LIG    1      -37.692  75.151  25.148  0.00  0.00    -0.205 F 
ATOM     18  C   LIG    1      -39.456  76.381  24.203  0.00  0.00    +0.041 A 
ATOM     19  C   LIG    1      -40.714  76.415  23.609  0.00  0.00    +0.041 A 
ATOM     20  C   LIG    1      -41.402  75.225  23.407  0.00  0.00    +0.124 A 
ATOM     21  F   LIG    1      -42.601  75.253  22.812  0.00  0.00    -0.205 F 
ATOM     22  C   LIG    1      -40.865  74.001  23.806  0.00  0.00    +0.046 A 
ENDBRANCH  11  15
ENDBRANCH   4  10
BRANCH   1  25
ATOM     23  N   LIG    1      -35.766  68.536  24.245  0.00  0.00    -0.307 N 
ATOM     24  H   LIG    1      -36.604  68.995  24.592  0.00  0.00    +0.149 HD
ATOM     25  C   LIG    1      -35.735  68.166  22.922  0.00  0.00    +0.249 C 
ATOM     26  O   LIG    1      -34.738  67.721  22.376  0.00  0.00    -0.270 OA
BRANCH  23  27
ATOM     27  C   LIG    1      -34.607  68.394  25.086  0.00  0.00    +0.143 C 
BRANCH  27  32
ATOM     28  C   LIG    1      -33.676  71.373  29.016  0.00  0.00    +0.172 C 
ATOM     29  N   LIG    1      -34.182  70.812  27.788  0.00  0.00    -0.274 N 
ATOM     30  N   LIG    1      -35.067  71.513  27.054  0.00  0.00    -0.180 NA
ATOM     31  C   LIG    1      -35.311  70.715  26.012  0.00  0.00    +0.139 A 
ATOM     32  C   LIG    1      -34.591  69.502  26.070  0.00  0.00    +0.007 A 
ATOM     33  C   LIG    1      -33.860  69.607  27.238  0.00  0.00    +0.113 A 
ENDBRANCH  27  32
ENDBRANCH  23  27
ENDBRANCH   1  25
TORSDOF 5
ENDMDL
MODEL 5
REMARK VINA RESULT:      -5.6     13.963     17.405
REMARK  Name = pdb/CHEMBL3671150.pdb
REMARK                            x       y       z     vdW  Elec       q    Type
REMARK                         _______ _______ _______ _____ _____    ______ ____
ROOT
ATOM      1  C   LIG    1      -40.378  75.824  24.095  0.00  0.00    +0.100 A 
ATOM      2  C   LIG    1      -39.646  76.549  25.021  0.00  0.00    +0.170 A 
ATOM      3  N   LIG    1      -38.799  76.171  26.037  0.00  0.00    -0.212 NA
ATOM      4  C   LIG    1      -38.232  77.115  26.763  0.00  0.00    +0.126 A 
ATOM      5  C   LIG    1      -38.525  78.579  26.520  0.00  0.00    +0.063 A 
ATOM      6  C   LIG    1      -39.351  78.891  25.518  0.00  0.00    +0.118 A 
ATOM      7  N   LIG    1      -39.922  77.891  24.753  0.00  0.00    -0.221 N 
ATOM      8  N   LIG    1      -40.775  78.047  23.715  0.00  0.00    -0.173 NA
ATOM      9  C   LIG    1      -41.048  76.802  23.331  0.00  0.00    +0.150 A 
ENDROOT
BRANCH   4  10
ATOM     10  N   LIG    1      -37.350  76.761  27.778  0.00  0.00    -0.308 N 
ATOM     11  C   LIG    1      -36.073  76.069  27.533  0.00  0.00    +0.108 C 
ATOM     12  C   LIG    1      -36.069  74.979  28.614  0.00  0.00    +0.029 C 
ATOM     13  C   LIG    1      -36.702  75.679  29.802  0.00  0.00    +0.021 C 
ATOM     14  C   LIG    1      -37.803  76.518  29.157  0.00  0.00    +0.107 C 
BRANCH  11  15
ATOM     15  C   LIG    1      -34.877  77.000  27.623  0.00  0.00    +0.011 A 
ATOM     16  C   LIG    1      -33.596  76.483  27.372  0.00  0.00    +0.129 A 
ATOM     17  F   LIG    1      -33.458  75.195  27.024  0.00  0.00    -0.205 F 
ATOM     18  C   LIG    1      -32.450  77.270  27.463  0.00  0.00    +0.041 A 
ATOM     19  C   LIG    1      -32.568  78.616  27.798  0.00  0.00    +0.041 A 
ATOM     20  C   LIG    1      -33.830  79.154  28.017  0.00  0.00    +0.124 A 
ATOM     21  F   LIG    1      -33.947  80.455  28.312  0.00  0.00    -0.205 F 
ATOM     22  C   LIG    1      -34.978  78.367  27.928  0.00  0.00    +0.046 A 
ENDBRANCH  11  15
ENDBRANCH   4  10
BRANCH   1  25
ATOM     23  N   LIG    1      -39.398  73.669  24.359  0.00  0.00    -0.307 N 
ATOM     24  H   LIG    1      -38.576  74.184  24.661  0.00  0.00    +0.149 HD
ATOM     25  C   LIG    1      -40.484  74.390  23.921  0.00  0.00    +0.249 C 
ATOM     26  O   LIG    1      -41.472  73.872  23.425  0.00  0.00    -0.270 OA
BRANCH  23  27
ATOM     27  C   LIG    1      -39.375  72.233  24.279  0.00  0.00    +0.143 C 
BRANCH  27  32
ATOM     28  C   LIG    1      -35.279  71.419  27.063  0.00  0.00    +0.172 C 
ATOM     29  N   LIG    1      -36.290  71.382  26.035  0.00  0.00    -0.274 N 
ATOM     30  N   LIG    1      -36.147  70.537  24.996  0.00  0.00    -0.180 NA
ATOM     31  C   LIG    1      -37.239  70.759  24.260  0.00  0.00    +0.139 A 
ATOM     32  C   LIG    1      -38.083  71.745  24.816  0.00  0.00    +0.007 A 
ATOM     33  C   LIG    1      -37.434  72.120  25.977  0.00  0.00    +0.113 A 
ENDBRANCH  27  32
ENDBRANCH  23  27
ENDBRANCH   1  25
TORSDOF 5
ENDMDL
MODEL 6
REMARK VINA RESULT:      -5.6      2.286      4.030
REMARK  Name = pdb/CHEMBL3671150.pdb
REMARK                            x       y       z     vdW  Elec       q    Type
REMARK                         _______ _______ _______ _____ _____    ______ ____
ROOT
ATOM      1  C   LIG    1      -22.820  77.212  30.544  0.00  0.00    +0.100 A 
ATOM      2  C   LIG    1      -23.441  77.409  31.767  0.00  0.00    +0.170 A 
ATOM      3  N   LIG    1      -22.949  77.637  33.031  0.00  0.00    -0.212 NA
ATOM      4  C   LIG    1      -23.810  77.793  34.018  0.00  0.00    +0.126 A 
ATOM      5  C   LIG    1      -25.302  77.691  33.788  0.00  0.00    +0.063 A 
ATOM      6  C   LIG    1      -25.725  77.472  32.540  0.00  0.00    +0.118 A 
ATOM      7  N   LIG    1      -24.811  77.331  31.512  0.00  0.00    -0.221 N 
ATOM      8  N   LIG    1      -25.083  77.103  30.207  0.00  0.00    -0.173 NA
ATOM      9  C   LIG    1      -23.882  77.027  29.636  0.00  0.00    +0.150 A 
ENDROOT
BRANCH   4  10
ATOM     10  N   LIG    1      -23.341  78.053  35.302  0.00  0.00    -0.308 N 
ATOM     11  C   LIG    1      -22.011  78.624  35.575  0.00  0.00    +0.108 C 
ATOM     12  C   LIG    1      -21.498  77.745  36.724  0.00  0.00    +0.029 C 
ATOM     13  C   LIG    1      -22.750  77.496  37.543  0.00  0.00    +0.021 C 
ATOM     14  C   LIG    1      -23.826  77.310  36.475  0.00  0.00    +0.107 C 
BRANCH  11  15
ATOM     15  C   LIG    1      -22.070  80.098  35.935  0.00  0.00    +0.011 A 
ATOM     16  C   LIG    1      -20.871  80.781  36.189  0.00  0.00    +0.129 A 
ATOM     17  F   LIG    1      -19.702  80.133  36.075  0.00  0.00    -0.205 F 
ATOM     18  C   LIG    1      -20.849  82.126  36.552  0.00  0.00    +0.041 A 
ATOM     19  C   LIG    1      -22.046  82.829  36.653  0.00  0.00    +0.041 A 
ATOM     20  C   LIG    1      -23.241  82.178  36.372  0.00  0.00    +0.124 A 
ATOM     21  F   LIG    1      -24.392  82.860  36.443  0.00  0.00    -0.205 F 
ATOM     22  C   LIG    1      -23.265  80.832  36.011  0.00  0.00    +0.046 A 
ENDBRANCH  11  15
ENDBRANCH   4  10
BRANCH   1  25
ATOM     23  N   LIG    1      -20.570  77.600  31.224  0.00  0.00    -0.307 N 
ATOM     24  H   LIG    1      -20.991  78.006  32.055  0.00  0.00    +0.149 HD
ATOM     25  C   LIG    1      -21.409  77.174  30.221  0.00  0.00    +0.249 C 
ATOM     26  O   LIG    1      -21.007  76.785  29.136  0.00  0.00    -0.270 OA
BRANCH  23  27
ATOM     27  C   LIG    1      -19.142  77.588  31.058  0.00  0.00    +0.143 C 
BRANCH  27  32
ATOM     28  C   LIG    1      -17.815  77.428  35.895  0.00  0.00    +0.172 C 
ATOM     29  N   LIG    1      -17.917  77.748  34.493  0.00  0.00    -0.274 N 
ATOM     30  N   LIG    1      -17.097  78.675  33.963  0.00  0.00    -0.180 NA
ATOM     31  C   LIG    1      -17.455  78.713  32.678  0.00  0.00    +0.139 A 
ATOM     32  C   LIG    1      -18.505  77.818  32.375  0.00  0.00    +0.007 A 
ATOM     33  C   LIG    1      -18.771  77.200  33.582  0.00  0.00    +0.113 A 
ENDBRANCH  27  32
ENDBRANCH  23  27
ENDBRANCH   1  25
TORSDOF 5
ENDMDL
MODEL 7
REMARK VINA RESULT:      -5.6      3.046      5.141
REMARK  Name = pdb/CHEMBL3671150.pdb
REMARK                            x       y       z     vdW  Elec       q    Type
REMARK                         _______ _______ _______ _____ _____    ______ ____
ROOT
ATOM      1  C   LIG    1      -23.084  76.870  30.758  0.00  0.00    +0.100 A 
ATOM      2  C   LIG    1      -22.227  77.344  31.738  0.00  0.00    +0.170 A 
ATOM      3  N   LIG    1      -22.382  77.541  33.090  0.00  0.00    -0.212 NA
ATOM      4  C   LIG    1      -21.358  78.013  33.775  0.00  0.00    +0.126 A 
ATOM      5  C   LIG    1      -20.053  78.367  33.098  0.00  0.00    +0.063 A 
ATOM      6  C   LIG    1      -19.955  78.152  31.784  0.00  0.00    +0.118 A 
ATOM      7  N   LIG    1      -21.030  77.638  31.083  0.00  0.00    -0.221 N 
ATOM      8  N   LIG    1      -21.086  77.372  29.758  0.00  0.00    -0.173 NA
ATOM      9  C   LIG    1      -22.323  76.917  29.572  0.00  0.00    +0.150 A 
ENDROOT
BRANCH   4  10
ATOM     10  N   LIG    1      -21.479  78.195  35.149  0.00  0.00    -0.308 N 
ATOM     11  C   LIG    1      -20.429  78.814  35.977  0.00  0.00    +0.108 C 
ATOM     12  C   LIG    1      -20.360  77.875  37.189  0.00  0.00    +0.029 C 
ATOM     13  C   LIG    1      -21.812  77.493  37.403  0.00  0.00    +0.021 C 
ATOM     14  C   LIG    1      -22.338  77.334  35.978  0.00  0.00    +0.107 C 
BRANCH  11  15
ATOM     15  C   LIG    1      -20.753  80.249  36.353  0.00  0.00    +0.011 A 
ATOM     16  C   LIG    1      -19.857  80.952  37.174  0.00  0.00    +0.129 A 
ATOM     17  F   LIG    1      -18.723  80.359  37.577  0.00  0.00    -0.205 F 
ATOM     18  C   LIG    1      -20.101  82.261  37.583  0.00  0.00    +0.041 A 
ATOM     19  C   LIG    1      -21.258  82.908  37.159  0.00  0.00    +0.041 A 
ATOM     20  C   LIG    1      -22.140  82.240  36.318  0.00  0.00    +0.124 A 
ATOM     21  F   LIG    1      -23.240  82.871  35.888  0.00  0.00    -0.205 F 
ATOM     22  C   LIG    1      -21.898  80.929  35.909  0.00  0.00    +0.046 A 
ENDBRANCH  11  15
ENDBRANCH   4  10
BRANCH   1  25
ATOM     23  N   LIG    1      -24.692  75.479  31.832  0.00  0.00    -0.307 N 
ATOM     24  H   LIG    1      -23.889  75.078  32.307  0.00  0.00    +0.149 HD
ATOM     25  C   LIG    1      -24.460  76.432  30.868  0.00  0.00    +0.249 C 
ATOM     26  O   LIG    1      -25.340  76.888  30.156  0.00  0.00    -0.270 OA
BRANCH  23  27
ATOM     27  C   LIG    1      -26.016  74.973  32.077  0.00  0.00    +0.143 C 
BRANCH  27  32
ATOM     28  C   LIG    1      -24.981  70.417  30.243  0.00  0.00    +0.172 C 
ATOM     29  N   LIG    1      -25.635  71.570  30.812  0.00  0.00    -0.274 N 
ATOM     30  N   LIG    1      -26.936  71.494  31.151  0.00  0.00    -0.180 NA
ATOM     31  C   LIG    1      -27.204  72.708  31.637  0.00  0.00    +0.139 A 
ATOM     32  C   LIG    1      -26.086  73.569  31.610  0.00  0.00    +0.007 A 
ATOM     33  C   LIG    1      -25.079  72.787  31.074  0.00  0.00    +0.113 A 
ENDBRANCH  27  32
ENDBRANCH  23  27
ENDBRANCH   1  25
TORSDOF 5
ENDMDL
MODEL 8
REMARK VINA RESULT:      -5.5      2.761      5.693
REMARK  Name = pdb/CHEMBL3671150.pdb
REMARK                            x       y       z     vdW  Elec       q    Type
REMARK                         _______ _______ _______ _____ _____    ______ ____
ROOT
ATOM      1  C   LIG    1      -20.169  80.210  36.292  0.00  0.00    +0.100 A 
ATOM      2  C   LIG    1      -21.466  79.944  35.886  0.00  0.00    +0.170 A 
ATOM      3  N   LIG    1      -22.026  78.893  35.197  0.00  0.00    -0.212 NA
ATOM      4  C   LIG    1      -23.323  78.920  34.958  0.00  0.00    +0.126 A 
ATOM      5  C   LIG    1      -24.180  80.088  35.394  0.00  0.00    +0.063 A 
ATOM      6  C   LIG    1      -23.587  81.080  36.064  0.00  0.00    +0.118 A 
ATOM      7  N   LIG    1      -22.230  81.027  36.324  0.00  0.00    -0.221 N 
ATOM      8  N   LIG    1      -21.491  81.949  36.981  0.00  0.00    -0.173 NA
ATOM      9  C   LIG    1      -20.255  81.454  36.952  0.00  0.00    +0.150 A 
ENDROOT
BRANCH   4  10
ATOM     10  N   LIG    1      -23.918  77.857  34.288  0.00  0.00    -0.308 N 
ATOM     11  C   LIG    1      -24.520  77.982  32.949  0.00  0.00    +0.108 C 
ATOM     12  C   LIG    1      -25.848  77.229  33.106  0.00  0.00    +0.029 C 
ATOM     13  C   LIG    1      -25.475  76.072  34.014  0.00  0.00    +0.021 C 
ATOM     14  C   LIG    1      -24.505  76.714  35.004  0.00  0.00    +0.107 C 
BRANCH  11  15
ATOM     15  C   LIG    1      -23.637  77.408  31.856  0.00  0.00    +0.011 A 
ATOM     16  C   LIG    1      -23.873  77.788  30.525  0.00  0.00    +0.129 A 
ATOM     17  F   LIG    1      -24.844  78.672  30.251  0.00  0.00    -0.205 F 
ATOM     18  C   LIG    1      -23.122  77.280  29.467  0.00  0.00    +0.041 A 
ATOM     19  C   LIG    1      -22.093  76.380  29.726  0.00  0.00    +0.041 A 
ATOM     20  C   LIG    1      -21.822  76.018  31.040  0.00  0.00    +0.124 A 
ATOM     21  F   LIG    1      -20.814  75.173  31.293  0.00  0.00    -0.205 F 
ATOM     22  C   LIG    1      -22.574  76.524  32.100  0.00  0.00    +0.046 A 
ENDBRANCH  11  15
ENDBRANCH   4  10
BRANCH   1  25
ATOM     23  N   LIG    1      -18.936  78.683  34.943  0.00  0.00    -0.307 N 
ATOM     24  H   LIG    1      -19.786  78.635  34.387  0.00  0.00    +0.149 HD
ATOM     25  C   LIG    1      -18.961  79.436  36.093  0.00  0.00    +0.249 C 
ATOM     26  O   LIG    1      -18.040  79.463  36.893  0.00  0.00    -0.270 OA
BRANCH  23  27
ATOM     27  C   LIG    1      -17.789  77.888  34.598  0.00  0.00    +0.143 C 
BRANCH  27  32
ATOM     28  C   LIG    1      -16.883  76.145  29.979  0.00  0.00    +0.172 C 
ATOM     29  N   LIG    1      -17.453  76.806  31.127  0.00  0.00    -0.274 N 
ATOM     30  N   LIG    1      -18.593  77.508  30.990  0.00  0.00    -0.180 NA
ATOM     31  C   LIG    1      -18.828  77.969  32.220  0.00  0.00    +0.139 A 
ATOM     32  C   LIG    1      -17.843  77.572  33.151  0.00  0.00    +0.007 A 
ATOM     33  C   LIG    1      -16.969  76.807  32.402  0.00  0.00    +0.113 A 
ENDBRANCH  27  32
ENDBRANCH  23  27
ENDBRANCH   1  25
TORSDOF 5
ENDMDL
MODEL 9
REMARK VINA RESULT:      -5.4     12.562     15.876
REMARK  Name = pdb/CHEMBL3671150.pdb
REMARK                            x       y       z     vdW  Elec       q    Type
REMARK                         _______ _______ _______ _____ _____    ______ ____
ROOT
ATOM      1  C   LIG    1      -35.401  70.172  25.825  0.00  0.00    +0.100 A 
ATOM      2  C   LIG    1      -34.694  70.579  26.944  0.00  0.00    +0.170 A 
ATOM      3  N   LIG    1      -34.702  71.746  27.673  0.00  0.00    -0.212 NA
ATOM      4  C   LIG    1      -33.899  71.837  28.716  0.00  0.00    +0.126 A 
ATOM      5  C   LIG    1      -32.963  70.710  29.092  0.00  0.00    +0.063 A 
ATOM      6  C   LIG    1      -33.000  69.598  28.353  0.00  0.00    +0.118 A 
ATOM      7  N   LIG    1      -33.860  69.509  27.275  0.00  0.00    -0.221 N 
ATOM      8  N   LIG    1      -34.008  68.460  26.435  0.00  0.00    -0.173 NA
ATOM      9  C   LIG    1      -34.930  68.868  25.566  0.00  0.00    +0.150 A 
ENDROOT
BRANCH   4  10
ATOM     10  N   LIG    1      -33.907  72.994  29.487  0.00  0.00    -0.308 N 
ATOM     11  C   LIG    1      -32.771  73.929  29.553  0.00  0.00    +0.108 C 
ATOM     12  C   LIG    1      -32.655  74.213  31.056  0.00  0.00    +0.029 C 
ATOM     13  C   LIG    1      -34.103  74.248  31.506  0.00  0.00    +0.021 C 
ATOM     14  C   LIG    1      -34.741  73.123  30.693  0.00  0.00    +0.107 C 
BRANCH  11  15
ATOM     15  C   LIG    1      -32.998  75.184  28.727  0.00  0.00    +0.011 A 
ATOM     16  C   LIG    1      -32.016  76.187  28.736  0.00  0.00    +0.129 A 
ATOM     17  F   LIG    1      -30.888  76.004  29.439  0.00  0.00    -0.205 F 
ATOM     18  C   LIG    1      -32.168  77.376  28.026  0.00  0.00    +0.041 A 
ATOM     19  C   LIG    1      -33.317  77.580  27.268  0.00  0.00    +0.041 A 
ATOM     20  C   LIG    1      -34.285  76.584  27.220  0.00  0.00    +0.124 A 
ATOM     21  F   LIG    1      -35.379  76.769  26.470  0.00  0.00    -0.205 F 
ATOM     22  C   LIG    1      -34.136  75.394  27.932  0.00  0.00    +0.046 A 
ENDBRANCH  11  15
ENDBRANCH   4  10
BRANCH   1  25
ATOM     23  N   LIG    1      -36.879  72.031  25.637  0.00  0.00    -0.307 N 
ATOM     24  H   LIG    1      -36.601  72.227  26.595  0.00  0.00    +0.149 HD
ATOM     25  C   LIG    1      -36.393  70.887  25.048  0.00  0.00    +0.249 C 
ATOM     26  O   LIG    1      -36.757  70.495  23.951  0.00  0.00    -0.270 OA
BRANCH  23  27
ATOM     27  C   LIG    1      -37.845  72.860  24.970  0.00  0.00    +0.143 C 
BRANCH  27  32
ATOM     28  C   LIG    1      -38.805  77.569  26.416  0.00  0.00    +0.172 C 
ATOM     29  N   LIG    1      -38.438  76.175  26.379  0.00  0.00    -0.274 N 
ATOM     30  N   LIG    1      -38.050  75.562  27.513  0.00  0.00    -0.180 NA
ATOM     31  C   LIG    1      -37.795  74.311  27.121  0.00  0.00    +0.139 A 
ATOM     32  C   LIG    1      -38.014  74.114  25.740  0.00  0.00    +0.007 A 
ATOM     33  C   LIG    1      -38.441  75.351  25.294  0.00  0.00    +0.113 A 
ENDBRANCH  27  32
ENDBRANCH  23  27
ENDBRANCH   1  25
TORSDOF 5
ENDMDL
