MODEL 1
REMARK VINA RESULT:      -7.1      0.000      0.000
REMARK  Name = pdb/CHEMBL3906654.pdb
REMARK                            x       y       z     vdW  Elec       q    Type
REMARK                         _______ _______ _______ _____ _____    ______ ____
ROOT
ATOM      1  N   LIG    1      -37.840  81.052  27.791  0.00  0.00    -0.196 NA
ATOM      2  C   LIG    1      -37.217  79.919  27.754  0.00  0.00    +0.285 C 
ENDROOT
BRANCH   1   6
ATOM      3  C   LIG    1      -35.872  84.721  27.767  0.00  0.00    +0.323 A 
ATOM      4  N   LIG    1      -35.887  84.054  26.606  0.00  0.00    -0.201 NA
ATOM      5  C   LIG    1      -36.521  82.851  26.622  0.00  0.00    +0.145 A 
ATOM      6  C   LIG    1      -37.172  82.291  27.705  0.00  0.00    +0.105 A 
ATOM      7  C   LIG    1      -37.068  83.079  28.840  0.00  0.00    +0.145 A 
ATOM      8  N   LIG    1      -36.420  84.263  28.906  0.00  0.00    -0.201 NA
BRANCH   3   9
ATOM      9  O   LIG    1      -35.203  85.939  27.734  0.00  0.00    -0.424 OA
BRANCH   9  13
ATOM     10  C   LIG    1      -32.235  86.774  30.624  0.00  0.00    -0.014 A 
ATOM     11  C   LIG    1      -33.328  87.641  30.444  0.00  0.00    +0.012 A 
ATOM     12  C   LIG    1      -34.319  87.399  29.493  0.00  0.00    +0.047 A 
ATOM     13  C   LIG    1      -34.282  86.256  28.705  0.00  0.00    +0.132 A 
ATOM     14  C   LIG    1      -33.199  85.387  28.840  0.00  0.00    +0.047 A 
ATOM     15  C   LIG    1      -32.200  85.635  29.798  0.00  0.00    +0.012 A 
BRANCH  10  17
ATOM     16  C   LIG    1      -29.952  87.696  31.365  0.00  0.00    +0.124 A 
ATOM     17  C   LIG    1      -31.194  87.086  31.641  0.00  0.00    +0.023 A 
ATOM     18  C   LIG    1      -31.446  86.802  33.003  0.00  0.00    +0.033 A 
ATOM     19  C   LIG    1      -30.520  87.121  33.986  0.00  0.00    +0.060 A 
ATOM     20 CL   LIG    1      -30.861  86.816  35.639  0.00  0.00    -0.082 Cl
ATOM     21  C   LIG    1      -29.331  87.696  33.595  0.00  0.00    +0.133 A 
ATOM     22  N   LIG    1      -29.026  87.983  32.308  0.00  0.00    -0.239 NA
BRANCH  16  23
ATOM     23  N   LIG    1      -29.562  88.084  30.085  0.00  0.00    -0.343 N 
ATOM     24  H   LIG    1      -29.765  89.065  29.931  0.00  0.00    +0.144 HD
ATOM     25  H   LIG    1      -28.565  87.891  30.017  0.00  0.00    +0.144 HD
ENDBRANCH  16  23
ENDBRANCH  10  17
ENDBRANCH   9  13
ENDBRANCH   3   9
ENDBRANCH   1   6
BRANCH   2  26
ATOM     26  N   LIG    1      -37.728  78.645  27.798  0.00  0.00    -0.267 N 
ATOM     27  H   LIG    1      -38.125  78.374  28.675  0.00  0.00    +0.157 HD
BRANCH  26  28
ATOM     28  C   LIG    1      -37.976  77.728  26.753  0.00  0.00    +0.061 A 
ATOM     29  C   LIG    1      -37.074  76.700  26.345  0.00  0.00    +0.087 A 
ATOM     30  C   LIG    1      -37.402  75.886  25.232  0.00  0.00    +0.030 A 
ATOM     31  C   LIG    1      -38.593  76.052  24.530  0.00  0.00    +0.014 A 
ATOM     32  C   LIG    1      -39.479  77.063  24.894  0.00  0.00    +0.057 A 
ATOM     33  C   LIG    1      -39.155  77.887  25.985  0.00  0.00    +0.037 A 
BRANCH  29  34
ATOM     34  N   LIG    1      -35.812  76.391  26.961  0.00  0.00    -0.238 N 
ATOM     35  N   LIG    1      -34.747  77.243  26.824  0.00  0.00    -0.162 NA
ATOM     36  C   LIG    1      -33.730  76.687  27.513  0.00  0.00    +0.166 A 
ATOM     37  C   LIG    1      -34.127  75.444  28.052  0.00  0.00    +0.054 A 
ATOM     38  C   LIG    1      -35.423  75.259  27.639  0.00  0.00    +0.115 A 
BRANCH  36  39
ATOM     39  C   LIG    1      -32.351  77.304  27.625  0.00  0.00    +0.436 C 
ATOM     40  F   LIG    1      -31.736  77.441  26.421  0.00  0.00    -0.164 F 
ATOM     41  F   LIG    1      -31.517  76.588  28.425  0.00  0.00    -0.164 F 
ATOM     42  F   LIG    1      -32.412  78.555  28.166  0.00  0.00    -0.164 F 
ENDBRANCH  36  39
ENDBRANCH  29  34
BRANCH  32  43
ATOM     43  C   LIG    1      -40.756  77.252  24.116  0.00  0.00    +0.417 C 
ATOM     44  F   LIG    1      -40.990  78.561  23.821  0.00  0.00    -0.166 F 
ATOM     45  F   LIG    1      -41.850  76.824  24.805  0.00  0.00    -0.166 F 
ATOM     46  F   LIG    1      -40.780  76.593  22.925  0.00  0.00    -0.166 F 
ENDBRANCH  32  43
ENDBRANCH  26  28
ENDBRANCH   2  26
BRANCH   2  47
ATOM     47  O   LIG    1      -35.877  79.910  27.619  0.00  0.00    -0.481 OA
ATOM     48  H   LIG    1      -35.565  79.315  26.924  0.00  0.00    +0.295 HD
ENDBRANCH   2  47
TORSDOF 11
ENDMDL
MODEL 2
REMARK VINA RESULT:      -7.0     17.505     20.848
REMARK  Name = pdb/CHEMBL3906654.pdb
REMARK                            x       y       z     vdW  Elec       q    Type
REMARK                         _______ _______ _______ _____ _____    ______ ____
ROOT
ATOM      1  N   LIG    1      -23.855  81.536  11.505  0.00  0.00    -0.196 NA
ATOM      2  C   LIG    1      -23.864  82.656  12.152  0.00  0.00    +0.285 C 
ENDROOT
BRANCH   1   6
ATOM      3  C   LIG    1      -27.303  79.544  10.291  0.00  0.00    +0.323 A 
ATOM      4  N   LIG    1      -26.879  79.281  11.535  0.00  0.00    -0.201 NA
ATOM      5  C   LIG    1      -25.746  79.927  11.922  0.00  0.00    +0.145 A 
ATOM      6  C   LIG    1      -25.034  80.841  11.168  0.00  0.00    +0.105 A 
ATOM      7  C   LIG    1      -25.574  81.006   9.903  0.00  0.00    +0.145 A 
ATOM      8  N   LIG    1      -26.672  80.369   9.438  0.00  0.00    -0.201 NA
BRANCH   3   9
ATOM      9  O   LIG    1      -28.452  78.860   9.908  0.00  0.00    -0.424 OA
BRANCH   9  13
ATOM     10  C   LIG    1      -32.211  80.787  10.021  0.00  0.00    -0.014 A 
ATOM     11  C   LIG    1      -31.312  81.025   8.966  0.00  0.00    +0.012 A 
ATOM     12  C   LIG    1      -30.060  80.412   8.904  0.00  0.00    +0.047 A 
ATOM     13  C   LIG    1      -29.667  79.502   9.877  0.00  0.00    +0.132 A 
ATOM     14  C   LIG    1      -30.525  79.261  10.950  0.00  0.00    +0.047 A 
ATOM     15  C   LIG    1      -31.784  79.882  11.011  0.00  0.00    +0.012 A 
BRANCH  10  17
ATOM     16  C   LIG    1      -33.829  82.612  10.836  0.00  0.00    +0.124 A 
ATOM     17  C   LIG    1      -33.528  81.479  10.050  0.00  0.00    +0.023 A 
ATOM     18  C   LIG    1      -34.572  81.023   9.212  0.00  0.00    +0.033 A 
ATOM     19  C   LIG    1      -35.798  81.670   9.176  0.00  0.00    +0.060 A 
ATOM     20 CL   LIG    1      -37.038  81.135   8.118  0.00  0.00    -0.082 Cl
ATOM     21  C   LIG    1      -35.984  82.756  10.004  0.00  0.00    +0.133 A 
ATOM     22  N   LIG    1      -35.030  83.234  10.836  0.00  0.00    -0.239 NA
BRANCH  16  23
ATOM     23  N   LIG    1      -32.903  83.219  11.682  0.00  0.00    -0.343 N 
ATOM     24  H   LIG    1      -32.152  83.642  11.147  0.00  0.00    +0.144 HD
ATOM     25  H   LIG    1      -33.417  83.912  12.221  0.00  0.00    +0.144 HD
ENDBRANCH  16  23
ENDBRANCH  10  17
ENDBRANCH   9  13
ENDBRANCH   3   9
ENDBRANCH   1   6
BRANCH   2  26
ATOM     26  N   LIG    1      -22.811  83.454  12.523  0.00  0.00    -0.267 N 
ATOM     27  H   LIG    1      -22.105  83.584  11.826  0.00  0.00    +0.157 HD
BRANCH  26  28
ATOM     28  C   LIG    1      -22.658  84.294  13.649  0.00  0.00    +0.061 A 
ATOM     29  C   LIG    1      -22.686  83.847  15.003  0.00  0.00    +0.087 A 
ATOM     30  C   LIG    1      -22.597  84.796  16.053  0.00  0.00    +0.030 A 
ATOM     31  C   LIG    1      -22.466  86.158  15.798  0.00  0.00    +0.014 A 
ATOM     32  C   LIG    1      -22.460  86.622  14.486  0.00  0.00    +0.057 A 
ATOM     33  C   LIG    1      -22.567  85.692  13.437  0.00  0.00    +0.037 A 
BRANCH  29  34
ATOM     34  N   LIG    1      -22.808  82.482  15.439  0.00  0.00    -0.238 N 
ATOM     35  N   LIG    1      -23.901  81.736  15.083  0.00  0.00    -0.162 NA
ATOM     36  C   LIG    1      -23.718  80.517  15.630  0.00  0.00    +0.166 A 
ATOM     37  C   LIG    1      -22.526  80.494  16.387  0.00  0.00    +0.054 A 
ATOM     38  C   LIG    1      -22.007  81.762  16.296  0.00  0.00    +0.115 A 
BRANCH  36  39
ATOM     39  C   LIG    1      -24.698  79.371  15.484  0.00  0.00    +0.436 C 
ATOM     40  F   LIG    1      -24.890  78.692  16.646  0.00  0.00    -0.164 F 
ATOM     41  F   LIG    1      -24.314  78.466  14.546  0.00  0.00    -0.164 F 
ATOM     42  F   LIG    1      -25.928  79.819  15.097  0.00  0.00    -0.164 F 
ENDBRANCH  36  39
ENDBRANCH  29  34
BRANCH  32  43
ATOM     43  C   LIG    1      -22.342  88.100  14.216  0.00  0.00    +0.417 C 
ATOM     44  F   LIG    1      -21.045  88.502  14.108  0.00  0.00    -0.166 F 
ATOM     45  F   LIG    1      -22.884  88.854  15.212  0.00  0.00    -0.166 F 
ATOM     46  F   LIG    1      -22.951  88.501  13.067  0.00  0.00    -0.166 F 
ENDBRANCH  32  43
ENDBRANCH  26  28
ENDBRANCH   2  26
BRANCH   2  47
ATOM     47  O   LIG    1      -25.044  83.194  12.517  0.00  0.00    -0.481 OA
ATOM     48  H   LIG    1      -25.186  83.197  13.473  0.00  0.00    +0.295 HD
ENDBRANCH   2  47
TORSDOF 11
ENDMDL
MODEL 3
REMARK VINA RESULT:      -6.8      8.937     13.419
REMARK  Name = pdb/CHEMBL3906654.pdb
REMARK                            x       y       z     vdW  Elec       q    Type
REMARK                         _______ _______ _______ _____ _____    ______ ____
ROOT
ATOM      1  N   LIG    1      -32.698  91.633  27.506  0.00  0.00    -0.196 NA
ATOM      2  C   LIG    1      -33.423  90.595  27.773  0.00  0.00    +0.285 C 
ENDROOT
BRANCH   1   6
ATOM      3  C   LIG    1      -32.892  93.688  23.891  0.00  0.00    +0.323 A 
ATOM      4  N   LIG    1      -31.960  92.730  23.974  0.00  0.00    -0.201 NA
ATOM      5  C   LIG    1      -31.894  92.069  25.161  0.00  0.00    +0.145 A 
ATOM      6  C   LIG    1      -32.718  92.274  26.251  0.00  0.00    +0.105 A 
ATOM      7  C   LIG    1      -33.624  93.300  26.034  0.00  0.00    +0.145 A 
ATOM      8  N   LIG    1      -33.719  94.024  24.897  0.00  0.00    -0.201 NA
BRANCH   3   9
ATOM      9  O   LIG    1      -32.931  94.364  22.677  0.00  0.00    -0.424 OA
BRANCH   9  13
ATOM     10  C   LIG    1      -33.491  92.235  19.070  0.00  0.00    -0.014 A 
ATOM     11  C   LIG    1      -32.268  92.872  19.346  0.00  0.00    +0.012 A 
ATOM     12  C   LIG    1      -32.054  93.590  20.523  0.00  0.00    +0.047 A 
ATOM     13  C   LIG    1      -33.044  93.670  21.495  0.00  0.00    +0.132 A 
ATOM     14  C   LIG    1      -34.277  93.070  21.242  0.00  0.00    +0.047 A 
ATOM     15  C   LIG    1      -34.490  92.349  20.054  0.00  0.00    +0.012 A 
BRANCH  10  17
ATOM     16  C   LIG    1      -34.054  92.082  16.566  0.00  0.00    +0.124 A 
ATOM     17  C   LIG    1      -33.675  91.495  17.792  0.00  0.00    +0.023 A 
ATOM     18  C   LIG    1      -33.423  90.105  17.751  0.00  0.00    +0.033 A 
ATOM     19  C   LIG    1      -33.538  89.389  16.567  0.00  0.00    +0.060 A 
ATOM     20 CL   LIG    1      -33.180  87.712  16.523  0.00  0.00    -0.082 Cl
ATOM     21  C   LIG    1      -33.935  90.066  15.436  0.00  0.00    +0.133 A 
ATOM     22  N   LIG    1      -34.202  91.392  15.412  0.00  0.00    -0.239 NA
BRANCH  16  23
ATOM     23  N   LIG    1      -34.296  93.446  16.418  0.00  0.00    -0.343 N 
ATOM     24  H   LIG    1      -34.815  93.807  17.211  0.00  0.00    +0.144 HD
ATOM     25  H   LIG    1      -33.385  93.892  16.331  0.00  0.00    +0.144 HD
ENDBRANCH  16  23
ENDBRANCH  10  17
ENDBRANCH   9  13
ENDBRANCH   3   9
ENDBRANCH   1   6
BRANCH   2  26
ATOM     26  N   LIG    1      -33.531  89.887  28.944  0.00  0.00    -0.267 N 
ATOM     27  H   LIG    1      -34.310  90.131  29.521  0.00  0.00    +0.157 HD
BRANCH  26  28
ATOM     28  C   LIG    1      -32.847  88.727  29.372  0.00  0.00    +0.061 A 
ATOM     29  C   LIG    1      -33.270  87.391  29.102  0.00  0.00    +0.087 A 
ATOM     30  C   LIG    1      -32.541  86.306  29.650  0.00  0.00    +0.030 A 
ATOM     31  C   LIG    1      -31.409  86.506  30.434  0.00  0.00    +0.014 A 
ATOM     32  C   LIG    1      -30.990  87.800  30.732  0.00  0.00    +0.057 A 
ATOM     33  C   LIG    1      -31.716  88.884  30.209  0.00  0.00    +0.037 A 
BRANCH  29  34
ATOM     34  N   LIG    1      -34.407  87.009  28.309  0.00  0.00    -0.238 N 
ATOM     35  N   LIG    1      -35.512  87.817  28.249  0.00  0.00    -0.162 NA
ATOM     36  C   LIG    1      -36.386  87.197  27.430  0.00  0.00    +0.166 A 
ATOM     37  C   LIG    1      -35.861  85.957  27.003  0.00  0.00    +0.054 A 
ATOM     38  C   LIG    1      -34.640  85.842  27.619  0.00  0.00    +0.115 A 
BRANCH  36  39
ATOM     39  C   LIG    1      -37.753  87.748  27.083  0.00  0.00    +0.436 C 
ATOM     40  F   LIG    1      -38.142  87.434  25.819  0.00  0.00    -0.164 F 
ATOM     41  F   LIG    1      -37.822  89.101  27.201  0.00  0.00    -0.164 F 
ATOM     42  F   LIG    1      -38.714  87.248  27.912  0.00  0.00    -0.164 F 
ENDBRANCH  36  39
ENDBRANCH  29  34
BRANCH  32  43
ATOM     43  C   LIG    1      -29.777  88.011  31.601  0.00  0.00    +0.417 C 
ATOM     44  F   LIG    1      -29.739  87.147  32.653  0.00  0.00    -0.166 F 
ATOM     45  F   LIG    1      -29.739  89.260  32.142  0.00  0.00    -0.166 F 
ATOM     46  F   LIG    1      -28.594  87.849  30.946  0.00  0.00    -0.166 F 
ENDBRANCH  32  43
ENDBRANCH  26  28
ENDBRANCH   2  26
BRANCH   2  47
ATOM     47  O   LIG    1      -34.240  90.103  26.821  0.00  0.00    -0.481 OA
ATOM     48  H   LIG    1      -34.582  90.779  26.221  0.00  0.00    +0.295 HD
ENDBRANCH   2  47
TORSDOF 11
ENDMDL
MODEL 4
REMARK VINA RESULT:      -6.7     11.309     15.928
REMARK  Name = pdb/CHEMBL3906654.pdb
REMARK                            x       y       z     vdW  Elec       q    Type
REMARK                         _______ _______ _______ _____ _____    ______ ____
ROOT
ATOM      1  N   LIG    1      -38.557  69.005  22.708  0.00  0.00    -0.196 NA
ATOM      2  C   LIG    1      -38.105  69.937  23.483  0.00  0.00    +0.285 C 
ENDROOT
BRANCH   1   6
ATOM      3  C   LIG    1      -36.214  67.025  19.894  0.00  0.00    +0.323 A 
ATOM      4  N   LIG    1      -36.855  68.119  19.461  0.00  0.00    -0.201 NA
ATOM      5  C   LIG    1      -37.627  68.755  20.382  0.00  0.00    +0.145 A 
ATOM      6  C   LIG    1      -37.771  68.397  21.709  0.00  0.00    +0.105 A 
ATOM      7  C   LIG    1      -37.067  67.244  22.016  0.00  0.00    +0.145 A 
ATOM      8  N   LIG    1      -36.313  66.539  21.144  0.00  0.00    -0.201 NA
BRANCH   3   9
ATOM      9  O   LIG    1      -35.445  66.378  18.934  0.00  0.00    -0.424 OA
BRANCH   9  13
ATOM     10  C   LIG    1      -31.344  67.300  18.491  0.00  0.00    -0.014 A 
ATOM     11  C   LIG    1      -31.800  66.563  19.599  0.00  0.00    +0.012 A 
ATOM     12  C   LIG    1      -33.148  66.250  19.779  0.00  0.00    +0.047 A 
ATOM     13  C   LIG    1      -34.096  66.628  18.836  0.00  0.00    +0.132 A 
ATOM     14  C   LIG    1      -33.681  67.381  17.738  0.00  0.00    +0.047 A 
ATOM     15  C   LIG    1      -32.323  67.697  17.561  0.00  0.00    +0.012 A 
BRANCH  10  17
ATOM     16  C   LIG    1      -29.318  68.875  18.646  0.00  0.00    +0.124 A 
ATOM     17  C   LIG    1      -29.898  67.622  18.353  0.00  0.00    +0.023 A 
ATOM     18  C   LIG    1      -28.997  66.615  17.939  0.00  0.00    +0.033 A 
ATOM     19  C   LIG    1      -27.635  66.864  17.844  0.00  0.00    +0.060 A 
ATOM     20 CL   LIG    1      -26.549  65.617  17.388  0.00  0.00    -0.082 Cl
ATOM     21  C   LIG    1      -27.186  68.133  18.136  0.00  0.00    +0.133 A 
ATOM     22  N   LIG    1      -27.997  69.143  18.526  0.00  0.00    -0.239 NA
BRANCH  16  23
ATOM     23  N   LIG    1      -30.053  69.965  19.109  0.00  0.00    -0.343 N 
ATOM     24  H   LIG    1      -29.589  70.401  19.898  0.00  0.00    +0.144 HD
ATOM     25  H   LIG    1      -30.142  70.607  18.324  0.00  0.00    +0.144 HD
ENDBRANCH  16  23
ENDBRANCH  10  17
ENDBRANCH   9  13
ENDBRANCH   3   9
ENDBRANCH   1   6
BRANCH   2  26
ATOM     26  N   LIG    1      -38.735  70.598  24.508  0.00  0.00    -0.267 N 
ATOM     27  H   LIG    1      -39.120  70.012  25.222  0.00  0.00    +0.157 HD
BRANCH  26  28
ATOM     28  C   LIG    1      -38.748  71.973  24.832  0.00  0.00    +0.061 A 
ATOM     29  C   LIG    1      -37.906  72.583  25.808  0.00  0.00    +0.087 A 
ATOM     30  C   LIG    1      -38.063  73.961  26.101  0.00  0.00    +0.030 A 
ATOM     31  C   LIG    1      -39.011  74.744  25.449  0.00  0.00    +0.014 A 
ATOM     32  C   LIG    1      -39.862  74.167  24.510  0.00  0.00    +0.057 A 
ATOM     33  C   LIG    1      -39.727  72.797  24.225  0.00  0.00    +0.037 A 
BRANCH  29  34
ATOM     34  N   LIG    1      -36.875  71.925  26.565  0.00  0.00    -0.238 N 
ATOM     35  N   LIG    1      -36.058  71.002  25.967  0.00  0.00    -0.162 NA
ATOM     36  C   LIG    1      -35.205  70.579  26.922  0.00  0.00    +0.166 A 
ATOM     37  C   LIG    1      -35.510  71.195  28.156  0.00  0.00    +0.054 A 
ATOM     38  C   LIG    1      -36.601  71.991  27.912  0.00  0.00    +0.115 A 
BRANCH  36  39
ATOM     39  C   LIG    1      -34.122  69.547  26.689  0.00  0.00    +0.436 C 
ATOM     40  F   LIG    1      -33.550  69.653  25.460  0.00  0.00    -0.164 F 
ATOM     41  F   LIG    1      -34.574  68.271  26.815  0.00  0.00    -0.164 F 
ATOM     42  F   LIG    1      -33.109  69.680  27.593  0.00  0.00    -0.164 F 
ENDBRANCH  36  39
ENDBRANCH  29  34
BRANCH  32  43
ATOM     43  C   LIG    1      -40.902  75.014  23.823  0.00  0.00    +0.417 C 
ATOM     44  F   LIG    1      -41.834  75.493  24.693  0.00  0.00    -0.166 F 
ATOM     45  F   LIG    1      -41.595  74.319  22.879  0.00  0.00    -0.166 F 
ATOM     46  F   LIG    1      -40.393  76.105  23.188  0.00  0.00    -0.166 F 
ENDBRANCH  32  43
ENDBRANCH  26  28
ENDBRANCH   2  26
BRANCH   2  47
ATOM     47  O   LIG    1      -36.829  70.344  23.344  0.00  0.00    -0.481 OA
ATOM     48  H   LIG    1      -36.414  70.604  24.178  0.00  0.00    +0.295 HD
ENDBRANCH   2  47
TORSDOF 11
ENDMDL
MODEL 5
REMARK VINA RESULT:      -6.7     11.205     16.592
REMARK  Name = pdb/CHEMBL3906654.pdb
REMARK                            x       y       z     vdW  Elec       q    Type
REMARK                         _______ _______ _______ _____ _____    ______ ____
ROOT
ATOM      1  N   LIG    1      -24.471  76.867  33.703  0.00  0.00    -0.196 NA
ATOM      2  C   LIG    1      -23.731  77.928  33.735  0.00  0.00    +0.285 C 
ENDROOT
BRANCH   1   6
ATOM      3  C   LIG    1      -28.331  76.926  32.142  0.00  0.00    +0.323 A 
ATOM      4  N   LIG    1      -27.357  76.578  31.290  0.00  0.00    -0.201 NA
ATOM      5  C   LIG    1      -26.097  76.572  31.803  0.00  0.00    +0.145 A 
ATOM      6  C   LIG    1      -25.751  76.849  33.112  0.00  0.00    +0.105 A 
ATOM      7  C   LIG    1      -26.850  77.205  33.877  0.00  0.00    +0.145 A 
ATOM      8  N   LIG    1      -28.122  77.272  33.424  0.00  0.00    -0.201 NA
BRANCH   3   9
ATOM      9  O   LIG    1      -29.608  76.945  31.594  0.00  0.00    -0.424 OA
BRANCH   9  13
ATOM     10  C   LIG    1      -31.346  73.324  30.279  0.00  0.00    -0.014 A 
ATOM     11  C   LIG    1      -31.377  74.473  29.468  0.00  0.00    +0.012 A 
ATOM     12  C   LIG    1      -30.821  75.686  29.877  0.00  0.00    +0.047 A 
ATOM     13  C   LIG    1      -30.173  75.792  31.101  0.00  0.00    +0.132 A 
ATOM     14  C   LIG    1      -30.146  74.678  31.940  0.00  0.00    +0.047 A 
ATOM     15  C   LIG    1      -30.709  73.459  31.527  0.00  0.00    +0.012 A 
BRANCH  10  17
ATOM     16  C   LIG    1      -31.261  70.884  29.474  0.00  0.00    +0.124 A 
ATOM     17  C   LIG    1      -31.969  72.059  29.804  0.00  0.00    +0.023 A 
ATOM     18  C   LIG    1      -33.376  71.973  29.699  0.00  0.00    +0.033 A 
ATOM     19  C   LIG    1      -33.996  70.796  29.304  0.00  0.00    +0.060 A 
ATOM     20 CL   LIG    1      -35.707  70.693  29.230  0.00  0.00    -0.082 Cl
ATOM     21  C   LIG    1      -33.200  69.718  28.987  0.00  0.00    +0.133 A 
ATOM     22  N   LIG    1      -31.849  69.739  29.056  0.00  0.00    -0.239 NA
BRANCH  16  23
ATOM     23  N   LIG    1      -29.874  70.780  29.565  0.00  0.00    -0.343 N 
ATOM     24  H   LIG    1      -29.551  71.087  30.475  0.00  0.00    +0.144 HD
ATOM     25  H   LIG    1      -29.647  69.802  29.396  0.00  0.00    +0.144 HD
ENDBRANCH  16  23
ENDBRANCH  10  17
ENDBRANCH   9  13
ENDBRANCH   3   9
ENDBRANCH   1   6
BRANCH   2  26
ATOM     26  N   LIG    1      -22.467  78.090  34.245  0.00  0.00    -0.267 N 
ATOM     27  H   LIG    1      -22.390  77.994  35.238  0.00  0.00    +0.157 HD
BRANCH  26  28
ATOM     28  C   LIG    1      -21.221  78.160  33.583  0.00  0.00    +0.061 A 
ATOM     29  C   LIG    1      -20.124  78.969  34.005  0.00  0.00    +0.087 A 
ATOM     30  C   LIG    1      -18.947  79.015  33.216  0.00  0.00    +0.030 A 
ATOM     31  C   LIG    1      -18.825  78.277  32.042  0.00  0.00    +0.014 A 
ATOM     32  C   LIG    1      -19.890  77.499  31.596  0.00  0.00    +0.057 A 
ATOM     33  C   LIG    1      -21.068  77.461  32.361  0.00  0.00    +0.037 A 
BRANCH  29  34
ATOM     34  N   LIG    1      -20.081  79.783  35.190  0.00  0.00    -0.238 N 
ATOM     35  N   LIG    1      -20.864  80.903  35.289  0.00  0.00    -0.162 NA
ATOM     36  C   LIG    1      -20.608  81.435  36.502  0.00  0.00    +0.166 A 
ATOM     37  C   LIG    1      -19.615  80.681  37.166  0.00  0.00    +0.054 A 
ATOM     38  C   LIG    1      -19.262  79.684  36.291  0.00  0.00    +0.115 A 
BRANCH  36  39
ATOM     39  C   LIG    1      -21.265  82.694  37.026  0.00  0.00    +0.436 C 
ATOM     40  F   LIG    1      -20.482  83.796  36.880  0.00  0.00    -0.164 F 
ATOM     41  F   LIG    1      -21.597  82.607  38.342  0.00  0.00    -0.164 F 
ATOM     42  F   LIG    1      -22.426  82.961  36.361  0.00  0.00    -0.164 F 
ENDBRANCH  36  39
ENDBRANCH  29  34
BRANCH  32  43
ATOM     43  C   LIG    1      -19.761  76.721  30.312  0.00  0.00    +0.417 C 
ATOM     44  F   LIG    1      -18.477  76.685  29.857  0.00  0.00    -0.166 F 
ATOM     45  F   LIG    1      -20.499  77.259  29.303  0.00  0.00    -0.166 F 
ATOM     46  F   LIG    1      -20.154  75.421  30.413  0.00  0.00    -0.166 F 
ENDBRANCH  32  43
ENDBRANCH  26  28
ENDBRANCH   2  26
BRANCH   2  47
ATOM     47  O   LIG    1      -24.188  79.065  33.177  0.00  0.00    -0.481 OA
ATOM     48  H   LIG    1      -25.140  79.055  33.008  0.00  0.00    +0.295 HD
ENDBRANCH   2  47
TORSDOF 11
ENDMDL
MODEL 6
REMARK VINA RESULT:      -6.6     17.684     21.210
REMARK  Name = pdb/CHEMBL3906654.pdb
REMARK                            x       y       z     vdW  Elec       q    Type
REMARK                         _______ _______ _______ _____ _____    ______ ____
ROOT
ATOM      1  N   LIG    1      -25.495  84.344  10.969  0.00  0.00    -0.196 NA
ATOM      2  C   LIG    1      -25.005  83.717  11.989  0.00  0.00    +0.285 C 
ENDROOT
BRANCH   1   6
ATOM      3  C   LIG    1      -29.426  83.778   9.719  0.00  0.00    +0.323 A 
ATOM      4  N   LIG    1      -29.221  84.786  10.579  0.00  0.00    -0.201 NA
ATOM      5  C   LIG    1      -27.937  84.959  10.992  0.00  0.00    +0.145 A 
ATOM      6  C   LIG    1      -26.844  84.222  10.577  0.00  0.00    +0.105 A 
ATOM      7  C   LIG    1      -27.201  83.208   9.702  0.00  0.00    +0.145 A 
ATOM      8  N   LIG    1      -28.460  82.954   9.281  0.00  0.00    -0.201 NA
BRANCH   3   9
ATOM      9  O   LIG    1      -30.748  83.606   9.324  0.00  0.00    -0.424 OA
BRANCH   9  13
ATOM     10  C   LIG    1      -32.532  79.776   9.284  0.00  0.00    -0.014 A 
ATOM     11  C   LIG    1      -31.985  80.327   8.111  0.00  0.00    +0.012 A 
ATOM     12  C   LIG    1      -31.398  81.592   8.088  0.00  0.00    +0.047 A 
ATOM     13  C   LIG    1      -31.296  82.347   9.250  0.00  0.00    +0.132 A 
ATOM     14  C   LIG    1      -31.849  81.840  10.426  0.00  0.00    +0.047 A 
ATOM     15  C   LIG    1      -32.442  80.566  10.445  0.00  0.00    +0.012 A 
BRANCH  10  17
ATOM     16  C   LIG    1      -32.692  77.298   9.954  0.00  0.00    +0.124 A 
ATOM     17  C   LIG    1      -33.163  78.428   9.252  0.00  0.00    +0.023 A 
ATOM     18  C   LIG    1      -34.346  78.232   8.504  0.00  0.00    +0.033 A 
ATOM     19  C   LIG    1      -34.989  77.002   8.487  0.00  0.00    +0.060 A 
ATOM     20 CL   LIG    1      -36.452  76.794   7.615  0.00  0.00    -0.082 Cl
ATOM     21  C   LIG    1      -34.424  75.965   9.196  0.00  0.00    +0.133 A 
ATOM     22  N   LIG    1      -33.289  76.085   9.921  0.00  0.00    -0.239 NA
BRANCH  16  23
ATOM     23  N   LIG    1      -31.565  77.327  10.775  0.00  0.00    -0.343 N 
ATOM     24  H   LIG    1      -31.449  76.441  11.255  0.00  0.00    +0.144 HD
ATOM     25  H   LIG    1      -30.774  77.533  10.169  0.00  0.00    +0.144 HD
ENDBRANCH  16  23
ENDBRANCH  10  17
ENDBRANCH   9  13
ENDBRANCH   3   9
ENDBRANCH   1   6
BRANCH   2  26
ATOM     26  N   LIG    1      -23.733  83.757  12.504  0.00  0.00    -0.267 N 
ATOM     27  H   LIG    1      -23.034  83.300  11.953  0.00  0.00    +0.157 HD
BRANCH  26  28
ATOM     28  C   LIG    1      -23.208  84.515  13.574  0.00  0.00    +0.061 A 
ATOM     29  C   LIG    1      -22.920  83.994  14.871  0.00  0.00    +0.087 A 
ATOM     30  C   LIG    1      -22.466  84.870  15.889  0.00  0.00    +0.030 A 
ATOM     31  C   LIG    1      -22.277  86.229  15.654  0.00  0.00    +0.014 A 
ATOM     32  C   LIG    1      -22.574  86.766  14.404  0.00  0.00    +0.057 A 
ATOM     33  C   LIG    1      -23.042  85.909  13.392  0.00  0.00    +0.037 A 
BRANCH  29  34
ATOM     34  N   LIG    1      -23.053  82.621  15.279  0.00  0.00    -0.238 N 
ATOM     35  N   LIG    1      -24.067  81.846  14.781  0.00  0.00    -0.162 NA
ATOM     36  C   LIG    1      -23.916  80.627  15.338  0.00  0.00    +0.166 A 
ATOM     37  C   LIG    1      -22.830  80.633  16.241  0.00  0.00    +0.054 A 
ATOM     38  C   LIG    1      -22.344  81.917  16.225  0.00  0.00    +0.115 A 
BRANCH  36  39
ATOM     39  C   LIG    1      -24.832  79.454  15.060  0.00  0.00    +0.436 C 
ATOM     40  F   LIG    1      -25.196  79.368  13.753  0.00  0.00    -0.164 F 
ATOM     41  F   LIG    1      -25.975  79.491  15.796  0.00  0.00    -0.164 F 
ATOM     42  F   LIG    1      -24.226  78.270  15.364  0.00  0.00    -0.164 F 
ENDBRANCH  36  39
ENDBRANCH  29  34
BRANCH  32  43
ATOM     43  C   LIG    1      -22.389  88.242  14.161  0.00  0.00    +0.417 C 
ATOM     44  F   LIG    1      -21.076  88.586  14.053  0.00  0.00    -0.166 F 
ATOM     45  F   LIG    1      -22.892  89.000  15.174  0.00  0.00    -0.166 F 
ATOM     46  F   LIG    1      -22.985  88.692  13.023  0.00  0.00    -0.166 F 
ENDBRANCH  32  43
ENDBRANCH  26  28
ENDBRANCH   2  26
BRANCH   2  47
ATOM     47  O   LIG    1      -25.808  82.918  12.718  0.00  0.00    -0.481 OA
ATOM     48  H   LIG    1      -26.601  83.365  13.043  0.00  0.00    +0.295 HD
ENDBRANCH   2  47
TORSDOF 11
ENDMDL
MODEL 7
REMARK VINA RESULT:      -6.6      1.918      5.220
REMARK  Name = pdb/CHEMBL3906654.pdb
REMARK                            x       y       z     vdW  Elec       q    Type
REMARK                         _______ _______ _______ _____ _____    ______ ____
ROOT
ATOM      1  N   LIG    1      -35.112  79.322  28.016  0.00  0.00    -0.196 NA
ATOM      2  C   LIG    1      -34.143  78.789  27.345  0.00  0.00    +0.285 C 
ENDROOT
BRANCH   1   6
ATOM      3  C   LIG    1      -35.282  83.373  28.962  0.00  0.00    +0.323 A 
ATOM      4  N   LIG    1      -34.704  82.580  29.874  0.00  0.00    -0.201 NA
ATOM      5  C   LIG    1      -34.662  81.256  29.564  0.00  0.00    +0.145 A 
ATOM      6  C   LIG    1      -35.120  80.681  28.394  0.00  0.00    +0.105 A 
ATOM      7  C   LIG    1      -35.704  81.611  27.550  0.00  0.00    +0.145 A 
ATOM      8  N   LIG    1      -35.816  82.932  27.810  0.00  0.00    -0.201 NA
BRANCH   3   9
ATOM      9  O   LIG    1      -35.333  84.720  29.305  0.00  0.00    -0.424 OA
BRANCH   9  13
ATOM     10  C   LIG    1      -32.138  86.480  31.438  0.00  0.00    -0.014 A 
ATOM     11  C   LIG    1      -33.426  86.410  32.000  0.00  0.00    +0.012 A 
ATOM     12  C   LIG    1      -34.503  85.844  31.319  0.00  0.00    +0.047 A 
ATOM     13  C   LIG    1      -34.331  85.286  30.058  0.00  0.00    +0.132 A 
ATOM     14  C   LIG    1      -33.072  85.360  29.462  0.00  0.00    +0.047 A 
ATOM     15  C   LIG    1      -31.989  85.934  30.150  0.00  0.00    +0.012 A 
BRANCH  10  17
ATOM     16  C   LIG    1      -30.457  88.368  31.909  0.00  0.00    +0.124 A 
ATOM     17  C   LIG    1      -31.025  87.110  32.200  0.00  0.00    +0.023 A 
ATOM     18  C   LIG    1      -30.495  86.448  33.331  0.00  0.00    +0.033 A 
ATOM     19  C   LIG    1      -29.489  87.024  34.094  0.00  0.00    +0.060 A 
ATOM     20 CL   LIG    1      -28.891  86.231  35.493  0.00  0.00    -0.082 Cl
ATOM     21  C   LIG    1      -28.998  88.249  33.701  0.00  0.00    +0.133 A 
ATOM     22  N   LIG    1      -29.454  88.928  32.623  0.00  0.00    -0.239 NA
BRANCH  16  23
ATOM     23  N   LIG    1      -30.891  89.174  30.858  0.00  0.00    -0.343 N 
ATOM     24  H   LIG    1      -30.444  90.083  30.895  0.00  0.00    +0.144 HD
ATOM     25  H   LIG    1      -30.661  88.677  30.000  0.00  0.00    +0.144 HD
ENDBRANCH  16  23
ENDBRANCH  10  17
ENDBRANCH   9  13
ENDBRANCH   3   9
ENDBRANCH   1   6
BRANCH   2  26
ATOM     26  N   LIG    1      -34.009  77.502  26.886  0.00  0.00    -0.267 N 
ATOM     27  H   LIG    1      -33.642  77.414  25.960  0.00  0.00    +0.157 HD
BRANCH  26  28
ATOM     28  C   LIG    1      -34.105  76.274  27.578  0.00  0.00    +0.061 A 
ATOM     29  C   LIG    1      -35.304  75.515  27.720  0.00  0.00    +0.087 A 
ATOM     30  C   LIG    1      -35.293  74.333  28.503  0.00  0.00    +0.030 A 
ATOM     31  C   LIG    1      -34.135  73.881  29.129  0.00  0.00    +0.014 A 
ATOM     32  C   LIG    1      -32.957  74.617  29.026  0.00  0.00    +0.057 A 
ATOM     33  C   LIG    1      -32.961  75.801  28.267  0.00  0.00    +0.037 A 
BRANCH  29  34
ATOM     34  N   LIG    1      -36.580  75.834  27.137  0.00  0.00    -0.238 N 
ATOM     35  N   LIG    1      -36.649  76.405  25.893  0.00  0.00    -0.162 NA
ATOM     36  C   LIG    1      -37.961  76.570  25.628  0.00  0.00    +0.166 A 
ATOM     37  C   LIG    1      -38.739  76.151  26.731  0.00  0.00    +0.054 A 
ATOM     38  C   LIG    1      -37.838  75.748  27.686  0.00  0.00    +0.115 A 
BRANCH  36  39
ATOM     39  C   LIG    1      -38.493  77.175  24.346  0.00  0.00    +0.436 C 
ATOM     40  F   LIG    1      -38.961  78.440  24.515  0.00  0.00    -0.164 F 
ATOM     41  F   LIG    1      -39.498  76.443  23.795  0.00  0.00    -0.164 F 
ATOM     42  F   LIG    1      -37.518  77.253  23.395  0.00  0.00    -0.164 F 
ENDBRANCH  36  39
ENDBRANCH  29  34
BRANCH  32  43
ATOM     43  C   LIG    1      -31.711  74.136  29.725  0.00  0.00    +0.417 C 
ATOM     44  F   LIG    1      -31.962  73.718  30.997  0.00  0.00    -0.166 F 
ATOM     45  F   LIG    1      -30.768  75.112  29.832  0.00  0.00    -0.166 F 
ATOM     46  F   LIG    1      -31.101  73.089  29.104  0.00  0.00    -0.166 F 
ENDBRANCH  32  43
ENDBRANCH  26  28
ENDBRANCH   2  26
BRANCH   2  47
ATOM     47  O   LIG    1      -33.097  79.555  26.981  0.00  0.00    -0.481 OA
ATOM     48  H   LIG    1      -33.076  79.753  26.036  0.00  0.00    +0.295 HD
ENDBRANCH   2  47
TORSDOF 11
ENDMDL
MODEL 8
REMARK VINA RESULT:      -6.6     17.700     20.534
REMARK  Name = pdb/CHEMBL3906654.pdb
REMARK                            x       y       z     vdW  Elec       q    Type
REMARK                         _______ _______ _______ _____ _____    ______ ____
ROOT
ATOM      1  N   LIG    1      -24.452  83.149  10.520  0.00  0.00    -0.196 NA
ATOM      2  C   LIG    1      -24.230  83.155  11.794  0.00  0.00    +0.285 C 
ENDROOT
BRANCH   1   6
ATOM      3  C   LIG    1      -28.202  82.540   8.815  0.00  0.00    +0.323 A 
ATOM      4  N   LIG    1      -27.555  81.440   9.222  0.00  0.00    -0.201 NA
ATOM      5  C   LIG    1      -26.326  81.644   9.769  0.00  0.00    +0.145 A 
ATOM      6  C   LIG    1      -25.720  82.869   9.969  0.00  0.00    +0.105 A 
ATOM      7  C   LIG    1      -26.491  83.917   9.491  0.00  0.00    +0.145 A 
ATOM      8  N   LIG    1      -27.700  83.785   8.902  0.00  0.00    -0.201 NA
BRANCH   3   9
ATOM      9  O   LIG    1      -29.447  82.309   8.243  0.00  0.00    -0.424 OA
BRANCH   9  13
ATOM     10  C   LIG    1      -32.886  83.968  10.055  0.00  0.00    -0.014 A 
ATOM     11  C   LIG    1      -32.300  84.579   8.931  0.00  0.00    +0.012 A 
ATOM     12  C   LIG    1      -31.159  84.062   8.316  0.00  0.00    +0.047 A 
ATOM     13  C   LIG    1      -30.577  82.886   8.774  0.00  0.00    +0.132 A 
ATOM     14  C   LIG    1      -31.119  82.269   9.902  0.00  0.00    +0.047 A 
ATOM     15  C   LIG    1      -32.266  82.794  10.521  0.00  0.00    +0.012 A 
BRANCH  10  17
ATOM     16  C   LIG    1      -34.100  85.762  11.440  0.00  0.00    +0.124 A 
ATOM     17  C   LIG    1      -34.092  84.570  10.686  0.00  0.00    +0.023 A 
ATOM     18  C   LIG    1      -35.351  83.952  10.507  0.00  0.00    +0.033 A 
ATOM     19  C   LIG    1      -36.506  84.508  11.040  0.00  0.00    +0.060 A 
ATOM     20 CL   LIG    1      -38.033  83.774  10.771  0.00  0.00    -0.082 Cl
ATOM     21  C   LIG    1      -36.388  85.666  11.777  0.00  0.00    +0.133 A 
ATOM     22  N   LIG    1      -35.212  86.299  11.994  0.00  0.00    -0.239 NA
BRANCH  16  23
ATOM     23  N   LIG    1      -32.956  86.522  11.675  0.00  0.00    -0.343 N 
ATOM     24  H   LIG    1      -32.137  86.068  11.286  0.00  0.00    +0.144 HD
ATOM     25  H   LIG    1      -33.121  87.430  11.246  0.00  0.00    +0.144 HD
ENDBRANCH  16  23
ENDBRANCH  10  17
ENDBRANCH   9  13
ENDBRANCH   3   9
ENDBRANCH   1   6
BRANCH   2  26
ATOM     26  N   LIG    1      -23.069  83.433  12.472  0.00  0.00    -0.267 N 
ATOM     27  H   LIG    1      -22.230  83.108  12.035  0.00  0.00    +0.157 HD
BRANCH  26  28
ATOM     28  C   LIG    1      -22.842  84.283  13.577  0.00  0.00    +0.061 A 
ATOM     29  C   LIG    1      -22.792  83.850  14.936  0.00  0.00    +0.087 A 
ATOM     30  C   LIG    1      -22.632  84.809  15.967  0.00  0.00    +0.030 A 
ATOM     31  C   LIG    1      -22.506  86.168  15.690  0.00  0.00    +0.014 A 
ATOM     32  C   LIG    1      -22.575  86.618  14.375  0.00  0.00    +0.057 A 
ATOM     33  C   LIG    1      -22.752  85.677  13.345  0.00  0.00    +0.037 A 
BRANCH  29  34
ATOM     34  N   LIG    1      -22.899  82.491  15.394  0.00  0.00    -0.238 N 
ATOM     35  N   LIG    1      -23.961  81.713  15.013  0.00  0.00    -0.162 NA
ATOM     36  C   LIG    1      -23.770  80.509  15.590  0.00  0.00    +0.166 A 
ATOM     37  C   LIG    1      -22.606  80.529  16.389  0.00  0.00    +0.054 A 
ATOM     38  C   LIG    1      -22.113  81.806  16.292  0.00  0.00    +0.115 A 
BRANCH  36  39
ATOM     39  C   LIG    1      -24.718  79.339  15.431  0.00  0.00    +0.436 C 
ATOM     40  F   LIG    1      -25.006  78.731  16.613  0.00  0.00    -0.164 F 
ATOM     41  F   LIG    1      -24.239  78.383  14.592  0.00  0.00    -0.164 F 
ATOM     42  F   LIG    1      -25.913  79.737  14.908  0.00  0.00    -0.164 F 
ENDBRANCH  36  39
ENDBRANCH  29  34
BRANCH  32  43
ATOM     43  C   LIG    1      -22.461  88.092  14.082  0.00  0.00    +0.417 C 
ATOM     44  F   LIG    1      -21.174  88.473  13.848  0.00  0.00    -0.166 F 
ATOM     45  F   LIG    1      -22.896  88.861  15.118  0.00  0.00    -0.166 F 
ATOM     46  F   LIG    1      -23.170  88.494  12.992  0.00  0.00    -0.166 F 
ENDBRANCH  32  43
ENDBRANCH  26  28
ENDBRANCH   2  26
BRANCH   2  47
ATOM     47  O   LIG    1      -25.245  82.893  12.639  0.00  0.00    -0.481 OA
ATOM     48  H   LIG    1      -25.015  83.024  13.569  0.00  0.00    +0.295 HD
ENDBRANCH   2  47
TORSDOF 11
ENDMDL
MODEL 9
REMARK VINA RESULT:      -6.5     18.667     20.379
REMARK  Name = pdb/CHEMBL3906654.pdb
REMARK                            x       y       z     vdW  Elec       q    Type
REMARK                         _______ _______ _______ _____ _____    ______ ____
ROOT
ATOM      1  N   LIG    1      -23.246  84.746  10.760  0.00  0.00    -0.196 NA
ATOM      2  C   LIG    1      -24.037  84.154  11.595  0.00  0.00    +0.285 C 
ENDROOT
BRANCH   1   6
ATOM      3  C   LIG    1      -23.080  88.880  10.297  0.00  0.00    +0.323 A 
ATOM      4  N   LIG    1      -23.942  88.233   9.502  0.00  0.00    -0.201 NA
ATOM      5  C   LIG    1      -23.984  86.882   9.650  0.00  0.00    +0.145 A 
ATOM      6  C   LIG    1      -23.255  86.142  10.561  0.00  0.00    +0.105 A 
ATOM      7  C   LIG    1      -22.396  86.933  11.307  0.00  0.00    +0.145 A 
ATOM      8  N   LIG    1      -22.274  88.274  11.185  0.00  0.00    -0.201 NA
BRANCH   3   9
ATOM      9  O   LIG    1      -23.038  90.258  10.117  0.00  0.00    -0.424 OA
BRANCH   9  13
ATOM     10  C   LIG    1      -25.972  92.590  12.070  0.00  0.00    -0.014 A 
ATOM     11  C   LIG    1      -25.066  93.180  11.170  0.00  0.00    +0.012 A 
ATOM     12  C   LIG    1      -24.080  92.440  10.517  0.00  0.00    +0.047 A 
ATOM     13  C   LIG    1      -23.983  91.067  10.705  0.00  0.00    +0.132 A 
ATOM     14  C   LIG    1      -24.850  90.455  11.609  0.00  0.00    +0.047 A 
ATOM     15  C   LIG    1      -25.840  91.203  12.268  0.00  0.00    +0.012 A 
BRANCH  10  17
ATOM     16  C   LIG    1      -28.366  93.458  12.424  0.00  0.00    +0.124 A 
ATOM     17  C   LIG    1      -26.995  93.427  12.755  0.00  0.00    +0.023 A 
ATOM     18  C   LIG    1      -26.612  94.236  13.849  0.00  0.00    +0.033 A 
ATOM     19  C   LIG    1      -27.545  94.994  14.542  0.00  0.00    +0.060 A 
ATOM     20 CL   LIG    1      -27.074  95.932  15.899  0.00  0.00    -0.082 Cl
ATOM     21  C   LIG    1      -28.855  94.961  14.115  0.00  0.00    +0.133 A 
ATOM     22  N   LIG    1      -29.282  94.217  13.069  0.00  0.00    -0.239 NA
BRANCH  16  23
ATOM     23  N   LIG    1      -28.921  92.688  11.403  0.00  0.00    -0.343 N 
ATOM     24  H   LIG    1      -28.415  91.816  11.296  0.00  0.00    +0.144 HD
ATOM     25  H   LIG    1      -29.893  92.530  11.658  0.00  0.00    +0.144 HD
ENDBRANCH  16  23
ENDBRANCH  10  17
ENDBRANCH   9  13
ENDBRANCH   3   9
ENDBRANCH   1   6
BRANCH   2  26
ATOM     26  N   LIG    1      -24.125  82.822  11.914  0.00  0.00    -0.267 N 
ATOM     27  H   LIG    1      -24.110  82.193  11.135  0.00  0.00    +0.157 HD
BRANCH  26  28
ATOM     28  C   LIG    1      -24.019  82.177  13.166  0.00  0.00    +0.061 A 
ATOM     29  C   LIG    1      -23.120  82.564  14.203  0.00  0.00    +0.087 A 
ATOM     30  C   LIG    1      -23.051  81.793  15.391  0.00  0.00    +0.030 A 
ATOM     31  C   LIG    1      -23.853  80.671  15.582  0.00  0.00    +0.014 A 
ATOM     32  C   LIG    1      -24.722  80.259  14.575  0.00  0.00    +0.057 A 
ATOM     33  C   LIG    1      -24.785  81.006  13.386  0.00  0.00    +0.037 A 
BRANCH  29  34
ATOM     34  N   LIG    1      -22.231  83.694  14.172  0.00  0.00    -0.238 N 
ATOM     35  N   LIG    1      -22.625  84.900  14.692  0.00  0.00    -0.162 NA
ATOM     36  C   LIG    1      -21.583  85.740  14.522  0.00  0.00    +0.166 A 
ATOM     37  C   LIG    1      -20.533  85.085  13.842  0.00  0.00    +0.054 A 
ATOM     38  C   LIG    1      -20.993  83.818  13.584  0.00  0.00    +0.115 A 
BRANCH  36  39
ATOM     39  C   LIG    1      -21.591  87.190  14.958  0.00  0.00    +0.436 C 
ATOM     40  F   LIG    1      -22.700  87.858  14.544  0.00  0.00    -0.164 F 
ATOM     41  F   LIG    1      -20.511  87.882  14.507  0.00  0.00    -0.164 F 
ATOM     42  F   LIG    1      -21.567  87.298  16.318  0.00  0.00    -0.164 F 
ENDBRANCH  36  39
ENDBRANCH  29  34
BRANCH  32  43
ATOM     43  C   LIG    1      -25.571  79.030  14.777  0.00  0.00    +0.417 C 
ATOM     44  F   LIG    1      -26.206  79.035  15.982  0.00  0.00    -0.166 F 
ATOM     45  F   LIG    1      -24.838  77.883  14.746  0.00  0.00    -0.166 F 
ATOM     46  F   LIG    1      -26.549  78.876  13.843  0.00  0.00    -0.166 F 
ENDBRANCH  32  43
ENDBRANCH  26  28
ENDBRANCH   2  26
BRANCH   2  47
ATOM     47  O   LIG    1      -24.904  84.892  12.314  0.00  0.00    -0.481 OA
ATOM     48  H   LIG    1      -25.577  84.364  12.764  0.00  0.00    +0.295 HD
ENDBRANCH   2  47
TORSDOF 11
ENDMDL
