MODEL 1
REMARK VINA RESULT:      -6.6      0.000      0.000
REMARK  Name = pdb/CHEMBL3582440.pdb
REMARK                            x       y       z     vdW  Elec       q    Type
REMARK                         _______ _______ _______ _____ _____    ______ ____
ROOT
ATOM      1  C   LIG    1      -24.631  77.552  32.812  0.00  0.00    +0.111 A 
ATOM      2  N   LIG    1      -24.438  78.365  33.919  0.00  0.00    -0.209 N 
ATOM      3  N   LIG    1      -23.301  79.060  34.244  0.00  0.00    -0.149 NA
ATOM      4  C   LIG    1      -23.381  79.811  35.320  0.00  0.00    +0.143 A 
ATOM      5  C   LIG    1      -24.625  79.852  36.162  0.00  0.00    +0.049 A 
ATOM      6  C   LIG    1      -25.692  79.148  35.792  0.00  0.00    +0.051 A 
ATOM      7  C   LIG    1      -25.636  78.377  34.616  0.00  0.00    +0.155 A 
ATOM      8  N   LIG    1      -26.556  77.637  34.043  0.00  0.00    -0.234 NA
ATOM      9  C   LIG    1      -25.948  77.138  32.921  0.00  0.00    +0.143 A 
ENDROOT
BRANCH   1  12
ATOM     10  C   LIG    1      -21.506  76.413  31.377  0.00  0.00    +0.122 A 
ATOM     11  N   LIG    1      -22.511  76.678  32.245  0.00  0.00    -0.230 NA
ATOM     12  C   LIG    1      -23.659  77.232  31.771  0.00  0.00    +0.093 A 
ATOM     13  C   LIG    1      -23.846  77.536  30.433  0.00  0.00    +0.030 A 
ATOM     14  C   LIG    1      -22.815  77.264  29.542  0.00  0.00    +0.005 A 
ATOM     15  C   LIG    1      -21.633  76.704  30.020  0.00  0.00    +0.044 A 
BRANCH  10  19
ATOM     16  C   LIG    1      -18.165  73.855  31.866  0.00  0.00    +0.118 C 
ATOM     17  C   LIG    1      -19.267  73.871  32.920  0.00  0.00    +0.050 C 
ATOM     18  C   LIG    1      -20.558  74.490  32.376  0.00  0.00    +0.109 C 
ATOM     19  N   LIG    1      -20.285  75.831  31.820  0.00  0.00    -0.315 N 
ATOM     20  C   LIG    1      -19.285  75.811  30.740  0.00  0.00    +0.109 C 
ATOM     21  C   LIG    1      -17.966  75.247  31.273  0.00  0.00    +0.050 C 
BRANCH  16  22
ATOM     22  O   LIG    1      -18.503  72.915  30.848  0.00  0.00    -0.392 OA
ATOM     23  H   LIG    1      -19.364  73.174  30.475  0.00  0.00    +0.210 HD
ENDBRANCH  16  22
ENDBRANCH  10  19
ENDBRANCH   1  12
BRANCH   4  24
ATOM     24  N   LIG    1      -22.283  80.579  35.679  0.00  0.00    -0.307 N 
ATOM     25  C   LIG    1      -21.113  80.065  36.406  0.00  0.00    +0.105 C 
ATOM     26  C   LIG    1      -20.646  81.254  37.257  0.00  0.00    +0.029 C 
ATOM     27  C   LIG    1      -21.047  82.466  36.435  0.00  0.00    +0.021 C 
ATOM     28  C   LIG    1      -22.372  82.038  35.812  0.00  0.00    +0.107 C 
BRANCH  25  29
ATOM     29  C   LIG    1      -20.030  79.550  35.470  0.00  0.00    -0.024 A 
ATOM     30  C   LIG    1      -20.206  79.489  34.079  0.00  0.00    +0.043 A 
ATOM     31  C   LIG    1      -19.192  79.001  33.261  0.00  0.00    +0.124 A 
ATOM     32  F   LIG    1      -19.381  78.952  31.937  0.00  0.00    -0.205 F 
ATOM     33  C   LIG    1      -17.988  78.561  33.797  0.00  0.00    +0.038 A 
ATOM     34  C   LIG    1      -17.792  78.617  35.174  0.00  0.00    +0.003 A 
ATOM     35  C   LIG    1      -18.802  79.114  36.004  0.00  0.00    +0.005 A 
ENDBRANCH  25  29
ENDBRANCH   4  24
TORSDOF 5
ENDMDL
MODEL 2
REMARK VINA RESULT:      -6.6     18.228     21.459
REMARK  Name = pdb/CHEMBL3582440.pdb
REMARK                            x       y       z     vdW  Elec       q    Type
REMARK                         _______ _______ _______ _____ _____    ______ ____
ROOT
ATOM      1  C   LIG    1      -20.060  81.984  14.161  0.00  0.00    +0.111 A 
ATOM      2  N   LIG    1      -20.002  83.305  13.737  0.00  0.00    -0.209 N 
ATOM      3  N   LIG    1      -20.926  84.289  13.977  0.00  0.00    -0.149 NA
ATOM      4  C   LIG    1      -20.618  85.481  13.518  0.00  0.00    +0.143 A 
ATOM      5  C   LIG    1      -19.360  85.724  12.732  0.00  0.00    +0.049 A 
ATOM      6  C   LIG    1      -18.509  84.720  12.531  0.00  0.00    +0.051 A 
ATOM      7  C   LIG    1      -18.803  83.449  13.058  0.00  0.00    +0.155 A 
ATOM      8  N   LIG    1      -18.112  82.334  13.017  0.00  0.00    -0.234 NA
ATOM      9  C   LIG    1      -18.874  81.430  13.709  0.00  0.00    +0.143 A 
ENDROOT
BRANCH   1  12
ATOM     10  C   LIG    1      -23.054  80.033  14.754  0.00  0.00    +0.122 A 
ATOM     11  N   LIG    1      -21.978  80.604  14.164  0.00  0.00    -0.230 NA
ATOM     12  C   LIG    1      -21.130  81.348  14.924  0.00  0.00    +0.093 A 
ATOM     13  C   LIG    1      -21.321  81.546  16.281  0.00  0.00    +0.030 A 
ATOM     14  C   LIG    1      -22.425  80.959  16.886  0.00  0.00    +0.005 A 
ATOM     15  C   LIG    1      -23.302  80.202  16.115  0.00  0.00    +0.044 A 
BRANCH  10  19
ATOM     16  C   LIG    1      -26.322  77.596  13.599  0.00  0.00    +0.118 C 
ATOM     17  C   LIG    1      -24.929  76.987  13.726  0.00  0.00    +0.050 C 
ATOM     18  C   LIG    1      -23.999  77.873  14.558  0.00  0.00    +0.109 C 
ATOM     19  N   LIG    1      -23.970  79.242  14.004  0.00  0.00    -0.315 N 
ATOM     20  C   LIG    1      -25.301  79.871  13.961  0.00  0.00    +0.109 C 
ATOM     21  C   LIG    1      -26.237  79.032  13.088  0.00  0.00    +0.050 C 
BRANCH  16  22
ATOM     22  O   LIG    1      -26.972  77.549  14.868  0.00  0.00    -0.392 OA
ATOM     23  H   LIG    1      -27.677  76.880  14.818  0.00  0.00    +0.210 HD
ENDBRANCH  16  22
ENDBRANCH  10  19
ENDBRANCH   1  12
BRANCH   4  24
ATOM     24  N   LIG    1      -21.485  86.536  13.768  0.00  0.00    -0.307 N 
ATOM     25  C   LIG    1      -21.956  87.483  12.747  0.00  0.00    +0.105 C 
ATOM     26  C   LIG    1      -22.127  88.804  13.508  0.00  0.00    +0.029 C 
ATOM     27  C   LIG    1      -22.478  88.365  14.918  0.00  0.00    +0.021 C 
ATOM     28  C   LIG    1      -21.635  87.109  15.110  0.00  0.00    +0.107 C 
BRANCH  25  29
ATOM     29  C   LIG    1      -23.240  87.019  12.076  0.00  0.00    -0.024 A 
ATOM     30  C   LIG    1      -23.750  85.723  12.244  0.00  0.00    +0.043 A 
ATOM     31  C   LIG    1      -24.923  85.338  11.602  0.00  0.00    +0.124 A 
ATOM     32  F   LIG    1      -25.391  84.096  11.776  0.00  0.00    -0.205 F 
ATOM     33  C   LIG    1      -25.614  86.221  10.782  0.00  0.00    +0.038 A 
ATOM     34  C   LIG    1      -25.128  87.513  10.607  0.00  0.00    +0.003 A 
ATOM     35  C   LIG    1      -23.953  87.912  11.254  0.00  0.00    +0.005 A 
ENDBRANCH  25  29
ENDBRANCH   4  24
TORSDOF 5
ENDMDL
MODEL 3
REMARK VINA RESULT:      -6.5     14.079     18.466
REMARK  Name = pdb/CHEMBL3582440.pdb
REMARK                            x       y       z     vdW  Elec       q    Type
REMARK                         _______ _______ _______ _____ _____    ______ ____
ROOT
ATOM      1  C   LIG    1      -34.630  75.727  27.825  0.00  0.00    +0.111 A 
ATOM      2  N   LIG    1      -35.946  75.449  27.484  0.00  0.00    -0.209 N 
ATOM      3  N   LIG    1      -36.805  76.257  26.784  0.00  0.00    -0.149 NA
ATOM      4  C   LIG    1      -37.989  75.746  26.534  0.00  0.00    +0.143 A 
ATOM      5  C   LIG    1      -38.385  74.387  27.038  0.00  0.00    +0.049 A 
ATOM      6  C   LIG    1      -37.503  73.657  27.717  0.00  0.00    +0.051 A 
ATOM      7  C   LIG    1      -36.215  74.173  27.951  0.00  0.00    +0.155 A 
ATOM      8  N   LIG    1      -35.183  73.634  28.558  0.00  0.00    -0.234 NA
ATOM      9  C   LIG    1      -34.197  74.581  28.471  0.00  0.00    +0.143 A 
ENDROOT
BRANCH   1  12
ATOM     10  C   LIG    1      -33.794  79.250  27.949  0.00  0.00    +0.122 A 
ATOM     11  N   LIG    1      -34.359  78.045  28.196  0.00  0.00    -0.230 NA
ATOM     12  C   LIG    1      -33.884  76.950  27.544  0.00  0.00    +0.093 A 
ATOM     13  C   LIG    1      -32.841  77.016  26.635  0.00  0.00    +0.030 A 
ATOM     14  C   LIG    1      -32.261  78.252  26.381  0.00  0.00    +0.005 A 
ATOM     15  C   LIG    1      -32.746  79.379  27.040  0.00  0.00    +0.044 A 
BRANCH  10  19
ATOM     16  C   LIG    1      -36.213  82.171  29.837  0.00  0.00    +0.118 C 
ATOM     17  C   LIG    1      -35.709  82.406  28.417  0.00  0.00    +0.050 C 
ATOM     18  C   LIG    1      -35.251  81.103  27.757  0.00  0.00    +0.109 C 
ATOM     19  N   LIG    1      -34.251  80.426  28.608  0.00  0.00    -0.315 N 
ATOM     20  C   LIG    1      -34.760  80.115  29.954  0.00  0.00    +0.109 C 
ATOM     21  C   LIG    1      -35.175  81.410  30.657  0.00  0.00    +0.050 C 
BRANCH  16  22
ATOM     22  O   LIG    1      -37.443  81.451  29.785  0.00  0.00    -0.392 OA
ATOM     23  H   LIG    1      -37.273  80.598  29.348  0.00  0.00    +0.210 HD
ENDBRANCH  16  22
ENDBRANCH  10  19
ENDBRANCH   1  12
BRANCH   4  24
ATOM     24  N   LIG    1      -38.891  76.491  25.787  0.00  0.00    -0.307 N 
ATOM     25  C   LIG    1      -39.057  76.375  24.331  0.00  0.00    +0.105 C 
ATOM     26  C   LIG    1      -39.435  77.792  23.880  0.00  0.00    +0.029 C 
ATOM     27  C   LIG    1      -40.168  78.368  25.078  0.00  0.00    +0.021 C 
ATOM     28  C   LIG    1      -39.412  77.777  26.264  0.00  0.00    +0.107 C 
BRANCH  25  29
ATOM     29  C   LIG    1      -40.101  75.338  23.947  0.00  0.00    -0.024 A 
ATOM     30  C   LIG    1      -39.867  73.959  24.057  0.00  0.00    +0.043 A 
ATOM     31  C   LIG    1      -40.847  73.045  23.684  0.00  0.00    +0.124 A 
ATOM     32  F   LIG    1      -40.602  71.734  23.797  0.00  0.00    -0.205 F 
ATOM     33  C   LIG    1      -42.076  73.471  23.196  0.00  0.00    +0.038 A 
ATOM     34  C   LIG    1      -42.330  74.835  23.084  0.00  0.00    +0.003 A 
ATOM     35  C   LIG    1      -41.354  75.762  23.463  0.00  0.00    +0.005 A 
ENDBRANCH  25  29
ENDBRANCH   4  24
TORSDOF 5
ENDMDL
MODEL 4
REMARK VINA RESULT:      -6.4     15.027     18.846
REMARK  Name = pdb/CHEMBL3582440.pdb
REMARK                            x       y       z     vdW  Elec       q    Type
REMARK                         _______ _______ _______ _____ _____    ______ ____
ROOT
ATOM      1  C   LIG    1      -39.501  78.417  24.835  0.00  0.00    +0.111 A 
ATOM      2  N   LIG    1      -38.776  77.350  25.349  0.00  0.00    -0.209 N 
ATOM      3  N   LIG    1      -37.879  77.385  26.386  0.00  0.00    -0.149 NA
ATOM      4  C   LIG    1      -37.360  76.228  26.728  0.00  0.00    +0.143 A 
ATOM      5  C   LIG    1      -37.692  74.964  25.986  0.00  0.00    +0.049 A 
ATOM      6  C   LIG    1      -38.568  75.002  24.984  0.00  0.00    +0.051 A 
ATOM      7  C   LIG    1      -39.167  76.227  24.637  0.00  0.00    +0.155 A 
ATOM      8  N   LIG    1      -40.067  76.502  23.722  0.00  0.00    -0.234 NA
ATOM      9  C   LIG    1      -40.289  77.848  23.849  0.00  0.00    +0.143 A 
ENDROOT
BRANCH   1  12
ATOM     10  C   LIG    1      -39.661  82.024  24.543  0.00  0.00    +0.122 A 
ATOM     11  N   LIG    1      -39.759  80.699  24.282  0.00  0.00    -0.230 NA
ATOM     12  C   LIG    1      -39.442  79.811  25.262  0.00  0.00    +0.093 A 
ATOM     13  C   LIG    1      -39.023  80.206  26.522  0.00  0.00    +0.030 A 
ATOM     14  C   LIG    1      -38.923  81.566  26.790  0.00  0.00    +0.005 A 
ATOM     15  C   LIG    1      -39.238  82.481  25.790  0.00  0.00    +0.044 A 
BRANCH  10  19
ATOM     16  C   LIG    1      -39.682  84.400  21.036  0.00  0.00    +0.118 C 
ATOM     17  C   LIG    1      -39.178  84.991  22.348  0.00  0.00    +0.050 C 
ATOM     18  C   LIG    1      -38.830  83.898  23.362  0.00  0.00    +0.109 C 
ATOM     19  N   LIG    1      -39.983  82.995  23.553  0.00  0.00    -0.315 N 
ATOM     20  C   LIG    1      -40.421  82.351  22.303  0.00  0.00    +0.109 C 
ATOM     21  C   LIG    1      -40.827  83.423  21.290  0.00  0.00    +0.050 C 
BRANCH  16  22
ATOM     22  O   LIG    1      -38.602  83.751  20.368  0.00  0.00    -0.392 OA
ATOM     23  H   LIG    1      -38.842  83.659  19.430  0.00  0.00    +0.210 HD
ENDBRANCH  16  22
ENDBRANCH  10  19
ENDBRANCH   1  12
BRANCH   4  24
ATOM     24  N   LIG    1      -36.483  76.183  27.802  0.00  0.00    -0.307 N 
ATOM     25  C   LIG    1      -35.060  75.829  27.697  0.00  0.00    +0.105 C 
ATOM     26  C   LIG    1      -34.747  75.125  29.024  0.00  0.00    +0.029 C 
ATOM     27  C   LIG    1      -35.699  75.776  30.011  0.00  0.00    +0.021 C 
ATOM     28  C   LIG    1      -36.957  76.004  29.179  0.00  0.00    +0.107 C 
BRANCH  25  29
ATOM     29  C   LIG    1      -34.177  77.043  27.452  0.00  0.00    -0.024 A 
ATOM     30  C   LIG    1      -34.504  78.319  27.935  0.00  0.00    +0.043 A 
ATOM     31  C   LIG    1      -33.673  79.405  27.678  0.00  0.00    +0.124 A 
ATOM     32  F   LIG    1      -34.004  80.613  28.149  0.00  0.00    -0.205 F 
ATOM     33  C   LIG    1      -32.506  79.255  26.940  0.00  0.00    +0.038 A 
ATOM     34  C   LIG    1      -32.161  77.996  26.455  0.00  0.00    +0.003 A 
ATOM     35  C   LIG    1      -32.986  76.897  26.715  0.00  0.00    +0.005 A 
ENDBRANCH  25  29
ENDBRANCH   4  24
TORSDOF 5
ENDMDL
MODEL 5
REMARK VINA RESULT:      -6.3     13.652     17.766
REMARK  Name = pdb/CHEMBL3582440.pdb
REMARK                            x       y       z     vdW  Elec       q    Type
REMARK                         _______ _______ _______ _____ _____    ______ ____
ROOT
ATOM      1  C   LIG    1      -33.803  75.689  28.425  0.00  0.00    +0.111 A 
ATOM      2  N   LIG    1      -34.965  74.966  28.194  0.00  0.00    -0.209 N 
ATOM      3  N   LIG    1      -36.045  75.358  27.445  0.00  0.00    -0.149 NA
ATOM      4  C   LIG    1      -37.007  74.470  27.327  0.00  0.00    +0.143 A 
ATOM      5  C   LIG    1      -36.941  73.138  28.021  0.00  0.00    +0.049 A 
ATOM      6  C   LIG    1      -35.865  72.825  28.738  0.00  0.00    +0.051 A 
ATOM      7  C   LIG    1      -34.806  73.747  28.834  0.00  0.00    +0.155 A 
ATOM      8  N   LIG    1      -33.650  73.651  29.448  0.00  0.00    -0.234 NA
ATOM      9  C   LIG    1      -33.020  74.839  29.187  0.00  0.00    +0.143 A 
ENDROOT
BRANCH   1  12
ATOM     10  C   LIG    1      -34.187  79.265  27.985  0.00  0.00    +0.122 A 
ATOM     11  N   LIG    1      -34.334  77.992  28.422  0.00  0.00    -0.230 NA
ATOM     12  C   LIG    1      -33.491  77.034  27.950  0.00  0.00    +0.093 A 
ATOM     13  C   LIG    1      -32.485  77.307  27.038  0.00  0.00    +0.030 A 
ATOM     14  C   LIG    1      -32.335  78.613  26.590  0.00  0.00    +0.005 A 
ATOM     15  C   LIG    1      -33.197  79.598  27.063  0.00  0.00    +0.044 A 
BRANCH  10  19
ATOM     16  C   LIG    1      -35.735  83.023  29.181  0.00  0.00    +0.118 C 
ATOM     17  C   LIG    1      -35.404  81.969  30.233  0.00  0.00    +0.050 C 
ATOM     18  C   LIG    1      -34.469  80.892  29.678  0.00  0.00    +0.109 C 
ATOM     19  N   LIG    1      -35.041  80.305  28.450  0.00  0.00    -0.315 N 
ATOM     20  C   LIG    1      -35.281  81.304  27.395  0.00  0.00    +0.109 C 
ATOM     21  C   LIG    1      -36.257  82.365  27.907  0.00  0.00    +0.050 C 
BRANCH  16  22
ATOM     22  O   LIG    1      -34.568  83.796  28.909  0.00  0.00    -0.392 OA
ATOM     23  H   LIG    1      -34.851  84.704  28.704  0.00  0.00    +0.210 HD
ENDBRANCH  16  22
ENDBRANCH  10  19
ENDBRANCH   1  12
BRANCH   4  24
ATOM     24  N   LIG    1      -38.108  74.781  26.541  0.00  0.00    -0.307 N 
ATOM     25  C   LIG    1      -38.144  74.656  25.077  0.00  0.00    +0.105 C 
ATOM     26  C   LIG    1      -39.074  75.790  24.625  0.00  0.00    +0.029 C 
ATOM     27  C   LIG    1      -40.035  75.954  25.789  0.00  0.00    +0.021 C 
ATOM     28  C   LIG    1      -39.151  75.702  27.006  0.00  0.00    +0.107 C 
BRANCH  25  29
ATOM     29  C   LIG    1      -38.623  73.286  24.624  0.00  0.00    -0.024 A 
ATOM     30  C   LIG    1      -37.809  72.145  24.691  0.00  0.00    +0.043 A 
ATOM     31  C   LIG    1      -38.285  70.912  24.256  0.00  0.00    +0.124 A 
ATOM     32  F   LIG    1      -37.490  69.837  24.329  0.00  0.00    -0.205 F 
ATOM     33  C   LIG    1      -39.569  70.780  23.745  0.00  0.00    +0.038 A 
ATOM     34  C   LIG    1      -40.395  71.898  23.674  0.00  0.00    +0.003 A 
ATOM     35  C   LIG    1      -39.929  73.141  24.117  0.00  0.00    +0.005 A 
ENDBRANCH  25  29
ENDBRANCH   4  24
TORSDOF 5
ENDMDL
MODEL 6
REMARK VINA RESULT:      -6.3     15.350     19.610
REMARK  Name = pdb/CHEMBL3582440.pdb
REMARK                            x       y       z     vdW  Elec       q    Type
REMARK                         _______ _______ _______ _____ _____    ______ ____
ROOT
ATOM      1  C   LIG    1      -39.128  77.911  25.771  0.00  0.00    +0.111 A 
ATOM      2  N   LIG    1      -39.792  76.854  25.166  0.00  0.00    -0.209 N 
ATOM      3  N   LIG    1      -39.990  75.599  25.683  0.00  0.00    -0.149 NA
ATOM      4  C   LIG    1      -40.703  74.784  24.940  0.00  0.00    +0.143 A 
ATOM      5  C   LIG    1      -41.214  75.192  23.587  0.00  0.00    +0.049 A 
ATOM      6  C   LIG    1      -40.980  76.425  23.142  0.00  0.00    +0.051 A 
ATOM      7  C   LIG    1      -40.259  77.324  23.948  0.00  0.00    +0.155 A 
ATOM      8  N   LIG    1      -39.937  78.580  23.740  0.00  0.00    -0.234 NA
ATOM      9  C   LIG    1      -39.253  78.953  24.867  0.00  0.00    +0.143 A 
ENDROOT
BRANCH   1  12
ATOM     10  C   LIG    1      -36.392  77.827  28.143  0.00  0.00    +0.122 A 
ATOM     11  N   LIG    1      -37.109  77.908  26.998  0.00  0.00    -0.230 NA
ATOM     12  C   LIG    1      -38.467  77.910  27.072  0.00  0.00    +0.093 A 
ATOM     13  C   LIG    1      -39.150  77.834  28.275  0.00  0.00    +0.030 A 
ATOM     14  C   LIG    1      -38.414  77.750  29.450  0.00  0.00    +0.005 A 
ATOM     15  C   LIG    1      -37.023  77.741  29.383  0.00  0.00    +0.044 A 
BRANCH  10  19
ATOM     16  C   LIG    1      -32.345  78.121  26.925  0.00  0.00    +0.118 C 
ATOM     17  C   LIG    1      -32.969  76.749  27.157  0.00  0.00    +0.050 C 
ATOM     18  C   LIG    1      -34.498  76.816  27.149  0.00  0.00    +0.109 C 
ATOM     19  N   LIG    1      -34.968  77.824  28.121  0.00  0.00    -0.315 N 
ATOM     20  C   LIG    1      -34.440  79.171  27.851  0.00  0.00    +0.109 C 
ATOM     21  C   LIG    1      -32.911  79.143  27.907  0.00  0.00    +0.050 C 
BRANCH  16  22
ATOM     22  O   LIG    1      -32.588  78.525  25.579  0.00  0.00    -0.392 OA
ATOM     23  H   LIG    1      -33.468  78.198  25.322  0.00  0.00    +0.210 HD
ENDBRANCH  16  22
ENDBRANCH  10  19
ENDBRANCH   1  12
BRANCH   4  24
ATOM     24  N   LIG    1      -40.984  73.514  25.425  0.00  0.00    -0.307 N 
ATOM     25  C   LIG    1      -41.266  72.346  24.579  0.00  0.00    +0.105 C 
ATOM     26  C   LIG    1      -42.261  71.516  25.400  0.00  0.00    +0.029 C 
ATOM     27  C   LIG    1      -41.892  71.831  26.839  0.00  0.00    +0.021 C 
ATOM     28  C   LIG    1      -41.502  73.304  26.782  0.00  0.00    +0.107 C 
BRANCH  25  29
ATOM     29  C   LIG    1      -40.007  71.571  24.223  0.00  0.00    -0.024 A 
ATOM     30  C   LIG    1      -38.736  71.951  24.682  0.00  0.00    +0.043 A 
ATOM     31  C   LIG    1      -37.609  71.218  24.323  0.00  0.00    +0.124 A 
ATOM     32  F   LIG    1      -36.407  71.598  24.772  0.00  0.00    -0.205 F 
ATOM     33  C   LIG    1      -37.711  70.101  23.503  0.00  0.00    +0.038 A 
ATOM     34  C   LIG    1      -38.963  69.706  23.041  0.00  0.00    +0.003 A 
ATOM     35  C   LIG    1      -40.104  70.430  23.403  0.00  0.00    +0.005 A 
ENDBRANCH  25  29
ENDBRANCH   4  24
TORSDOF 5
ENDMDL
MODEL 7
REMARK VINA RESULT:      -6.3     16.349     20.590
REMARK  Name = pdb/CHEMBL3582440.pdb
REMARK                            x       y       z     vdW  Elec       q    Type
REMARK                         _______ _______ _______ _____ _____    ______ ____
ROOT
ATOM      1  C   LIG    1      -36.042  68.318  24.809  0.00  0.00    +0.111 A 
ATOM      2  N   LIG    1      -36.858  68.573  23.715  0.00  0.00    -0.209 N 
ATOM      3  N   LIG    1      -38.115  69.121  23.734  0.00  0.00    -0.149 NA
ATOM      4  C   LIG    1      -38.666  69.318  22.558  0.00  0.00    +0.143 A 
ATOM      5  C   LIG    1      -37.977  68.912  21.285  0.00  0.00    +0.049 A 
ATOM      6  C   LIG    1      -36.759  68.380  21.340  0.00  0.00    +0.051 A 
ATOM      7  C   LIG    1      -36.137  68.207  22.590  0.00  0.00    +0.155 A 
ATOM      8  N   LIG    1      -34.946  67.740  22.888  0.00  0.00    -0.234 NA
ATOM      9  C   LIG    1      -34.875  67.820  24.253  0.00  0.00    +0.143 A 
ENDROOT
BRANCH   1  12
ATOM     10  C   LIG    1      -36.079  70.021  28.006  0.00  0.00    +0.122 A 
ATOM     11  N   LIG    1      -35.913  69.739  26.692  0.00  0.00    -0.230 NA
ATOM     12  C   LIG    1      -36.356  68.544  26.216  0.00  0.00    +0.093 A 
ATOM     13  C   LIG    1      -36.973  67.600  27.021  0.00  0.00    +0.030 A 
ATOM     14  C   LIG    1      -37.142  67.890  28.369  0.00  0.00    +0.005 A 
ATOM     15  C   LIG    1      -36.686  69.108  28.866  0.00  0.00    +0.044 A 
BRANCH  10  19
ATOM     16  C   LIG    1      -34.277  73.817  28.538  0.00  0.00    +0.118 C 
ATOM     17  C   LIG    1      -33.662  72.588  29.197  0.00  0.00    +0.050 C 
ATOM     18  C   LIG    1      -34.161  71.293  28.551  0.00  0.00    +0.109 C 
ATOM     19  N   LIG    1      -35.637  71.258  28.554  0.00  0.00    -0.315 N 
ATOM     20  C   LIG    1      -36.239  72.398  27.842  0.00  0.00    +0.109 C 
ATOM     21  C   LIG    1      -35.799  73.706  28.504  0.00  0.00    +0.050 C 
BRANCH  16  22
ATOM     22  O   LIG    1      -33.750  73.956  27.220  0.00  0.00    -0.392 OA
ATOM     23  H   LIG    1      -33.579  73.065  26.870  0.00  0.00    +0.210 HD
ENDBRANCH  16  22
ENDBRANCH  10  19
ENDBRANCH   1  12
BRANCH   4  24
ATOM     24  N   LIG    1      -39.917  69.915  22.501  0.00  0.00    -0.307 N 
ATOM     25  C   LIG    1      -40.615  70.492  23.659  0.00  0.00    +0.105 C 
ATOM     26  C   LIG    1      -42.101  70.250  23.364  0.00  0.00    +0.029 C 
ATOM     27  C   LIG    1      -42.176  70.274  21.848  0.00  0.00    +0.021 C 
ATOM     28  C   LIG    1      -40.869  69.612  21.426  0.00  0.00    +0.107 C 
BRANCH  25  29
ATOM     29  C   LIG    1      -40.287  71.964  23.859  0.00  0.00    -0.024 A 
ATOM     30  C   LIG    1      -39.076  72.394  24.421  0.00  0.00    +0.043 A 
ATOM     31  C   LIG    1      -38.822  73.751  24.595  0.00  0.00    +0.124 A 
ATOM     32  F   LIG    1      -37.660  74.139  25.134  0.00  0.00    -0.205 F 
ATOM     33  C   LIG    1      -39.756  74.709  24.221  0.00  0.00    +0.038 A 
ATOM     34  C   LIG    1      -40.962  74.303  23.656  0.00  0.00    +0.003 A 
ATOM     35  C   LIG    1      -41.224  72.941  23.470  0.00  0.00    +0.005 A 
ENDBRANCH  25  29
ENDBRANCH   4  24
TORSDOF 5
ENDMDL
MODEL 8
REMARK VINA RESULT:      -6.2     18.777     22.315
REMARK  Name = pdb/CHEMBL3582440.pdb
REMARK                            x       y       z     vdW  Elec       q    Type
REMARK                         _______ _______ _______ _____ _____    ______ ____
ROOT
ATOM      1  C   LIG    1      -21.754  81.664  15.153  0.00  0.00    +0.111 A 
ATOM      2  N   LIG    1      -22.914  81.221  14.533  0.00  0.00    -0.209 N 
ATOM      3  N   LIG    1      -23.338  81.524  13.265  0.00  0.00    -0.149 NA
ATOM      4  C   LIG    1      -24.448  80.933  12.880  0.00  0.00    +0.143 A 
ATOM      5  C   LIG    1      -25.222  80.033  13.801  0.00  0.00    +0.049 A 
ATOM      6  C   LIG    1      -24.756  79.787  15.023  0.00  0.00    +0.051 A 
ATOM      7  C   LIG    1      -23.544  80.374  15.431  0.00  0.00    +0.155 A 
ATOM      8  N   LIG    1      -22.881  80.256  16.558  0.00  0.00    -0.234 NA
ATOM      9  C   LIG    1      -21.768  81.036  16.388  0.00  0.00    +0.143 A 
ENDROOT
BRANCH   1  12
ATOM     10  C   LIG    1      -20.407  84.718  13.745  0.00  0.00    +0.122 A 
ATOM     11  N   LIG    1      -21.230  83.816  14.331  0.00  0.00    -0.230 NA
ATOM     12  C   LIG    1      -20.752  82.572  14.605  0.00  0.00    +0.093 A 
ATOM     13  C   LIG    1      -19.454  82.188  14.311  0.00  0.00    +0.030 A 
ATOM     14  C   LIG    1      -18.610  83.114  13.710  0.00  0.00    +0.005 A 
ATOM     15  C   LIG    1      -19.093  84.387  13.419  0.00  0.00    +0.044 A 
BRANCH  10  19
ATOM     16  C   LIG    1      -22.033  88.621  14.009  0.00  0.00    +0.118 C 
ATOM     17  C   LIG    1      -22.825  87.515  13.320  0.00  0.00    +0.050 C 
ATOM     18  C   LIG    1      -22.307  86.127  13.704  0.00  0.00    +0.109 C 
ATOM     19  N   LIG    1      -20.857  86.034  13.440  0.00  0.00    -0.315 N 
ATOM     20  C   LIG    1      -20.075  87.044  14.171  0.00  0.00    +0.109 C 
ATOM     21  C   LIG    1      -20.537  88.445  13.763  0.00  0.00    +0.050 C 
BRANCH  16  22
ATOM     22  O   LIG    1      -22.322  88.605  15.405  0.00  0.00    -0.392 OA
ATOM     23  H   LIG    1      -21.545  88.956  15.876  0.00  0.00    +0.210 HD
ENDBRANCH  16  22
ENDBRANCH  10  19
ENDBRANCH   1  12
BRANCH   4  24
ATOM     24  N   LIG    1      -24.908  81.156  11.590  0.00  0.00    -0.307 N 
ATOM     25  C   LIG    1      -26.105  81.944  11.261  0.00  0.00    +0.105 C 
ATOM     26  C   LIG    1      -26.666  81.270  10.002  0.00  0.00    +0.029 C 
ATOM     27  C   LIG    1      -25.435  80.707   9.315  0.00  0.00    +0.021 C 
ATOM     28  C   LIG    1      -24.561  80.260  10.482  0.00  0.00    +0.107 C 
BRANCH  25  29
ATOM     29  C   LIG    1      -25.787  83.416  11.047  0.00  0.00    -0.024 A 
ATOM     30  C   LIG    1      -24.485  83.876  10.802  0.00  0.00    +0.043 A 
ATOM     31  C   LIG    1      -24.238  85.234  10.623  0.00  0.00    +0.124 A 
ATOM     32  F   LIG    1      -22.988  85.651  10.390  0.00  0.00    -0.205 F 
ATOM     33  C   LIG    1      -25.268  86.164  10.684  0.00  0.00    +0.038 A 
ATOM     34  C   LIG    1      -26.569  85.727  10.922  0.00  0.00    +0.003 A 
ATOM     35  C   LIG    1      -26.828  84.364  11.095  0.00  0.00    +0.005 A 
ENDBRANCH  25  29
ENDBRANCH   4  24
TORSDOF 5
ENDMDL
MODEL 9
REMARK VINA RESULT:      -6.1      4.516      7.839
REMARK  Name = pdb/CHEMBL3582440.pdb
REMARK                            x       y       z     vdW  Elec       q    Type
REMARK                         _______ _______ _______ _____ _____    ______ ____
ROOT
ATOM      1  C   LIG    1      -24.237  76.622  31.018  0.00  0.00    +0.111 A 
ATOM      2  N   LIG    1      -24.861  75.434  31.371  0.00  0.00    -0.209 N 
ATOM      3  N   LIG    1      -24.269  74.207  31.531  0.00  0.00    -0.149 NA
ATOM      4  C   LIG    1      -25.065  73.240  31.927  0.00  0.00    +0.143 A 
ATOM      5  C   LIG    1      -26.537  73.462  32.131  0.00  0.00    +0.049 A 
ATOM      6  C   LIG    1      -27.048  74.678  31.951  0.00  0.00    +0.051 A 
ATOM      7  C   LIG    1      -26.199  75.734  31.574  0.00  0.00    +0.155 A 
ATOM      8  N   LIG    1      -26.463  77.004  31.372  0.00  0.00    -0.234 NA
ATOM      9  C   LIG    1      -25.255  77.561  31.044  0.00  0.00    +0.143 A 
ENDROOT
BRANCH   1  12
ATOM     10  C   LIG    1      -20.837  77.792  31.461  0.00  0.00    +0.122 A 
ATOM     11  N   LIG    1      -22.138  77.483  31.677  0.00  0.00    -0.230 NA
ATOM     12  C   LIG    1      -22.825  76.820  30.708  0.00  0.00    +0.093 A 
ATOM     13  C   LIG    1      -22.247  76.444  29.506  0.00  0.00    +0.030 A 
ATOM     14  C   LIG    1      -20.913  76.761  29.285  0.00  0.00    +0.005 A 
ATOM     15  C   LIG    1      -20.204  77.446  30.269  0.00  0.00    +0.044 A 
BRANCH  10  19
ATOM     16  C   LIG    1      -18.755  78.828  35.002  0.00  0.00    +0.118 C 
ATOM     17  C   LIG    1      -20.110  79.461  34.707  0.00  0.00    +0.050 C 
ATOM     18  C   LIG    1      -20.890  78.662  33.660  0.00  0.00    +0.109 C 
ATOM     19  N   LIG    1      -20.073  78.482  32.443  0.00  0.00    -0.315 N 
ATOM     20  C   LIG    1      -18.799  77.792  32.705  0.00  0.00    +0.109 C 
ATOM     21  C   LIG    1      -17.975  78.600  33.710  0.00  0.00    +0.050 C 
BRANCH  16  22
ATOM     22  O   LIG    1      -18.953  77.598  35.697  0.00  0.00    -0.392 OA
ATOM     23  H   LIG    1      -19.911  77.435  35.750  0.00  0.00    +0.210 HD
ENDBRANCH  16  22
ENDBRANCH  10  19
ENDBRANCH   1  12
BRANCH   4  24
ATOM     24  N   LIG    1      -24.522  71.984  32.158  0.00  0.00    -0.307 N 
ATOM     25  C   LIG    1      -25.176  70.718  31.796  0.00  0.00    +0.105 C 
ATOM     26  C   LIG    1      -24.723  69.734  32.884  0.00  0.00    +0.029 C 
ATOM     27  C   LIG    1      -23.350  70.246  33.283  0.00  0.00    +0.021 C 
ATOM     28  C   LIG    1      -23.505  71.760  33.192  0.00  0.00    +0.107 C 
BRANCH  25  29
ATOM     29  C   LIG    1      -24.808  70.256  30.395  0.00  0.00    -0.024 A 
ATOM     30  C   LIG    1      -23.476  70.107  29.978  0.00  0.00    +0.043 A 
ATOM     31  C   LIG    1      -23.185  69.691  28.682  0.00  0.00    +0.124 A 
ATOM     32  F   LIG    1      -21.908  69.556  28.306  0.00  0.00    -0.205 F 
ATOM     33  C   LIG    1      -24.198  69.418  27.773  0.00  0.00    +0.038 A 
ATOM     34  C   LIG    1      -25.526  69.554  28.168  0.00  0.00    +0.003 A 
ATOM     35  C   LIG    1      -25.830  69.964  29.471  0.00  0.00    +0.005 A 
ENDBRANCH  25  29
ENDBRANCH   4  24
TORSDOF 5
ENDMDL
