MODEL 1
REMARK VINA RESULT:      -6.9      0.000      0.000
REMARK  Name = pdb/CHEMBL3917758.pdb
REMARK                            x       y       z     vdW  Elec       q    Type
REMARK                         _______ _______ _______ _____ _____    ______ ____
ROOT
ATOM      1  C   LIG    1      -37.133  75.940  26.118  0.00  0.00    +0.149 A 
ATOM      2  N   LIG    1      -37.500  74.668  25.910  0.00  0.00    -0.160 NA
ATOM      3  N   LIG    1      -38.504  74.728  24.993  0.00  0.00    -0.218 N 
ATOM      4  C   LIG    1      -38.898  76.054  24.748  0.00  0.00    +0.129 A 
ATOM      5  C   LIG    1      -37.984  76.834  25.429  0.00  0.00    +0.078 A 
ENDROOT
BRANCH   3   6
ATOM      6  C   LIG    1      -39.066  73.506  24.517  0.00  0.00    +0.067 A 
ATOM      7  C   LIG    1      -40.317  73.453  23.896  0.00  0.00    +0.028 A 
ATOM      8  C   LIG    1      -40.842  72.226  23.470  0.00  0.00    +0.002 A 
ATOM      9  C   LIG    1      -40.110  71.053  23.635  0.00  0.00    +0.000 A 
ATOM     10  C   LIG    1      -38.849  71.100  24.220  0.00  0.00    +0.002 A 
ATOM     11  C   LIG    1      -38.323  72.320  24.651  0.00  0.00    +0.028 A 
ENDBRANCH   3   6
BRANCH   4  12
ATOM     12  N   LIG    1      -40.045  76.493  24.061  0.00  0.00    -0.266 N 
ATOM     13  H   LIG    1      -39.978  76.573  23.053  0.00  0.00    +0.157 HD
ATOM     14  C   LIG    1      -41.326  76.759  24.679  0.00  0.00    +0.251 C 
ATOM     15  O   LIG    1      -41.487  76.619  25.872  0.00  0.00    -0.270 OA
BRANCH  14  16
ATOM     16  C   LIG    1      -42.471  77.117  23.786  0.00  0.00    +0.056 A 
ATOM     17  C   LIG    1      -43.008  78.398  23.677  0.00  0.00    +0.054 A 
ATOM     18 CL   LIG    1      -42.562  79.704  24.703  0.00  0.00    -0.083 Cl
ATOM     19  C   LIG    1      -43.997  78.662  22.728  0.00  0.00    +0.041 A 
ATOM     20  C   LIG    1      -44.513  77.640  21.920  0.00  0.00    +0.052 A 
ATOM     21 CL   LIG    1      -45.609  78.160  20.683  0.00  0.00    -0.083 Cl
ATOM     22  C   LIG    1      -44.105  76.302  22.092  0.00  0.00    +0.022 A 
ATOM     23  C   LIG    1      -43.052  76.080  23.020  0.00  0.00    +0.026 A 
BRANCH  22  24
ATOM     24  C   LIG    1      -44.762  75.155  21.409  0.00  0.00    +0.107 A 
ATOM     25  C   LIG    1      -44.625  74.874  20.049  0.00  0.00    +0.149 A 
ATOM     26  F   LIG    1      -43.949  75.696  19.231  0.00  0.00    -0.203 F 
ATOM     27  C   LIG    1      -45.194  73.723  19.511  0.00  0.00    +0.042 A 
ATOM     28  C   LIG    1      -45.934  72.884  20.334  0.00  0.00    +0.023 A 
ATOM     29  C   LIG    1      -46.055  73.228  21.667  0.00  0.00    +0.111 A 
ATOM     30  N   LIG    1      -45.462  74.313  22.218  0.00  0.00    -0.252 NA
ENDBRANCH  22  24
ENDBRANCH  14  16
ENDBRANCH   4  12
BRANCH   1  31
ATOM     31  C   LIG    1      -36.065  76.235  27.070  0.00  0.00    +0.236 C 
ATOM     32  N   LIG    1      -35.229  77.195  26.880  0.00  0.00    -0.246 NA
BRANCH  32  33
ATOM     33  C   LIG    1      -34.236  77.413  27.955  0.00  0.00    +0.113 C 
ATOM     34  C   LIG    1      -34.229  78.895  28.334  0.00  0.00    +0.055 C 
ATOM     35  C   LIG    1      -33.561  79.747  27.262  0.00  0.00    +0.162 C 
ATOM     36  O   LIG    1      -32.246  79.271  26.981  0.00  0.00    -0.380 OA
ATOM     37  C   LIG    1      -32.269  77.945  26.455  0.00  0.00    +0.162 C 
ATOM     38  C   LIG    1      -32.851  76.974  27.472  0.00  0.00    +0.055 C 
ENDBRANCH  32  33
BRANCH  31  39
ATOM     39  O   LIG    1      -36.071  75.442  28.168  0.00  0.00    -0.491 OA
ATOM     40  H   LIG    1      -36.372  75.965  28.935  0.00  0.00    +0.294 HD
ENDBRANCH  31  39
ENDBRANCH   1  31
TORSDOF 7
ENDMDL
MODEL 2
REMARK VINA RESULT:      -6.9     18.820     21.560
REMARK  Name = pdb/CHEMBL3917758.pdb
REMARK                            x       y       z     vdW  Elec       q    Type
REMARK                         _______ _______ _______ _____ _____    ______ ____
ROOT
ATOM      1  C   LIG    1      -22.657  83.093  15.552  0.00  0.00    +0.149 A 
ATOM      2  N   LIG    1      -23.681  82.518  14.905  0.00  0.00    -0.160 NA
ATOM      3  N   LIG    1      -23.555  81.184  15.144  0.00  0.00    -0.218 N 
ATOM      4  C   LIG    1      -22.345  80.891  15.797  0.00  0.00    +0.129 A 
ATOM      5  C   LIG    1      -21.795  82.119  16.106  0.00  0.00    +0.078 A 
ENDROOT
BRANCH   3   6
ATOM      6  C   LIG    1      -24.550  80.302  14.629  0.00  0.00    +0.067 A 
ATOM      7  C   LIG    1      -25.134  79.300  15.410  0.00  0.00    +0.028 A 
ATOM      8  C   LIG    1      -26.088  78.439  14.853  0.00  0.00    +0.002 A 
ATOM      9  C   LIG    1      -26.484  78.591  13.526  0.00  0.00    +0.000 A 
ATOM     10  C   LIG    1      -25.935  79.608  12.752  0.00  0.00    +0.002 A 
ATOM     11  C   LIG    1      -24.980  80.466  13.301  0.00  0.00    +0.028 A 
ENDBRANCH   3   6
BRANCH   4  12
ATOM     12  N   LIG    1      -21.761  79.626  15.988  0.00  0.00    -0.266 N 
ATOM     13  H   LIG    1      -21.773  79.248  16.928  0.00  0.00    +0.157 HD
ATOM     14  C   LIG    1      -21.219  78.799  14.931  0.00  0.00    +0.251 C 
ATOM     15  O   LIG    1      -21.234  79.168  13.777  0.00  0.00    -0.270 OA
BRANCH  14  16
ATOM     16  C   LIG    1      -20.730  77.433  15.294  0.00  0.00    +0.056 A 
ATOM     17  C   LIG    1      -19.400  77.125  15.569  0.00  0.00    +0.054 A 
ATOM     18 CL   LIG    1      -18.103  78.229  15.333  0.00  0.00    -0.083 Cl
ATOM     19  C   LIG    1      -19.057  75.849  16.016  0.00  0.00    +0.041 A 
ATOM     20  C   LIG    1      -20.023  74.841  16.133  0.00  0.00    +0.052 A 
ATOM     21 CL   LIG    1      -19.469  73.368  16.858  0.00  0.00    -0.083 Cl
ATOM     22  C   LIG    1      -21.355  75.062  15.729  0.00  0.00    +0.022 A 
ATOM     23  C   LIG    1      -21.683  76.389  15.342  0.00  0.00    +0.026 A 
BRANCH  22  24
ATOM     24  C   LIG    1      -22.370  73.978  15.638  0.00  0.00    +0.107 A 
ATOM     25  C   LIG    1      -23.198  73.592  16.694  0.00  0.00    +0.149 A 
ATOM     26  F   LIG    1      -23.064  74.126  17.917  0.00  0.00    -0.203 F 
ATOM     27  C   LIG    1      -24.189  72.636  16.492  0.00  0.00    +0.042 A 
ATOM     28  C   LIG    1      -24.314  72.040  15.244  0.00  0.00    +0.023 A 
ATOM     29  C   LIG    1      -23.450  72.445  14.245  0.00  0.00    +0.111 A 
ATOM     30  N   LIG    1      -22.517  73.413  14.408  0.00  0.00    -0.252 NA
ENDBRANCH  22  24
ENDBRANCH  14  16
ENDBRANCH   4  12
BRANCH   1  31
ATOM     31  C   LIG    1      -22.491  84.543  15.493  0.00  0.00    +0.236 C 
ATOM     32  N   LIG    1      -22.119  85.144  14.418  0.00  0.00    -0.246 NA
BRANCH  32  33
ATOM     33  C   LIG    1      -22.048  86.619  14.491  0.00  0.00    +0.113 C 
ATOM     34  C   LIG    1      -22.781  87.214  13.286  0.00  0.00    +0.055 C 
ATOM     35  C   LIG    1      -21.988  87.033  11.999  0.00  0.00    +0.162 C 
ATOM     36  O   LIG    1      -20.674  87.574  12.132  0.00  0.00    -0.380 OA
ATOM     37  C   LIG    1      -19.926  86.894  13.139  0.00  0.00    +0.162 C 
ATOM     38  C   LIG    1      -20.582  87.064  14.502  0.00  0.00    +0.055 C 
ENDBRANCH  32  33
BRANCH  31  39
ATOM     39  O   LIG    1      -22.804  85.181  16.647  0.00  0.00    -0.491 OA
ATOM     40  H   LIG    1      -22.392  86.065  16.642  0.00  0.00    +0.294 HD
ENDBRANCH  31  39
ENDBRANCH   1  31
TORSDOF 7
ENDMDL
MODEL 3
REMARK VINA RESULT:      -6.8      2.988      5.120
REMARK  Name = pdb/CHEMBL3917758.pdb
REMARK                            x       y       z     vdW  Elec       q    Type
REMARK                         _______ _______ _______ _____ _____    ______ ____
ROOT
ATOM      1  C   LIG    1      -37.080  76.136  26.217  0.00  0.00    +0.149 A 
ATOM      2  N   LIG    1      -37.765  77.251  25.928  0.00  0.00    -0.160 NA
ATOM      3  N   LIG    1      -38.876  76.831  25.263  0.00  0.00    -0.218 N 
ATOM      4  C   LIG    1      -38.811  75.457  24.971  0.00  0.00    +0.129 A 
ATOM      5  C   LIG    1      -37.685  75.001  25.629  0.00  0.00    +0.078 A 
ENDROOT
BRANCH   3   6
ATOM      6  C   LIG    1      -39.845  77.801  24.873  0.00  0.00    +0.067 A 
ATOM      7  C   LIG    1      -41.183  77.718  25.267  0.00  0.00    +0.028 A 
ATOM      8  C   LIG    1      -42.106  78.680  24.836  0.00  0.00    +0.002 A 
ATOM      9  C   LIG    1      -41.693  79.743  24.035  0.00  0.00    +0.000 A 
ATOM     10  C   LIG    1      -40.356  79.853  23.668  0.00  0.00    +0.002 A 
ATOM     11  C   LIG    1      -39.433  78.894  24.091  0.00  0.00    +0.028 A 
ENDBRANCH   3   6
BRANCH   4  12
ATOM     12  N   LIG    1      -39.640  74.728  24.100  0.00  0.00    -0.266 N 
ATOM     13  H   LIG    1      -39.331  74.630  23.141  0.00  0.00    +0.157 HD
ATOM     14  C   LIG    1      -40.855  74.048  24.494  0.00  0.00    +0.251 C 
ATOM     15  O   LIG    1      -41.244  74.074  25.642  0.00  0.00    -0.270 OA
BRANCH  14  16
ATOM     16  C   LIG    1      -41.563  73.229  23.462  0.00  0.00    +0.056 A 
ATOM     17  C   LIG    1      -42.660  73.673  22.728  0.00  0.00    +0.054 A 
ATOM     18 CL   LIG    1      -43.481  75.150  23.049  0.00  0.00    -0.083 Cl
ATOM     19  C   LIG    1      -43.180  72.883  21.702  0.00  0.00    +0.041 A 
ATOM     20  C   LIG    1      -42.657  71.611  21.435  0.00  0.00    +0.052 A 
ATOM     21 CL   LIG    1      -43.297  70.829  20.028  0.00  0.00    -0.083 Cl
ATOM     22  C   LIG    1      -41.642  71.059  22.243  0.00  0.00    +0.022 A 
ATOM     23  C   LIG    1      -41.093  71.915  23.235  0.00  0.00    +0.026 A 
BRANCH  22  24
ATOM     24  C   LIG    1      -41.194  69.644  22.136  0.00  0.00    +0.107 A 
ATOM     25  C   LIG    1      -41.766  68.588  22.846  0.00  0.00    +0.149 A 
ATOM     26  F   LIG    1      -42.722  68.800  23.764  0.00  0.00    -0.203 F 
ATOM     27  C   LIG    1      -41.352  67.280  22.610  0.00  0.00    +0.042 A 
ATOM     28  C   LIG    1      -40.333  67.045  21.696  0.00  0.00    +0.023 A 
ATOM     29  C   LIG    1      -39.788  68.134  21.042  0.00  0.00    +0.111 A 
ATOM     30  N   LIG    1      -40.218  69.406  21.218  0.00  0.00    -0.252 NA
ENDBRANCH  22  24
ENDBRANCH  14  16
ENDBRANCH   4  12
BRANCH   1  31
ATOM     31  C   LIG    1      -35.811  76.234  26.934  0.00  0.00    +0.236 C 
ATOM     32  N   LIG    1      -35.177  77.348  27.049  0.00  0.00    -0.246 NA
BRANCH  32  33
ATOM     33  C   LIG    1      -33.935  77.308  27.850  0.00  0.00    +0.113 C 
ATOM     34  C   LIG    1      -33.818  78.604  28.655  0.00  0.00    +0.055 C 
ATOM     35  C   LIG    1      -33.452  79.786  27.767  0.00  0.00    +0.162 C 
ATOM     36  O   LIG    1      -32.261  79.518  27.029  0.00  0.00    -0.380 OA
ATOM     37  C   LIG    1      -32.430  78.413  26.142  0.00  0.00    +0.162 C 
ATOM     38  C   LIG    1      -32.729  77.140  26.921  0.00  0.00    +0.055 C 
ENDBRANCH  32  33
BRANCH  31  39
ATOM     39  O   LIG    1      -35.401  75.069  27.491  0.00  0.00    -0.491 OA
ATOM     40  H   LIG    1      -36.124  74.706  28.036  0.00  0.00    +0.294 HD
ENDBRANCH  31  39
ENDBRANCH   1  31
TORSDOF 7
ENDMDL
MODEL 4
REMARK VINA RESULT:      -6.8     16.461     19.246
REMARK  Name = pdb/CHEMBL3917758.pdb
REMARK                            x       y       z     vdW  Elec       q    Type
REMARK                         _______ _______ _______ _____ _____    ______ ____
ROOT
ATOM      1  C   LIG    1      -24.108  78.534  34.244  0.00  0.00    +0.149 A 
ATOM      2  N   LIG    1      -23.085  78.552  33.378  0.00  0.00    -0.160 NA
ATOM      3  N   LIG    1      -23.252  77.448  32.599  0.00  0.00    -0.218 N 
ATOM      4  C   LIG    1      -24.285  76.628  33.085  0.00  0.00    +0.129 A 
ATOM      5  C   LIG    1      -24.869  77.350  34.107  0.00  0.00    +0.078 A 
ENDROOT
BRANCH   3   6
ATOM      6  C   LIG    1      -22.338  77.226  31.528  0.00  0.00    +0.067 A 
ATOM      7  C   LIG    1      -22.745  76.704  30.296  0.00  0.00    +0.028 A 
ATOM      8  C   LIG    1      -21.806  76.476  29.282  0.00  0.00    +0.002 A 
ATOM      9  C   LIG    1      -20.464  76.793  29.481  0.00  0.00    +0.000 A 
ATOM     10  C   LIG    1      -20.055  77.345  30.691  0.00  0.00    +0.002 A 
ATOM     11  C   LIG    1      -20.987  77.570  31.707  0.00  0.00    +0.028 A 
ENDBRANCH   3   6
BRANCH   4  12
ATOM     12  N   LIG    1      -24.584  75.310  32.697  0.00  0.00    -0.266 N 
ATOM     13  H   LIG    1      -24.150  74.563  33.226  0.00  0.00    +0.157 HD
ATOM     14  C   LIG    1      -25.520  74.948  31.655  0.00  0.00    +0.251 C 
ATOM     15  O   LIG    1      -26.119  75.795  31.029  0.00  0.00    -0.270 OA
BRANCH  14  16
ATOM     16  C   LIG    1      -25.800  73.493  31.441  0.00  0.00    +0.056 A 
ATOM     17  C   LIG    1      -26.992  72.866  31.793  0.00  0.00    +0.054 A 
ATOM     18 CL   LIG    1      -28.232  73.630  32.708  0.00  0.00    -0.083 Cl
ATOM     19  C   LIG    1      -27.208  71.532  31.445  0.00  0.00    +0.041 A 
ATOM     20  C   LIG    1      -26.215  70.785  30.800  0.00  0.00    +0.052 A 
ATOM     21 CL   LIG    1      -26.698  69.202  30.287  0.00  0.00    -0.083 Cl
ATOM     22  C   LIG    1      -24.940  71.333  30.551  0.00  0.00    +0.022 A 
ATOM     23  C   LIG    1      -24.777  72.710  30.859  0.00  0.00    +0.026 A 
BRANCH  22  24
ATOM     24  C   LIG    1      -23.789  70.529  30.059  0.00  0.00    +0.107 A 
ATOM     25  C   LIG    1      -23.665  70.065  28.747  0.00  0.00    +0.149 A 
ATOM     26  F   LIG    1      -24.645  70.241  27.849  0.00  0.00    -0.203 F 
ATOM     27  C   LIG    1      -22.507  69.406  28.346  0.00  0.00    +0.042 A 
ATOM     28  C   LIG    1      -21.500  69.175  29.274  0.00  0.00    +0.023 A 
ATOM     29  C   LIG    1      -21.691  69.636  30.563  0.00  0.00    +0.111 A 
ATOM     30  N   LIG    1      -22.786  70.328  30.956  0.00  0.00    -0.252 NA
ENDBRANCH  22  24
ENDBRANCH  14  16
ENDBRANCH   4  12
BRANCH   1  31
ATOM     31  C   LIG    1      -24.226  79.593  35.243  0.00  0.00    +0.236 C 
ATOM     32  N   LIG    1      -23.202  80.246  35.668  0.00  0.00    -0.246 NA
BRANCH  32  33
ATOM     33  C   LIG    1      -23.480  81.328  36.638  0.00  0.00    +0.113 C 
ATOM     34  C   LIG    1      -22.608  82.540  36.296  0.00  0.00    +0.055 C 
ATOM     35  C   LIG    1      -21.149  82.304  36.663  0.00  0.00    +0.162 C 
ATOM     36  O   LIG    1      -21.023  81.938  38.036  0.00  0.00    -0.380 OA
ATOM     37  C   LIG    1      -21.689  80.707  38.315  0.00  0.00    +0.162 C 
ATOM     38  C   LIG    1      -23.184  80.836  38.057  0.00  0.00    +0.055 C 
ENDBRANCH  32  33
BRANCH  31  39
ATOM     39  O   LIG    1      -25.499  79.842  35.635  0.00  0.00    -0.491 OA
ATOM     40  H   LIG    1      -26.011  79.013  35.592  0.00  0.00    +0.294 HD
ENDBRANCH  31  39
ENDBRANCH   1  31
TORSDOF 7
ENDMDL
MODEL 5
REMARK VINA RESULT:      -6.6     18.281     23.076
REMARK  Name = pdb/CHEMBL3917758.pdb
REMARK                            x       y       z     vdW  Elec       q    Type
REMARK                         _______ _______ _______ _____ _____    ______ ____
ROOT
ATOM      1  C   LIG    1      -24.299  78.562  14.795  0.00  0.00    +0.149 A 
ATOM      2  N   LIG    1      -23.282  77.740  15.091  0.00  0.00    -0.160 NA
ATOM      3  N   LIG    1      -22.165  78.517  15.045  0.00  0.00    -0.218 N 
ATOM      4  C   LIG    1      -22.451  79.799  14.544  0.00  0.00    +0.129 A 
ATOM      5  C   LIG    1      -23.827  79.845  14.434  0.00  0.00    +0.078 A 
ENDROOT
BRANCH   3   6
ATOM      6  C   LIG    1      -20.911  77.928  15.382  0.00  0.00    +0.067 A 
ATOM      7  C   LIG    1      -19.918  78.630  16.071  0.00  0.00    +0.028 A 
ATOM      8  C   LIG    1      -18.691  78.019  16.355  0.00  0.00    +0.002 A 
ATOM      9  C   LIG    1      -18.458  76.698  15.980  0.00  0.00    +0.000 A 
ATOM     10  C   LIG    1      -19.454  75.979  15.325  0.00  0.00    +0.002 A 
ATOM     11  C   LIG    1      -20.678  76.586  15.035  0.00  0.00    +0.028 A 
ENDBRANCH   3   6
BRANCH   4  12
ATOM     12  N   LIG    1      -21.531  80.779  14.129  0.00  0.00    -0.266 N 
ATOM     13  H   LIG    1      -21.231  80.751  13.162  0.00  0.00    +0.157 HD
ATOM     14  C   LIG    1      -21.049  81.862  14.959  0.00  0.00    +0.251 C 
ATOM     15  O   LIG    1      -21.421  81.987  16.106  0.00  0.00    -0.270 OA
BRANCH  14  16
ATOM     16  C   LIG    1      -20.153  82.880  14.328  0.00  0.00    +0.056 A 
ATOM     17  C   LIG    1      -18.801  82.676  14.064  0.00  0.00    +0.054 A 
ATOM     18 CL   LIG    1      -17.924  81.302  14.611  0.00  0.00    -0.083 Cl
ATOM     19  C   LIG    1      -18.074  83.639  13.362  0.00  0.00    +0.041 A 
ATOM     20  C   LIG    1      -18.666  84.847  12.972  0.00  0.00    +0.052 A 
ATOM     21 CL   LIG    1      -17.682  85.860  11.967  0.00  0.00    -0.083 Cl
ATOM     22  C   LIG    1      -19.990  85.161  13.341  0.00  0.00    +0.022 A 
ATOM     23  C   LIG    1      -20.719  84.133  13.996  0.00  0.00    +0.026 A 
BRANCH  22  24
ATOM     24  C   LIG    1      -20.598  86.502  13.133  0.00  0.00    +0.107 A 
ATOM     25  C   LIG    1      -20.479  87.562  14.034  0.00  0.00    +0.149 A 
ATOM     26  F   LIG    1      -19.870  87.405  15.219  0.00  0.00    -0.203 F 
ATOM     27  C   LIG    1      -20.996  88.814  13.713  0.00  0.00    +0.042 A 
ATOM     28  C   LIG    1      -21.669  88.983  12.510  0.00  0.00    +0.023 A 
ATOM     29  C   LIG    1      -21.776  87.891  11.670  0.00  0.00    +0.111 A 
ATOM     30  N   LIG    1      -21.231  86.681  11.941  0.00  0.00    -0.252 NA
ENDBRANCH  22  24
ENDBRANCH  14  16
ENDBRANCH   4  12
BRANCH   1  31
ATOM     31  C   LIG    1      -25.661  78.037  14.749  0.00  0.00    +0.236 C 
ATOM     32  N   LIG    1      -25.985  77.046  13.995  0.00  0.00    -0.246 NA
BRANCH  32  33
ATOM     33  C   LIG    1      -27.386  76.585  14.094  0.00  0.00    +0.113 C 
ATOM     34  C   LIG    1      -27.419  75.058  13.993  0.00  0.00    +0.055 C 
ATOM     35  C   LIG    1      -27.146  74.583  12.572  0.00  0.00    +0.162 C 
ATOM     36  O   LIG    1      -28.053  75.188  11.652  0.00  0.00    -0.380 OA
ATOM     37  C   LIG    1      -27.896  76.606  11.615  0.00  0.00    +0.162 C 
ATOM     38  C   LIG    1      -28.217  77.216  12.972  0.00  0.00    +0.055 C 
ENDBRANCH  32  33
BRANCH  31  39
ATOM     39  O   LIG    1      -26.519  78.656  15.595  0.00  0.00    -0.491 OA
ATOM     40  H   LIG    1      -26.320  78.377  16.509  0.00  0.00    +0.294 HD
ENDBRANCH  31  39
ENDBRANCH   1  31
TORSDOF 7
ENDMDL
MODEL 6
REMARK VINA RESULT:      -6.5      9.033     13.380
REMARK  Name = pdb/CHEMBL3917758.pdb
REMARK                            x       y       z     vdW  Elec       q    Type
REMARK                         _______ _______ _______ _____ _____    ______ ____
ROOT
ATOM      1  C   LIG    1      -31.816  87.000  30.314  0.00  0.00    +0.149 A 
ATOM      2  N   LIG    1      -32.624  87.686  29.494  0.00  0.00    -0.160 NA
ATOM      3  N   LIG    1      -33.619  86.819  29.159  0.00  0.00    -0.218 N 
ATOM      4  C   LIG    1      -33.348  85.521  29.627  0.00  0.00    +0.129 A 
ATOM      5  C   LIG    1      -32.219  85.649  30.412  0.00  0.00    +0.078 A 
ENDROOT
BRANCH   3   6
ATOM      6  C   LIG    1      -34.682  87.287  28.332  0.00  0.00    +0.067 A 
ATOM      7  C   LIG    1      -35.432  86.428  27.524  0.00  0.00    +0.028 A 
ATOM      8  C   LIG    1      -36.449  86.937  26.706  0.00  0.00    +0.002 A 
ATOM      9  C   LIG    1      -36.740  88.299  26.712  0.00  0.00    +0.000 A 
ATOM     10  C   LIG    1      -36.023  89.157  27.540  0.00  0.00    +0.002 A 
ATOM     11  C   LIG    1      -35.005  88.655  28.353  0.00  0.00    +0.028 A 
ENDBRANCH   3   6
BRANCH   4  12
ATOM     12  N   LIG    1      -34.008  84.330  29.274  0.00  0.00    -0.266 N 
ATOM     13  H   LIG    1      -33.873  83.988  28.331  0.00  0.00    +0.157 HD
ATOM     14  C   LIG    1      -34.798  83.526  30.181  0.00  0.00    +0.251 C 
ATOM     15  O   LIG    1      -34.945  83.849  31.340  0.00  0.00    -0.270 OA
BRANCH  14  16
ATOM     16  C   LIG    1      -35.346  82.231  29.670  0.00  0.00    +0.056 A 
ATOM     17  C   LIG    1      -36.676  81.838  29.799  0.00  0.00    +0.054 A 
ATOM     18 CL   LIG    1      -37.830  82.695  30.744  0.00  0.00    -0.083 Cl
ATOM     19  C   LIG    1      -37.121  80.667  29.185  0.00  0.00    +0.041 A 
ATOM     20  C   LIG    1      -36.235  79.836  28.488  0.00  0.00    +0.052 A 
ATOM     21 CL   LIG    1      -36.971  78.514  27.644  0.00  0.00    -0.083 Cl
ATOM     22  C   LIG    1      -34.853  80.116  28.451  0.00  0.00    +0.022 A 
ATOM     23  C   LIG    1      -34.446  81.348  29.030  0.00  0.00    +0.026 A 
BRANCH  22  24
ATOM     24  C   LIG    1      -33.844  79.169  27.905  0.00  0.00    +0.107 A 
ATOM     25  C   LIG    1      -33.547  77.930  28.477  0.00  0.00    +0.149 A 
ATOM     26  F   LIG    1      -34.100  77.545  29.636  0.00  0.00    -0.203 F 
ATOM     27  C   LIG    1      -32.660  77.063  27.844  0.00  0.00    +0.042 A 
ATOM     28  C   LIG    1      -32.044  77.463  26.665  0.00  0.00    +0.023 A 
ATOM     29  C   LIG    1      -32.359  78.710  26.162  0.00  0.00    +0.111 A 
ATOM     30  N   LIG    1      -33.261  79.543  26.734  0.00  0.00    -0.252 NA
ENDBRANCH  22  24
ENDBRANCH  14  16
ENDBRANCH   4  12
BRANCH   1  31
ATOM     31  C   LIG    1      -30.625  87.647  30.859  0.00  0.00    +0.236 C 
ATOM     32  N   LIG    1      -30.398  87.704  32.124  0.00  0.00    -0.246 NA
BRANCH  32  33
ATOM     33  C   LIG    1      -29.125  88.340  32.527  0.00  0.00    +0.113 C 
ATOM     34  C   LIG    1      -28.466  87.489  33.615  0.00  0.00    +0.055 C 
ATOM     35  C   LIG    1      -29.192  87.620  34.948  0.00  0.00    +0.162 C 
ATOM     36  O   LIG    1      -29.292  88.987  35.340  0.00  0.00    -0.380 OA
ATOM     37  C   LIG    1      -30.064  89.745  34.410  0.00  0.00    +0.162 C 
ATOM     38  C   LIG    1      -29.398  89.756  33.042  0.00  0.00    +0.055 C 
ENDBRANCH  32  33
BRANCH  31  39
ATOM     39  O   LIG    1      -29.780  88.131  29.916  0.00  0.00    -0.491 OA
ATOM     40  H   LIG    1      -29.889  87.611  29.097  0.00  0.00    +0.294 HD
ENDBRANCH  31  39
ENDBRANCH   1  31
TORSDOF 7
ENDMDL
MODEL 7
REMARK VINA RESULT:      -6.5     17.608     21.544
REMARK  Name = pdb/CHEMBL3917758.pdb
REMARK                            x       y       z     vdW  Elec       q    Type
REMARK                         _______ _______ _______ _____ _____    ______ ____
ROOT
ATOM      1  C   LIG    1      -26.301  77.724  14.114  0.00  0.00    +0.149 A 
ATOM      2  N   LIG    1      -25.089  77.749  14.686  0.00  0.00    -0.160 NA
ATOM      3  N   LIG    1      -24.679  79.045  14.605  0.00  0.00    -0.218 N 
ATOM      4  C   LIG    1      -25.555  79.813  13.820  0.00  0.00    +0.129 A 
ATOM      5  C   LIG    1      -26.623  78.980  13.549  0.00  0.00    +0.078 A 
ENDROOT
BRANCH   3   6
ATOM      6  C   LIG    1      -23.430  79.403  15.194  0.00  0.00    +0.067 A 
ATOM      7  C   LIG    1      -23.303  80.481  16.075  0.00  0.00    +0.028 A 
ATOM      8  C   LIG    1      -22.051  80.812  16.607  0.00  0.00    +0.002 A 
ATOM      9  C   LIG    1      -20.927  80.054  16.287  0.00  0.00    +0.000 A 
ATOM     10  C   LIG    1      -21.050  78.958  15.440  0.00  0.00    +0.002 A 
ATOM     11  C   LIG    1      -22.295  78.626  14.902  0.00  0.00    +0.028 A 
ENDBRANCH   3   6
BRANCH   4  12
ATOM     12  N   LIG    1      -25.339  81.109  13.316  0.00  0.00    -0.266 N 
ATOM     13  H   LIG    1      -25.816  81.872  13.781  0.00  0.00    +0.157 HD
ATOM     14  C   LIG    1      -24.431  81.434  12.237  0.00  0.00    +0.251 C 
ATOM     15  O   LIG    1      -23.783  80.572  11.682  0.00  0.00    -0.270 OA
BRANCH  14  16
ATOM     16  C   LIG    1      -24.241  82.877  11.895  0.00  0.00    +0.056 A 
ATOM     17  C   LIG    1      -24.837  83.508  10.806  0.00  0.00    +0.054 A 
ATOM     18 CL   LIG    1      -25.712  82.669   9.586  0.00  0.00    -0.083 Cl
ATOM     19  C   LIG    1      -24.697  84.886  10.635  0.00  0.00    +0.041 A 
ATOM     20  C   LIG    1      -23.909  85.645  11.509  0.00  0.00    +0.052 A 
ATOM     21 CL   LIG    1      -23.973  87.359  11.262  0.00  0.00    -0.083 Cl
ATOM     22  C   LIG    1      -23.170  85.031  12.540  0.00  0.00    +0.022 A 
ATOM     23  C   LIG    1      -23.386  83.639  12.725  0.00  0.00    +0.026 A 
BRANCH  22  24
ATOM     24  C   LIG    1      -22.163  85.753  13.364  0.00  0.00    +0.107 A 
ATOM     25  C   LIG    1      -20.788  85.720  13.122  0.00  0.00    +0.149 A 
ATOM     26  F   LIG    1      -20.267  84.941  12.163  0.00  0.00    -0.203 F 
ATOM     27  C   LIG    1      -19.926  86.506  13.882  0.00  0.00    +0.042 A 
ATOM     28  C   LIG    1      -20.444  87.286  14.908  0.00  0.00    +0.023 A 
ATOM     29  C   LIG    1      -21.810  87.258  15.115  0.00  0.00    +0.111 A 
ATOM     30  N   LIG    1      -22.669  86.543  14.350  0.00  0.00    -0.252 NA
ENDBRANCH  22  24
ENDBRANCH  14  16
ENDBRANCH   4  12
BRANCH   1  31
ATOM     31  C   LIG    1      -27.031  76.462  14.026  0.00  0.00    +0.236 C 
ATOM     32  N   LIG    1      -26.431  75.324  14.056  0.00  0.00    -0.246 NA
BRANCH  32  33
ATOM     33  C   LIG    1      -27.302  74.130  14.015  0.00  0.00    +0.113 C 
ATOM     34  C   LIG    1      -26.923  73.196  15.167  0.00  0.00    +0.055 C 
ATOM     35  C   LIG    1      -25.598  72.492  14.908  0.00  0.00    +0.162 C 
ATOM     36  O   LIG    1      -25.625  71.801  13.660  0.00  0.00    -0.380 OA
ATOM     37  C   LIG    1      -25.800  72.700  12.565  0.00  0.00    +0.162 C 
ATOM     38  C   LIG    1      -27.138  73.418  12.669  0.00  0.00    +0.055 C 
ENDBRANCH  32  33
BRANCH  31  39
ATOM     39  O   LIG    1      -28.376  76.607  13.958  0.00  0.00    -0.491 OA
ATOM     40  H   LIG    1      -28.699  76.976  14.802  0.00  0.00    +0.294 HD
ENDBRANCH  31  39
ENDBRANCH   1  31
TORSDOF 7
ENDMDL
MODEL 8
REMARK VINA RESULT:      -6.5      8.779     14.738
REMARK  Name = pdb/CHEMBL3917758.pdb
REMARK                            x       y       z     vdW  Elec       q    Type
REMARK                         _______ _______ _______ _____ _____    ______ ____
ROOT
ATOM      1  C   LIG    1      -33.639  73.386  28.782  0.00  0.00    +0.149 A 
ATOM      2  N   LIG    1      -33.968  74.586  28.282  0.00  0.00    -0.160 NA
ATOM      3  N   LIG    1      -32.944  75.414  28.629  0.00  0.00    -0.218 N 
ATOM      4  C   LIG    1      -32.045  74.781  29.504  0.00  0.00    +0.129 A 
ATOM      5  C   LIG    1      -32.461  73.466  29.560  0.00  0.00    +0.078 A 
ENDROOT
BRANCH   3   6
ATOM      6  C   LIG    1      -32.979  76.767  28.177  0.00  0.00    +0.067 A 
ATOM      7  C   LIG    1      -33.705  77.757  28.845  0.00  0.00    +0.028 A 
ATOM      8  C   LIG    1      -33.732  79.066  28.349  0.00  0.00    +0.002 A 
ATOM      9  C   LIG    1      -33.015  79.400  27.202  0.00  0.00    +0.000 A 
ATOM     10  C   LIG    1      -32.260  78.429  26.551  0.00  0.00    +0.002 A 
ATOM     11  C   LIG    1      -32.233  77.121  27.039  0.00  0.00    +0.028 A 
ENDBRANCH   3   6
BRANCH   4  12
ATOM     12  N   LIG    1      -31.019  75.381  30.256  0.00  0.00    -0.266 N 
ATOM     13  H   LIG    1      -30.481  76.111  29.805  0.00  0.00    +0.157 HD
ATOM     14  C   LIG    1      -30.731  75.084  31.643  0.00  0.00    +0.251 C 
ATOM     15  O   LIG    1      -31.380  74.266  32.257  0.00  0.00    -0.270 OA
BRANCH  14  16
ATOM     16  C   LIG    1      -29.671  75.891  32.324  0.00  0.00    +0.056 A 
ATOM     17  C   LIG    1      -29.879  76.638  33.480  0.00  0.00    +0.054 A 
ATOM     18 CL   LIG    1      -31.430  76.904  34.173  0.00  0.00    -0.083 Cl
ATOM     19  C   LIG    1      -28.801  77.261  34.112  0.00  0.00    +0.041 A 
ATOM     20  C   LIG    1      -27.512  77.203  33.566  0.00  0.00    +0.052 A 
ATOM     21 CL   LIG    1      -26.260  77.881  34.553  0.00  0.00    -0.083 Cl
ATOM     22  C   LIG    1      -27.278  76.580  32.323  0.00  0.00    +0.022 A 
ATOM     23  C   LIG    1      -28.383  75.902  31.741  0.00  0.00    +0.026 A 
BRANCH  22  24
ATOM     24  C   LIG    1      -25.980  76.665  31.601  0.00  0.00    +0.107 A 
ATOM     25  C   LIG    1      -25.071  75.609  31.502  0.00  0.00    +0.149 A 
ATOM     26  F   LIG    1      -25.274  74.451  32.147  0.00  0.00    -0.203 F 
ATOM     27  C   LIG    1      -23.926  75.743  30.722  0.00  0.00    +0.042 A 
ATOM     28  C   LIG    1      -23.677  76.950  30.083  0.00  0.00    +0.023 A 
ATOM     29  C   LIG    1      -24.601  77.967  30.238  0.00  0.00    +0.111 A 
ATOM     30  N   LIG    1      -25.747  77.835  30.947  0.00  0.00    -0.252 NA
ENDBRANCH  22  24
ENDBRANCH  14  16
ENDBRANCH   4  12
BRANCH   1  31
ATOM     31  C   LIG    1      -34.542  72.254  28.591  0.00  0.00    +0.236 C 
ATOM     32  N   LIG    1      -34.810  71.784  27.424  0.00  0.00    -0.246 NA
BRANCH  32  33
ATOM     33  C   LIG    1      -35.696  70.601  27.389  0.00  0.00    +0.113 C 
ATOM     34  C   LIG    1      -34.888  69.386  26.926  0.00  0.00    +0.055 C 
ATOM     35  C   LIG    1      -34.575  69.453  25.437  0.00  0.00    +0.162 C 
ATOM     36  O   LIG    1      -35.769  69.610  24.673  0.00  0.00    -0.380 OA
ATOM     37  C   LIG    1      -36.431  70.837  24.978  0.00  0.00    +0.162 C 
ATOM     38  C   LIG    1      -36.867  70.863  26.436  0.00  0.00    +0.055 C 
ENDBRANCH  32  33
BRANCH  31  39
ATOM     39  O   LIG    1      -35.024  71.734  29.746  0.00  0.00    -0.491 OA
ATOM     40  H   LIG    1      -35.577  70.957  29.537  0.00  0.00    +0.294 HD
ENDBRANCH  31  39
ENDBRANCH   1  31
TORSDOF 7
ENDMDL
MODEL 9
REMARK VINA RESULT:      -6.4      2.406      4.152
REMARK  Name = pdb/CHEMBL3917758.pdb
REMARK                            x       y       z     vdW  Elec       q    Type
REMARK                         _______ _______ _______ _____ _____    ______ ____
ROOT
ATOM      1  C   LIG    1      -37.595  76.757  26.322  0.00  0.00    +0.149 A 
ATOM      2  N   LIG    1      -38.000  77.975  25.938  0.00  0.00    -0.160 NA
ATOM      3  N   LIG    1      -39.117  77.764  25.189  0.00  0.00    -0.218 N 
ATOM      4  C   LIG    1      -39.323  76.395  24.948  0.00  0.00    +0.129 A 
ATOM      5  C   LIG    1      -38.379  75.747  25.718  0.00  0.00    +0.078 A 
ENDROOT
BRANCH   3   6
ATOM      6  C   LIG    1      -39.822  78.896  24.682  0.00  0.00    +0.067 A 
ATOM      7  C   LIG    1      -39.310  79.696  23.657  0.00  0.00    +0.028 A 
ATOM      8  C   LIG    1      -40.025  80.815  23.212  0.00  0.00    +0.002 A 
ATOM      9  C   LIG    1      -41.266  81.124  23.765  0.00  0.00    +0.000 A 
ATOM     10  C   LIG    1      -41.800  80.313  24.761  0.00  0.00    +0.002 A 
ATOM     11  C   LIG    1      -41.089  79.199  25.213  0.00  0.00    +0.028 A 
ENDBRANCH   3   6
BRANCH   4  12
ATOM     12  N   LIG    1      -40.216  75.814  24.029  0.00  0.00    -0.266 N 
ATOM     13  H   LIG    1      -39.844  75.558  23.121  0.00  0.00    +0.157 HD
ATOM     14  C   LIG    1      -41.596  75.486  24.313  0.00  0.00    +0.251 C 
ATOM     15  O   LIG    1      -42.081  75.708  25.401  0.00  0.00    -0.270 OA
BRANCH  14  16
ATOM     16  C   LIG    1      -42.378  74.773  23.255  0.00  0.00    +0.056 A 
ATOM     17  C   LIG    1      -42.164  73.449  22.883  0.00  0.00    +0.054 A 
ATOM     18 CL   LIG    1      -40.838  72.508  23.444  0.00  0.00    -0.083 Cl
ATOM     19  C   LIG    1      -43.022  72.833  21.971  0.00  0.00    +0.041 A 
ATOM     20  C   LIG    1      -44.065  73.546  21.367  0.00  0.00    +0.052 A 
ATOM     21 CL   LIG    1      -45.139  72.599  20.391  0.00  0.00    -0.083 Cl
ATOM     22  C   LIG    1      -44.233  74.926  21.602  0.00  0.00    +0.022 A 
ATOM     23  C   LIG    1      -43.384  75.504  22.583  0.00  0.00    +0.026 A 
BRANCH  22  24
ATOM     24  C   LIG    1      -45.188  75.773  20.837  0.00  0.00    +0.107 A 
ATOM     25  C   LIG    1      -45.038  76.094  19.487  0.00  0.00    +0.149 A 
ATOM     26  F   LIG    1      -43.947  75.726  18.799  0.00  0.00    -0.203 F 
ATOM     27  C   LIG    1      -46.031  76.809  18.824  0.00  0.00    +0.042 A 
ATOM     28  C   LIG    1      -47.147  77.237  19.531  0.00  0.00    +0.023 A 
ATOM     29  C   LIG    1      -47.228  76.910  20.871  0.00  0.00    +0.111 A 
ATOM     30  N   LIG    1      -46.299  76.167  21.518  0.00  0.00    -0.252 NA
ENDBRANCH  22  24
ENDBRANCH  14  16
ENDBRANCH   4  12
BRANCH   1  31
ATOM     31  C   LIG    1      -36.397  76.623  27.147  0.00  0.00    +0.236 C 
ATOM     32  N   LIG    1      -35.330  77.302  26.915  0.00  0.00    -0.246 NA
BRANCH  32  33
ATOM     33  C   LIG    1      -34.215  77.104  27.866  0.00  0.00    +0.113 C 
ATOM     34  C   LIG    1      -34.037  78.377  28.698  0.00  0.00    +0.055 C 
ATOM     35  C   LIG    1      -33.413  79.500  27.880  0.00  0.00    +0.162 C 
ATOM     36  O   LIG    1      -32.181  79.079  27.296  0.00  0.00    -0.380 OA
ATOM     37  C   LIG    1      -32.376  78.003  26.378  0.00  0.00    +0.162 C 
ATOM     38  C   LIG    1      -32.931  76.781  27.095  0.00  0.00    +0.055 C 
ENDBRANCH  32  33
BRANCH  31  39
ATOM     39  O   LIG    1      -36.536  75.763  28.185  0.00  0.00    -0.491 OA
ATOM     40  H   LIG    1      -35.751  75.830  28.760  0.00  0.00    +0.294 HD
ENDBRANCH  31  39
ENDBRANCH   1  31
TORSDOF 7
ENDMDL
