MODEL 1
REMARK VINA RESULT:      -6.6      0.000      0.000
REMARK  Name = pdb/CHEMBL3906307.pdb
REMARK                            x       y       z     vdW  Elec       q    Type
REMARK                         _______ _______ _______ _____ _____    ______ ____
ROOT
ATOM      1  C   LIG    1      -31.462  74.586  29.898  0.00  0.00    +0.149 A 
ATOM      2  N   LIG    1      -31.405  75.860  29.466  0.00  0.00    -0.160 NA
ATOM      3  N   LIG    1      -32.557  76.052  28.770  0.00  0.00    -0.218 N 
ATOM      4  C   LIG    1      -33.228  74.847  28.544  0.00  0.00    +0.129 A 
ATOM      5  C   LIG    1      -32.565  73.917  29.312  0.00  0.00    +0.078 A 
ENDROOT
BRANCH   3   6
ATOM      6  C   LIG    1      -32.948  77.367  28.388  0.00  0.00    +0.067 A 
ATOM      7  C   LIG    1      -34.016  78.001  29.042  0.00  0.00    +0.028 A 
ATOM      8  C   LIG    1      -34.437  79.271  28.632  0.00  0.00    +0.002 A 
ATOM      9  C   LIG    1      -33.821  79.897  27.549  0.00  0.00    +0.000 A 
ATOM     10  C   LIG    1      -32.770  79.266  26.887  0.00  0.00    +0.002 A 
ATOM     11  C   LIG    1      -32.327  78.007  27.306  0.00  0.00    +0.028 A 
ENDBRANCH   3   6
BRANCH   4  12
ATOM     12  N   LIG    1      -34.322  74.609  27.696  0.00  0.00    -0.266 N 
ATOM     13  H   LIG    1      -34.125  74.274  26.760  0.00  0.00    +0.157 HD
ATOM     14  C   LIG    1      -35.692  74.642  28.150  0.00  0.00    +0.251 C 
ATOM     15  O   LIG    1      -35.949  74.860  29.333  0.00  0.00    -0.270 OA
BRANCH  14  16
ATOM     16  C   LIG    1      -36.757  74.410  27.146  0.00  0.00    +0.056 A 
ATOM     17  C   LIG    1      -37.046  73.132  26.658  0.00  0.00    +0.054 A 
ATOM     18 CL   LIG    1      -36.085  71.735  26.980  0.00  0.00    -0.083 Cl
ATOM     19  C   LIG    1      -38.125  72.950  25.796  0.00  0.00    +0.041 A 
ATOM     20  C   LIG    1      -38.881  74.036  25.336  0.00  0.00    +0.052 A 
ATOM     21 CL   LIG    1      -40.113  73.600  24.204  0.00  0.00    -0.083 Cl
ATOM     22  C   LIG    1      -38.575  75.352  25.740  0.00  0.00    +0.022 A 
ATOM     23  C   LIG    1      -37.534  75.496  26.698  0.00  0.00    +0.026 A 
BRANCH  22  24
ATOM     24  C   LIG    1      -39.206  76.589  25.209  0.00  0.00    +0.107 A 
ATOM     25  C   LIG    1      -38.672  77.393  24.203  0.00  0.00    +0.149 A 
ATOM     26  F   LIG    1      -37.536  77.087  23.570  0.00  0.00    -0.203 F 
ATOM     27  C   LIG    1      -39.364  78.510  23.757  0.00  0.00    +0.042 A 
ATOM     28  C   LIG    1      -40.610  78.796  24.291  0.00  0.00    +0.023 A 
ATOM     29  C   LIG    1      -41.097  77.961  25.283  0.00  0.00    +0.111 A 
ATOM     30  N   LIG    1      -40.431  76.875  25.754  0.00  0.00    -0.252 NA
ENDBRANCH  22  24
ENDBRANCH  14  16
ENDBRANCH   4  12
BRANCH   1  32
ATOM     31  N   LIG    1      -29.906  74.749  31.689  0.00  0.00    -0.244 NA
ATOM     32  C   LIG    1      -30.501  73.993  30.840  0.00  0.00    +0.236 C 
BRANCH  32  33
ATOM     33  O   LIG    1      -30.302  72.666  30.711  0.00  0.00    -0.491 OA
ATOM     34  H   LIG    1      -30.689  72.165  31.438  0.00  0.00    +0.294 HD
ENDBRANCH  32  33
BRANCH  31  35
ATOM     35  C   LIG    1      -28.892  74.250  32.611  0.00  0.00    +0.183 C 
BRANCH  35  40
ATOM     36  C   LIG    1      -24.526  76.347  31.232  0.00  0.00    +0.172 C 
ATOM     37  N   LIG    1      -25.606  75.425  31.489  0.00  0.00    -0.274 N 
ATOM     38  N   LIG    1      -25.411  74.108  31.302  0.00  0.00    -0.180 NA
ATOM     39  C   LIG    1      -26.568  73.561  31.676  0.00  0.00    +0.139 A 
ATOM     40  C   LIG    1      -27.512  74.518  32.122  0.00  0.00    +0.011 A 
ATOM     41  C   LIG    1      -26.858  75.723  31.947  0.00  0.00    +0.113 A 
ENDBRANCH  35  40
ENDBRANCH  31  35
ENDBRANCH   1  32
TORSDOF 8
ENDMDL
MODEL 2
REMARK VINA RESULT:      -6.5      1.554      2.001
REMARK  Name = pdb/CHEMBL3906307.pdb
REMARK                            x       y       z     vdW  Elec       q    Type
REMARK                         _______ _______ _______ _____ _____    ______ ____
ROOT
ATOM      1  C   LIG    1      -31.641  74.374  29.840  0.00  0.00    +0.149 A 
ATOM      2  N   LIG    1      -31.512  75.647  29.420  0.00  0.00    -0.160 NA
ATOM      3  N   LIG    1      -32.639  75.901  28.703  0.00  0.00    -0.218 N 
ATOM      4  C   LIG    1      -33.364  74.732  28.454  0.00  0.00    +0.129 A 
ATOM      5  C   LIG    1      -32.763  73.765  29.228  0.00  0.00    +0.078 A 
ENDROOT
BRANCH   3   6
ATOM      6  C   LIG    1      -32.957  77.236  28.324  0.00  0.00    +0.067 A 
ATOM      7  C   LIG    1      -34.008  77.917  28.960  0.00  0.00    +0.028 A 
ATOM      8  C   LIG    1      -34.357  79.209  28.551  0.00  0.00    +0.002 A 
ATOM      9  C   LIG    1      -33.687  79.812  27.488  0.00  0.00    +0.000 A 
ATOM     10  C   LIG    1      -32.654  79.135  26.843  0.00  0.00    +0.002 A 
ATOM     11  C   LIG    1      -32.282  77.853  27.260  0.00  0.00    +0.028 A 
ENDBRANCH   3   6
BRANCH   4  12
ATOM     12  N   LIG    1      -34.451  74.554  27.582  0.00  0.00    -0.266 N 
ATOM     13  H   LIG    1      -34.247  74.263  26.634  0.00  0.00    +0.157 HD
ATOM     14  C   LIG    1      -35.826  74.586  28.022  0.00  0.00    +0.251 C 
ATOM     15  O   LIG    1      -36.094  74.750  29.212  0.00  0.00    -0.270 OA
BRANCH  14  16
ATOM     16  C   LIG    1      -36.882  74.422  26.996  0.00  0.00    +0.056 A 
ATOM     17  C   LIG    1      -37.193  73.173  26.449  0.00  0.00    +0.054 A 
ATOM     18 CL   LIG    1      -36.266  71.742  26.722  0.00  0.00    -0.083 Cl
ATOM     19  C   LIG    1      -38.263  73.052  25.566  0.00  0.00    +0.041 A 
ATOM     20  C   LIG    1      -38.989  74.174  25.145  0.00  0.00    +0.052 A 
ATOM     21 CL   LIG    1      -40.215  73.815  23.980  0.00  0.00    -0.083 Cl
ATOM     22  C   LIG    1      -38.659  75.464  25.609  0.00  0.00    +0.022 A 
ATOM     23  C   LIG    1      -37.629  75.544  26.586  0.00  0.00    +0.026 A 
BRANCH  22  24
ATOM     24  C   LIG    1      -39.256  76.737  25.125  0.00  0.00    +0.107 A 
ATOM     25  C   LIG    1      -38.722  77.541  24.119  0.00  0.00    +0.149 A 
ATOM     26  F   LIG    1      -37.620  77.203  23.443  0.00  0.00    -0.203 F 
ATOM     27  C   LIG    1      -39.382  78.694  23.718  0.00  0.00    +0.042 A 
ATOM     28  C   LIG    1      -40.598  79.018  24.298  0.00  0.00    +0.023 A 
ATOM     29  C   LIG    1      -41.086  78.182  25.288  0.00  0.00    +0.111 A 
ATOM     30  N   LIG    1      -40.451  77.060  25.715  0.00  0.00    -0.252 NA
ENDBRANCH  22  24
ENDBRANCH  14  16
ENDBRANCH   4  12
BRANCH   1  32
ATOM     31  N   LIG    1      -30.668  72.448  30.839  0.00  0.00    -0.244 NA
ATOM     32  C   LIG    1      -30.729  73.728  30.797  0.00  0.00    +0.236 C 
BRANCH  32  33
ATOM     33  O   LIG    1      -30.030  74.564  31.590  0.00  0.00    -0.491 OA
ATOM     34  H   LIG    1      -30.181  74.391  32.527  0.00  0.00    +0.294 HD
ENDBRANCH  32  33
BRANCH  31  35
ATOM     35  C   LIG    1      -29.840  71.731  31.802  0.00  0.00    +0.183 C 
BRANCH  35  40
ATOM     36  C   LIG    1      -26.029  69.605  29.290  0.00  0.00    +0.172 C 
ATOM     37  N   LIG    1      -26.833  70.427  30.161  0.00  0.00    -0.274 N 
ATOM     38  N   LIG    1      -26.263  71.458  30.810  0.00  0.00    -0.180 NA
ATOM     39  C   LIG    1      -27.280  72.019  31.466  0.00  0.00    +0.139 A 
ATOM     40  C   LIG    1      -28.514  71.365  31.234  0.00  0.00    +0.011 A 
ATOM     41  C   LIG    1      -28.171  70.310  30.408  0.00  0.00    +0.113 A 
ENDBRANCH  35  40
ENDBRANCH  31  35
ENDBRANCH   1  32
TORSDOF 8
ENDMDL
MODEL 3
REMARK VINA RESULT:      -6.4      5.306      9.178
REMARK  Name = pdb/CHEMBL3906307.pdb
REMARK                            x       y       z     vdW  Elec       q    Type
REMARK                         _______ _______ _______ _____ _____    ______ ____
ROOT
ATOM      1  C   LIG    1      -37.357  79.944  27.602  0.00  0.00    +0.149 A 
ATOM      2  N   LIG    1      -36.476  79.212  28.311  0.00  0.00    -0.160 NA
ATOM      3  N   LIG    1      -36.610  77.943  27.843  0.00  0.00    -0.218 N 
ATOM      4  C   LIG    1      -37.735  77.812  27.024  0.00  0.00    +0.129 A 
ATOM      5  C   LIG    1      -38.180  79.098  26.819  0.00  0.00    +0.078 A 
ENDROOT
BRANCH   3   6
ATOM      6  C   LIG    1      -35.649  76.950  28.191  0.00  0.00    +0.067 A 
ATOM      7  C   LIG    1      -34.708  76.520  27.242  0.00  0.00    +0.028 A 
ATOM      8  C   LIG    1      -33.798  75.506  27.564  0.00  0.00    +0.002 A 
ATOM      9  C   LIG    1      -33.846  74.894  28.816  0.00  0.00    +0.000 A 
ATOM     10  C   LIG    1      -34.789  75.308  29.756  0.00  0.00    +0.002 A 
ATOM     11  C   LIG    1      -35.685  76.336  29.451  0.00  0.00    +0.028 A 
ENDBRANCH   3   6
BRANCH   4  12
ATOM     12  N   LIG    1      -38.319  76.633  26.533  0.00  0.00    -0.266 N 
ATOM     13  H   LIG    1      -39.093  76.241  27.055  0.00  0.00    +0.157 HD
ATOM     14  C   LIG    1      -37.992  76.071  25.244  0.00  0.00    +0.251 C 
ATOM     15  O   LIG    1      -37.188  76.637  24.504  0.00  0.00    -0.270 OA
BRANCH  14  16
ATOM     16  C   LIG    1      -38.651  74.801  24.858  0.00  0.00    +0.056 A 
ATOM     17  C   LIG    1      -39.906  74.778  24.241  0.00  0.00    +0.054 A 
ATOM     18 CL   LIG    1      -40.917  76.165  24.056  0.00  0.00    -0.083 Cl
ATOM     19  C   LIG    1      -40.438  73.567  23.802  0.00  0.00    +0.041 A 
ATOM     20  C   LIG    1      -39.780  72.354  24.041  0.00  0.00    +0.052 A 
ATOM     21 CL   LIG    1      -40.655  70.966  23.496  0.00  0.00    -0.083 Cl
ATOM     22  C   LIG    1      -38.550  72.323  24.731  0.00  0.00    +0.022 A 
ATOM     23  C   LIG    1      -37.984  73.580  25.077  0.00  0.00    +0.026 A 
BRANCH  22  24
ATOM     24  C   LIG    1      -37.836  71.095  25.171  0.00  0.00    +0.107 A 
ATOM     25  C   LIG    1      -37.306  70.127  24.318  0.00  0.00    +0.149 A 
ATOM     26  F   LIG    1      -37.347  70.247  22.987  0.00  0.00    -0.203 F 
ATOM     27  C   LIG    1      -36.625  69.034  24.835  0.00  0.00    +0.042 A 
ATOM     28  C   LIG    1      -36.440  68.934  26.204  0.00  0.00    +0.023 A 
ATOM     29  C   LIG    1      -36.982  69.925  27.005  0.00  0.00    +0.111 A 
ATOM     30  N   LIG    1      -37.672  70.993  26.528  0.00  0.00    -0.252 NA
ENDBRANCH  22  24
ENDBRANCH  14  16
ENDBRANCH   4  12
BRANCH   1  32
ATOM     31  N   LIG    1      -36.652  82.110  26.920  0.00  0.00    -0.244 NA
ATOM     32  C   LIG    1      -37.437  81.411  27.655  0.00  0.00    +0.236 C 
BRANCH  32  33
ATOM     33  O   LIG    1      -38.342  81.914  28.519  0.00  0.00    -0.491 OA
ATOM     34  H   LIG    1      -38.380  81.412  29.341  0.00  0.00    +0.294 HD
ENDBRANCH  32  33
BRANCH  31  35
ATOM     35  C   LIG    1      -36.624  83.568  26.962  0.00  0.00    +0.183 C 
BRANCH  35  40
ATOM     36  C   LIG    1      -38.072  86.689  23.286  0.00  0.00    +0.172 C 
ATOM     37  N   LIG    1      -37.817  85.529  24.105  0.00  0.00    -0.274 N 
ATOM     38  N   LIG    1      -38.078  84.304  23.617  0.00  0.00    -0.180 NA
ATOM     39  C   LIG    1      -37.685  83.484  24.592  0.00  0.00    +0.139 A 
ATOM     40  C   LIG    1      -37.154  84.173  25.711  0.00  0.00    +0.011 A 
ATOM     41  C   LIG    1      -37.295  85.505  25.367  0.00  0.00    +0.113 A 
ENDBRANCH  35  40
ENDBRANCH  31  35
ENDBRANCH   1  32
TORSDOF 8
ENDMDL
MODEL 4
REMARK VINA RESULT:      -6.4      5.331      9.576
REMARK  Name = pdb/CHEMBL3906307.pdb
REMARK                            x       y       z     vdW  Elec       q    Type
REMARK                         _______ _______ _______ _____ _____    ______ ____
ROOT
ATOM      1  C   LIG    1      -36.182  69.258  25.436  0.00  0.00    +0.149 A 
ATOM      2  N   LIG    1      -37.236  70.062  25.671  0.00  0.00    -0.160 NA
ATOM      3  N   LIG    1      -36.699  71.258  26.030  0.00  0.00    -0.218 N 
ATOM      4  C   LIG    1      -35.325  71.154  26.268  0.00  0.00    +0.129 A 
ATOM      5  C   LIG    1      -34.980  69.894  25.833  0.00  0.00    +0.078 A 
ENDROOT
BRANCH   3   6
ATOM      6  C   LIG    1      -37.523  72.417  26.103  0.00  0.00    +0.067 A 
ATOM      7  C   LIG    1      -38.051  72.829  27.338  0.00  0.00    +0.028 A 
ATOM      8  C   LIG    1      -38.905  73.935  27.403  0.00  0.00    +0.002 A 
ATOM      9  C   LIG    1      -39.265  74.612  26.238  0.00  0.00    +0.000 A 
ATOM     10  C   LIG    1      -38.756  74.198  25.009  0.00  0.00    +0.002 A 
ATOM     11  C   LIG    1      -37.883  73.109  24.937  0.00  0.00    +0.028 A 
ENDBRANCH   3   6
BRANCH   4  12
ATOM     12  N   LIG    1      -34.471  72.103  26.853  0.00  0.00    -0.266 N 
ATOM     13  H   LIG    1      -33.977  72.734  26.233  0.00  0.00    +0.157 HD
ATOM     14  C   LIG    1      -34.412  72.338  28.277  0.00  0.00    +0.251 C 
ATOM     15  O   LIG    1      -35.148  71.712  29.040  0.00  0.00    -0.270 OA
BRANCH  14  16
ATOM     16  C   LIG    1      -33.442  73.342  28.771  0.00  0.00    +0.056 A 
ATOM     17  C   LIG    1      -32.353  72.985  29.572  0.00  0.00    +0.054 A 
ATOM     18 CL   LIG    1      -32.129  71.414  30.252  0.00  0.00    -0.083 Cl
ATOM     19  C   LIG    1      -31.409  73.947  29.925  0.00  0.00    +0.041 A 
ATOM     20  C   LIG    1      -31.571  75.291  29.565  0.00  0.00    +0.052 A 
ATOM     21 CL   LIG    1      -30.336  76.332  30.181  0.00  0.00    -0.083 Cl
ATOM     22  C   LIG    1      -32.696  75.710  28.825  0.00  0.00    +0.022 A 
ATOM     23  C   LIG    1      -33.589  74.691  28.393  0.00  0.00    +0.026 A 
BRANCH  22  24
ATOM     24  C   LIG    1      -33.049  77.120  28.513  0.00  0.00    +0.107 A 
ATOM     25  C   LIG    1      -32.567  77.846  27.424  0.00  0.00    +0.149 A 
ATOM     26  F   LIG    1      -31.761  77.305  26.505  0.00  0.00    -0.203 F 
ATOM     27  C   LIG    1      -32.991  79.149  27.206  0.00  0.00    +0.042 A 
ATOM     28  C   LIG    1      -33.930  79.710  28.056  0.00  0.00    +0.023 A 
ATOM     29  C   LIG    1      -34.380  78.944  29.119  0.00  0.00    +0.111 A 
ATOM     30  N   LIG    1      -33.966  77.675  29.369  0.00  0.00    -0.252 NA
ENDBRANCH  22  24
ENDBRANCH  14  16
ENDBRANCH   4  12
BRANCH   1  32
ATOM     31  N   LIG    1      -36.407  67.783  23.584  0.00  0.00    -0.244 NA
ATOM     32  C   LIG    1      -36.288  67.911  24.855  0.00  0.00    +0.236 C 
BRANCH  32  33
ATOM     33  O   LIG    1      -36.277  66.894  25.739  0.00  0.00    -0.491 OA
ATOM     34  H   LIG    1      -36.659  67.143  26.588  0.00  0.00    +0.294 HD
ENDBRANCH  32  33
BRANCH  31  35
ATOM     35  C   LIG    1      -36.583  66.488  22.937  0.00  0.00    +0.183 C 
BRANCH  35  40
ATOM     36  C   LIG    1      -33.432  64.340  19.649  0.00  0.00    +0.172 C 
ATOM     37  N   LIG    1      -34.042  65.208  20.627  0.00  0.00    -0.274 N 
ATOM     38  N   LIG    1      -33.430  66.356  20.965  0.00  0.00    -0.180 NA
ATOM     39  C   LIG    1      -34.274  66.922  21.829  0.00  0.00    +0.139 A 
ATOM     40  C   LIG    1      -35.442  66.151  22.044  0.00  0.00    +0.011 A 
ATOM     41  C   LIG    1      -35.232  65.024  21.270  0.00  0.00    +0.113 A 
ENDBRANCH  35  40
ENDBRANCH  31  35
ENDBRANCH   1  32
TORSDOF 8
ENDMDL
MODEL 5
REMARK VINA RESULT:      -6.4      5.279      7.913
REMARK  Name = pdb/CHEMBL3906307.pdb
REMARK                            x       y       z     vdW  Elec       q    Type
REMARK                         _______ _______ _______ _____ _____    ______ ____
ROOT
ATOM      1  C   LIG    1      -37.206  79.960  27.694  0.00  0.00    +0.149 A 
ATOM      2  N   LIG    1      -36.260  79.136  28.184  0.00  0.00    -0.160 NA
ATOM      3  N   LIG    1      -36.504  77.931  27.604  0.00  0.00    -0.218 N 
ATOM      4  C   LIG    1      -37.738  77.916  26.948  0.00  0.00    +0.129 A 
ATOM      5  C   LIG    1      -38.162  79.225  26.952  0.00  0.00    +0.078 A 
ENDROOT
BRANCH   3   6
ATOM      6  C   LIG    1      -35.540  76.886  27.698  0.00  0.00    +0.067 A 
ATOM      7  C   LIG    1      -35.910  75.632  28.210  0.00  0.00    +0.028 A 
ATOM      8  C   LIG    1      -34.952  74.622  28.355  0.00  0.00    +0.002 A 
ATOM      9  C   LIG    1      -33.620  74.868  28.024  0.00  0.00    +0.000 A 
ATOM     10  C   LIG    1      -33.245  76.116  27.530  0.00  0.00    +0.002 A 
ATOM     11  C   LIG    1      -34.200  77.123  27.360  0.00  0.00    +0.028 A 
ENDBRANCH   3   6
BRANCH   4  12
ATOM     12  N   LIG    1      -38.428  76.811  26.422  0.00  0.00    -0.266 N 
ATOM     13  H   LIG    1      -39.287  76.534  26.881  0.00  0.00    +0.157 HD
ATOM     14  C   LIG    1      -38.073  76.184  25.171  0.00  0.00    +0.251 C 
ATOM     15  O   LIG    1      -37.144  76.627  24.495  0.00  0.00    -0.270 OA
BRANCH  14  16
ATOM     16  C   LIG    1      -38.857  75.002  24.744  0.00  0.00    +0.056 A 
ATOM     17  C   LIG    1      -40.116  75.127  24.149  0.00  0.00    +0.054 A 
ATOM     18 CL   LIG    1      -40.990  76.612  24.040  0.00  0.00    -0.083 Cl
ATOM     19  C   LIG    1      -40.769  73.994  23.669  0.00  0.00    +0.041 A 
ATOM     20  C   LIG    1      -40.229  72.713  23.846  0.00  0.00    +0.052 A 
ATOM     21 CL   LIG    1      -41.242  71.441  23.258  0.00  0.00    -0.083 Cl
ATOM     22  C   LIG    1      -38.999  72.533  24.512  0.00  0.00    +0.022 A 
ATOM     23  C   LIG    1      -38.309  73.714  24.900  0.00  0.00    +0.026 A 
BRANCH  22  24
ATOM     24  C   LIG    1      -38.402  71.225  24.887  0.00  0.00    +0.107 A 
ATOM     25  C   LIG    1      -38.859  70.399  25.914  0.00  0.00    +0.149 A 
ATOM     26  F   LIG    1      -39.941  70.695  26.641  0.00  0.00    -0.203 F 
ATOM     27  C   LIG    1      -38.247  69.178  26.157  0.00  0.00    +0.042 A 
ATOM     28  C   LIG    1      -37.204  68.766  25.343  0.00  0.00    +0.023 A 
ATOM     29  C   LIG    1      -36.793  69.621  24.335  0.00  0.00    +0.111 A 
ATOM     30  N   LIG    1      -37.359  70.832  24.089  0.00  0.00    -0.252 NA
ENDBRANCH  22  24
ENDBRANCH  14  16
ENDBRANCH   4  12
BRANCH   1  32
ATOM     31  N   LIG    1      -36.149  82.090  27.742  0.00  0.00    -0.244 NA
ATOM     32  C   LIG    1      -37.225  81.414  27.917  0.00  0.00    +0.236 C 
BRANCH  32  33
ATOM     33  O   LIG    1      -38.404  81.924  28.325  0.00  0.00    -0.491 OA
ATOM     34  H   LIG    1      -38.294  82.719  28.859  0.00  0.00    +0.294 HD
ENDBRANCH  32  33
BRANCH  31  35
ATOM     35  C   LIG    1      -36.069  83.523  28.005  0.00  0.00    +0.183 C 
BRANCH  35  40
ATOM     36  C   LIG    1      -32.911  85.766  31.222  0.00  0.00    +0.172 C 
ATOM     37  N   LIG    1      -33.685  84.803  30.478  0.00  0.00    -0.274 N 
ATOM     38  N   LIG    1      -33.675  83.513  30.854  0.00  0.00    -0.180 NA
ATOM     39  C   LIG    1      -34.519  82.928  30.003  0.00  0.00    +0.139 A 
ATOM     40  C   LIG    1      -35.091  83.838  29.081  0.00  0.00    +0.011 A 
ATOM     41  C   LIG    1      -34.491  85.042  29.401  0.00  0.00    +0.113 A 
ENDBRANCH  35  40
ENDBRANCH  31  35
ENDBRANCH   1  32
TORSDOF 8
ENDMDL
MODEL 6
REMARK VINA RESULT:      -6.4      4.982      7.240
REMARK  Name = pdb/CHEMBL3906307.pdb
REMARK                            x       y       z     vdW  Elec       q    Type
REMARK                         _______ _______ _______ _____ _____    ______ ____
ROOT
ATOM      1  C   LIG    1      -35.058  82.089  29.821  0.00  0.00    +0.149 A 
ATOM      2  N   LIG    1      -34.246  81.014  29.824  0.00  0.00    -0.160 NA
ATOM      3  N   LIG    1      -34.629  80.277  28.747  0.00  0.00    -0.218 N 
ATOM      4  C   LIG    1      -35.832  80.741  28.207  0.00  0.00    +0.129 A 
ATOM      5  C   LIG    1      -36.078  81.932  28.851  0.00  0.00    +0.078 A 
ENDROOT
BRANCH   3   6
ATOM      6  C   LIG    1      -33.815  79.198  28.297  0.00  0.00    +0.067 A 
ATOM      7  C   LIG    1      -33.000  79.357  27.164  0.00  0.00    +0.028 A 
ATOM      8  C   LIG    1      -32.242  78.282  26.688  0.00  0.00    +0.002 A 
ATOM      9  C   LIG    1      -32.320  77.038  27.314  0.00  0.00    +0.000 A 
ATOM     10  C   LIG    1      -33.138  76.872  28.429  0.00  0.00    +0.002 A 
ATOM     11  C   LIG    1      -33.881  77.946  28.927  0.00  0.00    +0.028 A 
ENDBRANCH   3   6
BRANCH   4  12
ATOM     12  N   LIG    1      -36.644  80.125  27.241  0.00  0.00    -0.266 N 
ATOM     13  H   LIG    1      -36.535  80.424  26.279  0.00  0.00    +0.157 HD
ATOM     14  C   LIG    1      -37.474  78.979  27.525  0.00  0.00    +0.251 C 
ATOM     15  O   LIG    1      -37.476  78.477  28.649  0.00  0.00    -0.270 OA
BRANCH  14  16
ATOM     16  C   LIG    1      -38.313  78.445  26.427  0.00  0.00    +0.056 A 
ATOM     17  C   LIG    1      -38.104  77.170  25.891  0.00  0.00    +0.054 A 
ATOM     18 CL   LIG    1      -36.747  76.174  26.271  0.00  0.00    -0.083 Cl
ATOM     19  C   LIG    1      -38.984  76.671  24.933  0.00  0.00    +0.041 A 
ATOM     20  C   LIG    1      -40.031  77.453  24.429  0.00  0.00    +0.052 A 
ATOM     21 CL   LIG    1      -40.946  76.676  23.184  0.00  0.00    -0.083 Cl
ATOM     22  C   LIG    1      -40.231  78.773  24.883  0.00  0.00    +0.022 A 
ATOM     23  C   LIG    1      -39.380  79.219  25.933  0.00  0.00    +0.026 A 
BRANCH  22  24
ATOM     24  C   LIG    1      -41.208  79.743  24.322  0.00  0.00    +0.107 A 
ATOM     25  C   LIG    1      -40.877  80.875  23.579  0.00  0.00    +0.149 A 
ATOM     26  F   LIG    1      -39.616  81.171  23.249  0.00  0.00    -0.203 F 
ATOM     27  C   LIG    1      -41.874  81.696  23.071  0.00  0.00    +0.042 A 
ATOM     28  C   LIG    1      -43.202  81.359  23.273  0.00  0.00    +0.023 A 
ATOM     29  C   LIG    1      -43.475  80.221  24.014  0.00  0.00    +0.111 A 
ATOM     30  N   LIG    1      -42.520  79.412  24.541  0.00  0.00    -0.252 NA
ENDBRANCH  22  24
ENDBRANCH  14  16
ENDBRANCH   4  12
BRANCH   1  32
ATOM     31  N   LIG    1      -33.715  83.574  31.105  0.00  0.00    -0.244 NA
ATOM     32  C   LIG    1      -34.892  83.246  30.713  0.00  0.00    +0.236 C 
BRANCH  32  33
ATOM     33  O   LIG    1      -36.031  83.869  31.076  0.00  0.00    -0.491 OA
ATOM     34  H   LIG    1      -36.470  83.429  31.813  0.00  0.00    +0.294 HD
ENDBRANCH  32  33
BRANCH  31  35
ATOM     35  C   LIG    1      -33.473  84.666  32.040  0.00  0.00    +0.183 C 
BRANCH  35  40
ATOM     36  C   LIG    1      -29.679  87.969  31.802  0.00  0.00    +0.172 C 
ATOM     37  N   LIG    1      -30.680  86.976  31.494  0.00  0.00    -0.274 N 
ATOM     38  N   LIG    1      -30.672  86.380  30.289  0.00  0.00    -0.180 NA
ATOM     39  C   LIG    1      -31.674  85.503  30.363  0.00  0.00    +0.139 A 
ATOM     40  C   LIG    1      -32.326  85.516  31.621  0.00  0.00    +0.011 A 
ATOM     41  C   LIG    1      -31.671  86.517  32.314  0.00  0.00    +0.113 A 
ENDBRANCH  35  40
ENDBRANCH  31  35
ENDBRANCH   1  32
TORSDOF 8
ENDMDL
MODEL 7
REMARK VINA RESULT:      -6.3      6.788      9.395
REMARK  Name = pdb/CHEMBL3906307.pdb
REMARK                            x       y       z     vdW  Elec       q    Type
REMARK                         _______ _______ _______ _____ _____    ______ ____
ROOT
ATOM      1  C   LIG    1      -37.788  77.325  26.247  0.00  0.00    +0.149 A 
ATOM      2  N   LIG    1      -38.807  77.284  25.367  0.00  0.00    -0.160 NA
ATOM      3  N   LIG    1      -38.902  75.980  24.993  0.00  0.00    -0.218 N 
ATOM      4  C   LIG    1      -37.801  75.238  25.432  0.00  0.00    +0.129 A 
ATOM      5  C   LIG    1      -37.118  76.078  26.282  0.00  0.00    +0.078 A 
ENDROOT
BRANCH   3   6
ATOM      6  C   LIG    1      -40.039  75.528  24.265  0.00  0.00    +0.067 A 
ATOM      7  C   LIG    1      -40.949  76.457  23.734  0.00  0.00    +0.028 A 
ATOM      8  C   LIG    1      -42.096  76.014  23.066  0.00  0.00    +0.002 A 
ATOM      9  C   LIG    1      -42.358  74.649  22.955  0.00  0.00    +0.000 A 
ATOM     10  C   LIG    1      -41.465  73.723  23.492  0.00  0.00    +0.002 A 
ATOM     11  C   LIG    1      -40.305  74.157  24.141  0.00  0.00    +0.028 A 
ENDBRANCH   3   6
BRANCH   4  12
ATOM     12  N   LIG    1      -37.436  73.931  25.070  0.00  0.00    -0.266 N 
ATOM     13  H   LIG    1      -36.897  73.814  24.220  0.00  0.00    +0.157 HD
ATOM     14  C   LIG    1      -37.630  72.791  25.935  0.00  0.00    +0.251 C 
ATOM     15  O   LIG    1      -38.113  72.938  27.057  0.00  0.00    -0.270 OA
BRANCH  14  16
ATOM     16  C   LIG    1      -37.236  71.460  25.420  0.00  0.00    +0.056 A 
ATOM     17  C   LIG    1      -36.095  70.797  25.882  0.00  0.00    +0.054 A 
ATOM     18 CL   LIG    1      -34.913  71.516  26.915  0.00  0.00    -0.083 Cl
ATOM     19  C   LIG    1      -35.823  69.502  25.446  0.00  0.00    +0.041 A 
ATOM     20  C   LIG    1      -36.625  68.875  24.483  0.00  0.00    +0.052 A 
ATOM     21 CL   LIG    1      -36.059  67.310  24.016  0.00  0.00    -0.083 Cl
ATOM     22  C   LIG    1      -37.741  69.537  23.930  0.00  0.00    +0.022 A 
ATOM     23  C   LIG    1      -38.051  70.816  24.468  0.00  0.00    +0.026 A 
BRANCH  22  24
ATOM     24  C   LIG    1      -38.573  69.036  22.805  0.00  0.00    +0.107 A 
ATOM     25  C   LIG    1      -38.125  68.846  21.498  0.00  0.00    +0.149 A 
ATOM     26  F   LIG    1      -36.853  69.053  21.141  0.00  0.00    -0.203 F 
ATOM     27  C   LIG    1      -38.980  68.338  20.530  0.00  0.00    +0.042 A 
ATOM     28  C   LIG    1      -40.271  67.983  20.883  0.00  0.00    +0.023 A 
ATOM     29  C   LIG    1      -40.664  68.187  22.195  0.00  0.00    +0.111 A 
ATOM     30  N   LIG    1      -39.856  68.703  23.157  0.00  0.00    -0.252 NA
ENDBRANCH  22  24
ENDBRANCH  14  16
ENDBRANCH   4  12
BRANCH   1  32
ATOM     31  N   LIG    1      -38.294  79.457  27.172  0.00  0.00    -0.244 NA
ATOM     32  C   LIG    1      -37.436  78.512  27.042  0.00  0.00    +0.236 C 
BRANCH  32  33
ATOM     33  O   LIG    1      -36.192  78.516  27.561  0.00  0.00    -0.491 OA
ATOM     34  H   LIG    1      -36.165  78.907  28.442  0.00  0.00    +0.294 HD
ENDBRANCH  32  33
BRANCH  31  35
ATOM     35  C   LIG    1      -37.999  80.693  27.888  0.00  0.00    +0.183 C 
BRANCH  35  40
ATOM     36  C   LIG    1      -37.552  84.365  24.472  0.00  0.00    +0.172 C 
ATOM     37  N   LIG    1      -37.293  83.351  25.466  0.00  0.00    -0.274 N 
ATOM     38  N   LIG    1      -36.053  83.216  25.966  0.00  0.00    -0.180 NA
ATOM     39  C   LIG    1      -36.182  82.248  26.874  0.00  0.00    +0.139 A 
ATOM     40  C   LIG    1      -37.508  81.762  26.977  0.00  0.00    +0.011 A 
ATOM     41  C   LIG    1      -38.192  82.482  26.015  0.00  0.00    +0.113 A 
ENDBRANCH  35  40
ENDBRANCH  31  35
ENDBRANCH   1  32
TORSDOF 8
ENDMDL
MODEL 8
REMARK VINA RESULT:      -6.3      4.824     10.686
REMARK  Name = pdb/CHEMBL3906307.pdb
REMARK                            x       y       z     vdW  Elec       q    Type
REMARK                         _______ _______ _______ _____ _____    ______ ____
ROOT
ATOM      1  C   LIG    1      -36.659  69.670  24.736  0.00  0.00    +0.149 A 
ATOM      2  N   LIG    1      -36.249  68.737  25.616  0.00  0.00    -0.160 NA
ATOM      3  N   LIG    1      -35.546  69.420  26.558  0.00  0.00    -0.218 N 
ATOM      4  C   LIG    1      -35.293  70.736  26.158  0.00  0.00    +0.129 A 
ATOM      5  C   LIG    1      -36.052  70.917  25.023  0.00  0.00    +0.078 A 
ENDROOT
BRANCH   3   6
ATOM      6  C   LIG    1      -35.183  68.782  27.778  0.00  0.00    +0.067 A 
ATOM      7  C   LIG    1      -35.973  68.958  28.926  0.00  0.00    +0.028 A 
ATOM      8  C   LIG    1      -35.588  68.377  30.140  0.00  0.00    +0.002 A 
ATOM      9  C   LIG    1      -34.401  67.650  30.222  0.00  0.00    +0.000 A 
ATOM     10  C   LIG    1      -33.607  67.485  29.090  0.00  0.00    +0.002 A 
ATOM     11  C   LIG    1      -33.995  68.042  27.868  0.00  0.00    +0.028 A 
ENDBRANCH   3   6
BRANCH   4  12
ATOM     12  N   LIG    1      -34.431  71.672  26.751  0.00  0.00    -0.266 N 
ATOM     13  H   LIG    1      -33.507  71.777  26.350  0.00  0.00    +0.157 HD
ATOM     14  C   LIG    1      -34.861  72.605  27.765  0.00  0.00    +0.251 C 
ATOM     15  O   LIG    1      -36.035  72.625  28.134  0.00  0.00    -0.270 OA
BRANCH  14  16
ATOM     16  C   LIG    1      -33.845  73.518  28.338  0.00  0.00    +0.056 A 
ATOM     17  C   LIG    1      -32.848  73.062  29.206  0.00  0.00    +0.054 A 
ATOM     18 CL   LIG    1      -32.807  71.473  29.879  0.00  0.00    -0.083 Cl
ATOM     19  C   LIG    1      -31.852  73.937  29.635  0.00  0.00    +0.041 A 
ATOM     20  C   LIG    1      -31.873  75.292  29.283  0.00  0.00    +0.052 A 
ATOM     21 CL   LIG    1      -30.598  76.218  29.995  0.00  0.00    -0.083 Cl
ATOM     22  C   LIG    1      -32.904  75.813  28.474  0.00  0.00    +0.022 A 
ATOM     23  C   LIG    1      -33.849  74.878  27.969  0.00  0.00    +0.026 A 
BRANCH  22  24
ATOM     24  C   LIG    1      -33.113  77.250  28.157  0.00  0.00    +0.107 A 
ATOM     25  C   LIG    1      -32.496  77.940  27.114  0.00  0.00    +0.149 A 
ATOM     26  F   LIG    1      -31.676  77.339  26.246  0.00  0.00    -0.203 F 
ATOM     27  C   LIG    1      -32.791  79.277  26.886  0.00  0.00    +0.042 A 
ATOM     28  C   LIG    1      -33.735  79.909  27.677  0.00  0.00    +0.023 A 
ATOM     29  C   LIG    1      -34.322  79.177  28.695  0.00  0.00    +0.111 A 
ATOM     30  N   LIG    1      -34.036  77.875  28.955  0.00  0.00    -0.252 NA
ENDBRANCH  22  24
ENDBRANCH  14  16
ENDBRANCH   4  12
BRANCH   1  32
ATOM     31  N   LIG    1      -38.781  68.987  23.907  0.00  0.00    -0.244 NA
ATOM     32  C   LIG    1      -37.599  69.407  23.636  0.00  0.00    +0.236 C 
BRANCH  32  33
ATOM     33  O   LIG    1      -37.115  69.611  22.395  0.00  0.00    -0.491 OA
ATOM     34  H   LIG    1      -37.123  70.543  22.148  0.00  0.00    +0.294 HD
ENDBRANCH  32  33
BRANCH  31  35
ATOM     35  C   LIG    1      -39.749  68.641  22.873  0.00  0.00    +0.183 C 
BRANCH  35  40
ATOM     36  C   LIG    1      -42.292  72.986  22.782  0.00  0.00    +0.172 C 
ATOM     37  N   LIG    1      -41.765  71.677  22.482  0.00  0.00    -0.274 N 
ATOM     38  N   LIG    1      -42.079  71.089  21.314  0.00  0.00    -0.180 NA
ATOM     39  C   LIG    1      -41.396  69.944  21.343  0.00  0.00    +0.139 A 
ATOM     40  C   LIG    1      -40.626  69.790  22.522  0.00  0.00    +0.011 A 
ATOM     41  C   LIG    1      -40.926  70.925  23.254  0.00  0.00    +0.113 A 
ENDBRANCH  35  40
ENDBRANCH  31  35
ENDBRANCH   1  32
TORSDOF 8
ENDMDL
MODEL 9
REMARK VINA RESULT:      -6.3      5.638     10.576
REMARK  Name = pdb/CHEMBL3906307.pdb
REMARK                            x       y       z     vdW  Elec       q    Type
REMARK                         _______ _______ _______ _____ _____    ______ ____
ROOT
ATOM      1  C   LIG    1      -36.685  69.737  24.766  0.00  0.00    +0.149 A 
ATOM      2  N   LIG    1      -36.265  68.799  25.637  0.00  0.00    -0.160 NA
ATOM      3  N   LIG    1      -35.561  69.479  26.580  0.00  0.00    -0.218 N 
ATOM      4  C   LIG    1      -35.317  70.799  26.188  0.00  0.00    +0.129 A 
ATOM      5  C   LIG    1      -36.083  70.984  25.059  0.00  0.00    +0.078 A 
ENDROOT
BRANCH   3   6
ATOM      6  C   LIG    1      -35.186  68.834  27.793  0.00  0.00    +0.067 A 
ATOM      7  C   LIG    1      -34.116  67.925  27.806  0.00  0.00    +0.028 A 
ATOM      8  C   LIG    1      -33.782  67.249  28.985  0.00  0.00    +0.002 A 
ATOM      9  C   LIG    1      -34.532  67.449  30.143  0.00  0.00    +0.000 A 
ATOM     10  C   LIG    1      -35.605  68.338  30.131  0.00  0.00    +0.002 A 
ATOM     11  C   LIG    1      -35.931  69.035  28.965  0.00  0.00    +0.028 A 
ENDBRANCH   3   6
BRANCH   4  12
ATOM     12  N   LIG    1      -34.456  71.736  26.782  0.00  0.00    -0.266 N 
ATOM     13  H   LIG    1      -33.548  71.874  26.356  0.00  0.00    +0.157 HD
ATOM     14  C   LIG    1      -34.872  72.627  27.840  0.00  0.00    +0.251 C 
ATOM     15  O   LIG    1      -36.034  72.608  28.246  0.00  0.00    -0.270 OA
BRANCH  14  16
ATOM     16  C   LIG    1      -33.858  73.544  28.408  0.00  0.00    +0.056 A 
ATOM     17  C   LIG    1      -32.874  73.098  29.297  0.00  0.00    +0.054 A 
ATOM     18 CL   LIG    1      -32.851  71.521  29.999  0.00  0.00    -0.083 Cl
ATOM     19  C   LIG    1      -31.879  73.974  29.722  0.00  0.00    +0.041 A 
ATOM     20  C   LIG    1      -31.887  75.323  29.345  0.00  0.00    +0.052 A 
ATOM     21 CL   LIG    1      -30.616  76.255  30.056  0.00  0.00    -0.083 Cl
ATOM     22  C   LIG    1      -32.905  75.835  28.514  0.00  0.00    +0.022 A 
ATOM     23  C   LIG    1      -33.850  74.896  28.015  0.00  0.00    +0.026 A 
BRANCH  22  24
ATOM     24  C   LIG    1      -33.102  77.268  28.170  0.00  0.00    +0.107 A 
ATOM     25  C   LIG    1      -32.449  77.941  27.138  0.00  0.00    +0.149 A 
ATOM     26  F   LIG    1      -31.600  77.327  26.307  0.00  0.00    -0.203 F 
ATOM     27  C   LIG    1      -32.735  79.275  26.879  0.00  0.00    +0.042 A 
ATOM     28  C   LIG    1      -33.705  79.920  27.628  0.00  0.00    +0.023 A 
ATOM     29  C   LIG    1      -34.327  79.203  28.637  0.00  0.00    +0.111 A 
ATOM     30  N   LIG    1      -34.051  77.905  28.926  0.00  0.00    -0.252 NA
ENDBRANCH  22  24
ENDBRANCH  14  16
ENDBRANCH   4  12
BRANCH   1  32
ATOM     31  N   LIG    1      -37.316  68.633  22.756  0.00  0.00    -0.244 NA
ATOM     32  C   LIG    1      -37.631  69.476  23.670  0.00  0.00    +0.236 C 
BRANCH  32  33
ATOM     33  O   LIG    1      -38.775  70.188  23.708  0.00  0.00    -0.491 OA
ATOM     34  H   LIG    1      -39.036  70.413  24.609  0.00  0.00    +0.294 HD
ENDBRANCH  32  33
BRANCH  31  35
ATOM     35  C   LIG    1      -38.169  68.368  21.603  0.00  0.00    +0.183 C 
BRANCH  35  40
ATOM     36  C   LIG    1      -35.015  65.866  18.577  0.00  0.00    +0.172 C 
ATOM     37  N   LIG    1      -36.001  66.773  19.115  0.00  0.00    -0.274 N 
ATOM     38  N   LIG    1      -36.702  67.559  18.280  0.00  0.00    -0.180 NA
ATOM     39  C   LIG    1      -37.539  68.212  19.087  0.00  0.00    +0.139 A 
ATOM     40  C   LIG    1      -37.395  67.841  20.446  0.00  0.00    +0.011 A 
ATOM     41  C   LIG    1      -36.355  66.929  20.424  0.00  0.00    +0.113 A 
ENDBRANCH  35  40
ENDBRANCH  31  35
ENDBRANCH   1  32
TORSDOF 8
ENDMDL
