MODEL 1
REMARK VINA RESULT:      -7.4      0.000      0.000
REMARK  Name = pdb/CHEMBL3904853.pdb
REMARK                            x       y       z     vdW  Elec       q    Type
REMARK                         _______ _______ _______ _____ _____    ______ ____
ROOT
ATOM      1  C   LIG    1      -29.462  75.709  31.333  0.00  0.00    +0.149 A 
ATOM      2  N   LIG    1      -30.275  76.141  30.352  0.00  0.00    -0.160 NA
ATOM      3  N   LIG    1      -31.148  75.104  30.142  0.00  0.00    -0.218 N 
ATOM      4  C   LIG    1      -30.802  73.977  30.907  0.00  0.00    +0.129 A 
ATOM      5  C   LIG    1      -29.761  74.383  31.704  0.00  0.00    +0.078 A 
ENDROOT
BRANCH   3   6
ATOM      6  C   LIG    1      -32.228  75.272  29.224  0.00  0.00    +0.067 A 
ATOM      7  C   LIG    1      -32.274  76.408  28.398  0.00  0.00    +0.028 A 
ATOM      8  C   LIG    1      -33.370  76.626  27.554  0.00  0.00    +0.002 A 
ATOM      9  C   LIG    1      -34.436  75.732  27.544  0.00  0.00    +0.000 A 
ATOM     10  C   LIG    1      -34.392  74.596  28.347  0.00  0.00    +0.002 A 
ATOM     11  C   LIG    1      -33.291  74.363  29.177  0.00  0.00    +0.028 A 
ENDBRANCH   3   6
BRANCH   4  12
ATOM     12  N   LIG    1      -31.326  72.677  30.834  0.00  0.00    -0.266 N 
ATOM     13  H   LIG    1      -32.130  72.455  31.406  0.00  0.00    +0.157 HD
ATOM     14  C   LIG    1      -30.874  71.684  29.887  0.00  0.00    +0.251 C 
ATOM     15  O   LIG    1      -29.950  71.919  29.146  0.00  0.00    -0.270 OA
BRANCH  14  16
ATOM     16  C   LIG    1      -31.627  70.391  29.788  0.00  0.00    +0.056 A 
ATOM     17  C   LIG    1      -31.601  69.340  30.712  0.00  0.00    +0.056 A 
ATOM     18 CL   LIG    1      -30.602  69.295  32.113  0.00  0.00    -0.083 Cl
ATOM     19  C   LIG    1      -32.415  68.220  30.530  0.00  0.00    +0.059 A 
ATOM     20  C   LIG    1      -33.250  68.129  29.422  0.00  0.00    +0.134 A 
ATOM     21  F   LIG    1      -33.993  67.019  29.307  0.00  0.00    -0.205 F 
ATOM     22  C   LIG    1      -33.307  69.138  28.458  0.00  0.00    +0.036 A 
ATOM     23  C   LIG    1      -32.482  70.268  28.671  0.00  0.00    +0.027 A 
BRANCH  22  24
ATOM     24  C   LIG    1      -34.171  69.058  27.267  0.00  0.00    +0.074 A 
ATOM     25  N   LIG    1      -35.142  70.004  27.197  0.00  0.00    -0.255 NA
ATOM     26  C   LIG    1      -35.984  69.970  26.139  0.00  0.00    +0.111 A 
ATOM     27  C   LIG    1      -35.919  69.022  25.134  0.00  0.00    +0.020 A 
ATOM     28  C   LIG    1      -34.925  68.058  25.211  0.00  0.00    +0.004 A 
ATOM     29  C   LIG    1      -34.040  68.075  26.287  0.00  0.00    +0.028 A 
ENDBRANCH  22  24
ENDBRANCH  14  16
ENDBRANCH   4  12
BRANCH   1  30
ATOM     30  C   LIG    1      -28.382  76.528  31.875  0.00  0.00    +0.236 C 
ATOM     31  N   LIG    1      -27.182  76.333  31.473  0.00  0.00    -0.245 NA
BRANCH  30  32
ATOM     32  O   LIG    1      -28.745  77.470  32.772  0.00  0.00    -0.491 OA
ATOM     33  H   LIG    1      -29.711  77.602  32.717  0.00  0.00    +0.294 HD
ENDBRANCH  30  32
BRANCH  31  34
ATOM     34  C   LIG    1      -26.140  77.222  31.980  0.00  0.00    +0.180 C 
BRANCH  34  35
ATOM     35  C   LIG    1      -24.932  77.093  31.080  0.00  0.00    -0.002 C 
ATOM     36  C   LIG    1      -24.149  75.853  31.137  0.00  0.00    +0.013 C 
ATOM     37  C   LIG    1      -23.016  75.683  30.431  0.00  0.00    +0.096 C 
ATOM     38  C   LIG    1      -22.586  76.804  29.547  0.00  0.00    +0.294 C 
ATOM     39  N   LIG    1      -23.378  77.925  29.473  0.00  0.00    -0.225 N 
ATOM     40  H   LIG    1      -23.099  78.707  28.899  0.00  0.00    +0.292 HD
ATOM     41  C   LIG    1      -24.513  78.062  30.241  0.00  0.00    +0.240 C 
BRANCH  38  42
ATOM     42  N   LIG    1      -21.480  76.672  28.886  0.00  0.00    -0.071 NA
ATOM     43  H   LIG    1      -21.170  75.700  28.929  0.00  0.00    +0.348 HD
ENDBRANCH  38  42
ENDBRANCH  34  35
ENDBRANCH  31  34
ENDBRANCH   1  30
TORSDOF 9
ENDMDL
MODEL 2
REMARK VINA RESULT:      -7.2      8.017     10.234
REMARK  Name = pdb/CHEMBL3904853.pdb
REMARK                            x       y       z     vdW  Elec       q    Type
REMARK                         _______ _______ _______ _____ _____    ______ ____
ROOT
ATOM      1  C   LIG    1      -35.194  81.981  29.627  0.00  0.00    +0.149 A 
ATOM      2  N   LIG    1      -34.382  80.925  29.444  0.00  0.00    -0.160 NA
ATOM      3  N   LIG    1      -34.890  80.281  28.343  0.00  0.00    -0.218 N 
ATOM      4  C   LIG    1      -36.093  80.868  27.914  0.00  0.00    +0.129 A 
ATOM      5  C   LIG    1      -36.255  81.982  28.699  0.00  0.00    +0.078 A 
ENDROOT
BRANCH   3   6
ATOM      6  C   LIG    1      -34.192  79.159  27.804  0.00  0.00    +0.067 A 
ATOM      7  C   LIG    1      -34.656  77.858  28.061  0.00  0.00    +0.028 A 
ATOM      8  C   LIG    1      -33.934  76.746  27.609  0.00  0.00    +0.002 A 
ATOM      9  C   LIG    1      -32.736  76.921  26.922  0.00  0.00    +0.000 A 
ATOM     10  C   LIG    1      -32.278  78.206  26.649  0.00  0.00    +0.002 A 
ATOM     11  C   LIG    1      -33.005  79.319  27.081  0.00  0.00    +0.028 A 
ENDBRANCH   3   6
BRANCH   4  12
ATOM     12  N   LIG    1      -37.001  80.395  26.954  0.00  0.00    -0.266 N 
ATOM     13  H   LIG    1      -36.912  80.734  26.006  0.00  0.00    +0.157 HD
ATOM     14  C   LIG    1      -37.963  79.349  27.211  0.00  0.00    +0.251 C 
ATOM     15  O   LIG    1      -38.074  78.875  28.316  0.00  0.00    -0.270 OA
BRANCH  14  16
ATOM     16  C   LIG    1      -38.761  78.809  26.062  0.00  0.00    +0.056 A 
ATOM     17  C   LIG    1      -39.495  79.557  25.135  0.00  0.00    +0.056 A 
ATOM     18 CL   LIG    1      -39.705  81.264  25.203  0.00  0.00    -0.083 Cl
ATOM     19  C   LIG    1      -40.132  78.925  24.064  0.00  0.00    +0.059 A 
ATOM     20  C   LIG    1      -40.055  77.544  23.915  0.00  0.00    +0.134 A 
ATOM     21  F   LIG    1      -40.702  77.007  22.870  0.00  0.00    -0.205 F 
ATOM     22  C   LIG    1      -39.351  76.744  24.816  0.00  0.00    +0.036 A 
ATOM     23  C   LIG    1      -38.705  77.409  25.885  0.00  0.00    +0.027 A 
BRANCH  22  24
ATOM     24  C   LIG    1      -39.269  75.279  24.689  0.00  0.00    +0.074 A 
ATOM     25  N   LIG    1      -38.117  74.725  25.149  0.00  0.00    -0.255 NA
ATOM     26  C   LIG    1      -37.969  73.385  25.039  0.00  0.00    +0.111 A 
ATOM     27  C   LIG    1      -38.917  72.551  24.476  0.00  0.00    +0.020 A 
ATOM     28  C   LIG    1      -40.092  73.122  24.008  0.00  0.00    +0.004 A 
ATOM     29  C   LIG    1      -40.272  74.499  24.116  0.00  0.00    +0.028 A 
ENDBRANCH  22  24
ENDBRANCH  14  16
ENDBRANCH   4  12
BRANCH   1  30
ATOM     30  C   LIG    1      -34.994  82.948  30.701  0.00  0.00    +0.236 C 
ATOM     31  N   LIG    1      -33.825  83.433  30.901  0.00  0.00    -0.245 NA
BRANCH  30  32
ATOM     32  O   LIG    1      -36.092  83.281  31.412  0.00  0.00    -0.491 OA
ATOM     33  H   LIG    1      -36.568  82.465  31.658  0.00  0.00    +0.294 HD
ENDBRANCH  30  32
BRANCH  31  34
ATOM     34  C   LIG    1      -33.679  84.455  31.934  0.00  0.00    +0.180 C 
BRANCH  34  35
ATOM     35  C   LIG    1      -33.003  85.657  31.315  0.00  0.00    -0.002 C 
ATOM     36  C   LIG    1      -31.607  85.526  30.881  0.00  0.00    +0.013 C 
ATOM     37  C   LIG    1      -30.903  86.564  30.393  0.00  0.00    +0.096 C 
ATOM     38  C   LIG    1      -31.608  87.873  30.275  0.00  0.00    +0.294 C 
ATOM     39  N   LIG    1      -32.933  87.943  30.634  0.00  0.00    -0.225 N 
ATOM     40  H   LIG    1      -33.427  88.821  30.584  0.00  0.00    +0.292 HD
ATOM     41  C   LIG    1      -33.599  86.857  31.157  0.00  0.00    +0.240 C 
BRANCH  38  42
ATOM     42  N   LIG    1      -30.937  88.892  29.839  0.00  0.00    -0.071 NA
ATOM     43  H   LIG    1      -30.797  88.803  28.832  0.00  0.00    +0.348 HD
ENDBRANCH  38  42
ENDBRANCH  34  35
ENDBRANCH  31  34
ENDBRANCH   1  30
TORSDOF 9
ENDMDL
MODEL 3
REMARK VINA RESULT:      -6.9      7.418     10.116
REMARK  Name = pdb/CHEMBL3904853.pdb
REMARK                            x       y       z     vdW  Elec       q    Type
REMARK                         _______ _______ _______ _____ _____    ______ ____
ROOT
ATOM      1  C   LIG    1      -37.695  80.118  27.424  0.00  0.00    +0.149 A 
ATOM      2  N   LIG    1      -36.655  79.535  28.047  0.00  0.00    -0.160 NA
ATOM      3  N   LIG    1      -36.708  78.221  27.654  0.00  0.00    -0.218 N 
ATOM      4  C   LIG    1      -37.854  77.959  26.884  0.00  0.00    +0.129 A 
ATOM      5  C   LIG    1      -38.451  79.181  26.694  0.00  0.00    +0.078 A 
ENDROOT
BRANCH   3   6
ATOM      6  C   LIG    1      -35.669  77.328  28.056  0.00  0.00    +0.067 A 
ATOM      7  C   LIG    1      -35.371  77.170  29.420  0.00  0.00    +0.028 A 
ATOM      8  C   LIG    1      -34.300  76.362  29.821  0.00  0.00    +0.002 A 
ATOM      9  C   LIG    1      -33.506  75.727  28.871  0.00  0.00    +0.000 A 
ATOM     10  C   LIG    1      -33.805  75.864  27.518  0.00  0.00    +0.002 A 
ATOM     11  C   LIG    1      -34.884  76.655  27.113  0.00  0.00    +0.028 A 
ENDBRANCH   3   6
BRANCH   4  12
ATOM     12  N   LIG    1      -38.357  76.720  26.459  0.00  0.00    -0.266 N 
ATOM     13  H   LIG    1      -39.014  76.241  27.060  0.00  0.00    +0.157 HD
ATOM     14  C   LIG    1      -38.101  76.158  25.154  0.00  0.00    +0.251 C 
ATOM     15  O   LIG    1      -37.363  76.718  24.379  0.00  0.00    -0.270 OA
BRANCH  14  16
ATOM     16  C   LIG    1      -38.833  74.913  24.751  0.00  0.00    +0.056 A 
ATOM     17  C   LIG    1      -40.081  74.848  24.121  0.00  0.00    +0.056 A 
ATOM     18 CL   LIG    1      -41.073  76.212  23.775  0.00  0.00    -0.083 Cl
ATOM     19  C   LIG    1      -40.613  73.616  23.733  0.00  0.00    +0.059 A 
ATOM     20  C   LIG    1      -39.915  72.439  23.981  0.00  0.00    +0.134 A 
ATOM     21  F   LIG    1      -40.494  71.294  23.591  0.00  0.00    -0.205 F 
ATOM     22  C   LIG    1      -38.674  72.439  24.619  0.00  0.00    +0.036 A 
ATOM     23  C   LIG    1      -38.151  73.700  24.992  0.00  0.00    +0.027 A 
BRANCH  22  24
ATOM     24  C   LIG    1      -37.923  71.204  24.907  0.00  0.00    +0.074 A 
ATOM     25  N   LIG    1      -37.638  70.998  26.219  0.00  0.00    -0.255 NA
ATOM     26  C   LIG    1      -36.929  69.893  26.547  0.00  0.00    +0.111 A 
ATOM     27  C   LIG    1      -36.470  68.971  25.624  0.00  0.00    +0.020 A 
ATOM     28  C   LIG    1      -36.765  69.188  24.286  0.00  0.00    +0.004 A 
ATOM     29  C   LIG    1      -37.500  70.314  23.922  0.00  0.00    +0.028 A 
ENDBRANCH  22  24
ENDBRANCH  14  16
ENDBRANCH   4  12
BRANCH   1  30
ATOM     30  C   LIG    1      -37.994  81.541  27.562  0.00  0.00    +0.236 C 
ATOM     31  N   LIG    1      -37.778  82.327  26.575  0.00  0.00    -0.245 NA
BRANCH  30  32
ATOM     32  O   LIG    1      -38.508  81.925  28.750  0.00  0.00    -0.491 OA
ATOM     33  H   LIG    1      -37.775  82.176  29.345  0.00  0.00    +0.294 HD
ENDBRANCH  30  32
BRANCH  31  34
ATOM     34  C   LIG    1      -38.162  83.728  26.724  0.00  0.00    +0.180 C 
BRANCH  34  35
ATOM     35  C   LIG    1      -36.921  84.523  27.061  0.00  0.00    -0.002 C 
ATOM     36  C   LIG    1      -36.802  85.095  28.408  0.00  0.00    +0.013 C 
ATOM     37  C   LIG    1      -35.772  85.880  28.770  0.00  0.00    +0.096 C 
ATOM     38  C   LIG    1      -34.714  86.134  27.750  0.00  0.00    +0.294 C 
ATOM     39  N   LIG    1      -34.828  85.532  26.520  0.00  0.00    -0.225 N 
ATOM     40  H   LIG    1      -34.137  85.705  25.804  0.00  0.00    +0.292 HD
ATOM     41  C   LIG    1      -35.920  84.761  26.189  0.00  0.00    +0.240 C 
BRANCH  38  42
ATOM     42  N   LIG    1      -33.732  86.915  28.069  0.00  0.00    -0.071 NA
ATOM     43  H   LIG    1      -32.847  86.474  27.811  0.00  0.00    +0.348 HD
ENDBRANCH  38  42
ENDBRANCH  34  35
ENDBRANCH  31  34
ENDBRANCH   1  30
TORSDOF 9
ENDMDL
MODEL 4
REMARK VINA RESULT:      -6.9      8.727     12.185
REMARK  Name = pdb/CHEMBL3904853.pdb
REMARK                            x       y       z     vdW  Elec       q    Type
REMARK                         _______ _______ _______ _____ _____    ______ ____
ROOT
ATOM      1  C   LIG    1      -35.193  67.356  22.434  0.00  0.00    +0.149 A 
ATOM      2  N   LIG    1      -34.527  67.467  23.598  0.00  0.00    -0.160 NA
ATOM      3  N   LIG    1      -35.396  68.121  24.435  0.00  0.00    -0.218 N 
ATOM      4  C   LIG    1      -36.557  68.527  23.755  0.00  0.00    +0.129 A 
ATOM      5  C   LIG    1      -36.449  67.991  22.496  0.00  0.00    +0.078 A 
ENDROOT
BRANCH   3   6
ATOM      6  C   LIG    1      -35.041  68.312  25.804  0.00  0.00    +0.067 A 
ATOM      7  C   LIG    1      -34.140  69.331  26.157  0.00  0.00    +0.028 A 
ATOM      8  C   LIG    1      -33.718  69.474  27.485  0.00  0.00    +0.002 A 
ATOM      9  C   LIG    1      -34.170  68.592  28.463  0.00  0.00    +0.000 A 
ATOM     10  C   LIG    1      -35.075  67.591  28.124  0.00  0.00    +0.002 A 
ATOM     11  C   LIG    1      -35.513  67.455  26.804  0.00  0.00    +0.028 A 
ENDBRANCH   3   6
BRANCH   4  12
ATOM     12  N   LIG    1      -37.584  69.372  24.206  0.00  0.00    -0.266 N 
ATOM     13  H   LIG    1      -38.464  68.952  24.470  0.00  0.00    +0.157 HD
ATOM     14  C   LIG    1      -37.407  70.784  24.450  0.00  0.00    +0.251 C 
ATOM     15  O   LIG    1      -36.357  71.324  24.198  0.00  0.00    -0.270 OA
BRANCH  14  16
ATOM     16  C   LIG    1      -38.525  71.547  25.095  0.00  0.00    +0.056 A 
ATOM     17  C   LIG    1      -39.267  71.149  26.213  0.00  0.00    +0.056 A 
ATOM     18 CL   LIG    1      -39.097  69.632  27.010  0.00  0.00    -0.083 Cl
ATOM     19  C   LIG    1      -40.235  71.997  26.757  0.00  0.00    +0.059 A 
ATOM     20  C   LIG    1      -40.482  73.241  26.186  0.00  0.00    +0.134 A 
ATOM     21  F   LIG    1      -41.433  73.995  26.755  0.00  0.00    -0.205 F 
ATOM     22  C   LIG    1      -39.785  73.686  25.061  0.00  0.00    +0.036 A 
ATOM     23  C   LIG    1      -38.802  72.814  24.536  0.00  0.00    +0.027 A 
BRANCH  22  24
ATOM     24  C   LIG    1      -40.040  74.992  24.428  0.00  0.00    +0.074 A 
ATOM     25  N   LIG    1      -39.076  75.927  24.632  0.00  0.00    -0.255 NA
ATOM     26  C   LIG    1      -39.262  77.156  24.098  0.00  0.00    +0.111 A 
ATOM     27  C   LIG    1      -40.379  77.515  23.366  0.00  0.00    +0.020 A 
ATOM     28  C   LIG    1      -41.359  76.555  23.161  0.00  0.00    +0.004 A 
ATOM     29  C   LIG    1      -41.189  75.280  23.696  0.00  0.00    +0.028 A 
ENDBRANCH  22  24
ENDBRANCH  14  16
ENDBRANCH   4  12
BRANCH   1  30
ATOM     30  C   LIG    1      -34.621  66.698  21.263  0.00  0.00    +0.236 C 
ATOM     31  N   LIG    1      -33.354  66.737  21.076  0.00  0.00    -0.245 NA
BRANCH  30  32
ATOM     32  O   LIG    1      -35.496  66.064  20.453  0.00  0.00    -0.491 OA
ATOM     33  H   LIG    1      -35.401  65.100  20.580  0.00  0.00    +0.294 HD
ENDBRANCH  30  32
BRANCH  31  34
ATOM     34  C   LIG    1      -32.811  66.004  19.936  0.00  0.00    +0.180 C 
BRANCH  34  35
ATOM     35  C   LIG    1      -32.562  66.989  18.817  0.00  0.00    -0.002 C 
ATOM     36  C   LIG    1      -31.339  67.800  18.862  0.00  0.00    +0.013 C 
ATOM     37  C   LIG    1      -31.074  68.756  17.952  0.00  0.00    +0.096 C 
ATOM     38  C   LIG    1      -32.066  68.950  16.856  0.00  0.00    +0.294 C 
ATOM     39  N   LIG    1      -33.168  68.130  16.812  0.00  0.00    -0.225 N 
ATOM     40  H   LIG    1      -33.866  68.255  16.093  0.00  0.00    +0.292 HD
ATOM     41  C   LIG    1      -33.408  67.187  17.786  0.00  0.00    +0.240 C 
BRANCH  38  42
ATOM     42  N   LIG    1      -31.845  69.888  15.990  0.00  0.00    -0.071 NA
ATOM     43  H   LIG    1      -31.431  70.695  16.459  0.00  0.00    +0.348 HD
ENDBRANCH  38  42
ENDBRANCH  34  35
ENDBRANCH  31  34
ENDBRANCH   1  30
TORSDOF 9
ENDMDL
MODEL 5
REMARK VINA RESULT:      -6.8     17.247     18.914
REMARK  Name = pdb/CHEMBL3904853.pdb
REMARK                            x       y       z     vdW  Elec       q    Type
REMARK                         _______ _______ _______ _____ _____    ______ ____
ROOT
ATOM      1  C   LIG    1      -22.969  81.815  15.384  0.00  0.00    +0.149 A 
ATOM      2  N   LIG    1      -22.225  80.712  15.581  0.00  0.00    -0.160 NA
ATOM      3  N   LIG    1      -22.819  79.748  14.806  0.00  0.00    -0.218 N 
ATOM      4  C   LIG    1      -24.009  80.218  14.223  0.00  0.00    +0.129 A 
ATOM      5  C   LIG    1      -24.072  81.550  14.549  0.00  0.00    +0.078 A 
ENDROOT
BRANCH   3   6
ATOM      6  C   LIG    1      -22.211  78.462  14.699  0.00  0.00    +0.067 A 
ATOM      7  C   LIG    1      -22.843  77.340  15.262  0.00  0.00    +0.028 A 
ATOM      8  C   LIG    1      -22.216  76.088  15.237  0.00  0.00    +0.002 A 
ATOM      9  C   LIG    1      -20.949  75.948  14.677  0.00  0.00    +0.000 A 
ATOM     10  C   LIG    1      -20.324  77.051  14.103  0.00  0.00    +0.002 A 
ATOM     11  C   LIG    1      -20.953  78.299  14.108  0.00  0.00    +0.028 A 
ENDBRANCH   3   6
BRANCH   4  12
ATOM     12  N   LIG    1      -24.987  79.491  13.528  0.00  0.00    -0.266 N 
ATOM     13  H   LIG    1      -24.931  79.461  12.519  0.00  0.00    +0.157 HD
ATOM     14  C   LIG    1      -25.983  78.669  14.175  0.00  0.00    +0.251 C 
ATOM     15  O   LIG    1      -26.059  78.631  15.379  0.00  0.00    -0.270 OA
BRANCH  14  16
ATOM     16  C   LIG    1      -26.864  77.804  13.323  0.00  0.00    +0.056 A 
ATOM     17  C   LIG    1      -26.797  76.411  13.204  0.00  0.00    +0.056 A 
ATOM     18 CL   LIG    1      -25.602  75.423  13.951  0.00  0.00    -0.083 Cl
ATOM     19  C   LIG    1      -27.734  75.723  12.430  0.00  0.00    +0.059 A 
ATOM     20  C   LIG    1      -28.735  76.415  11.757  0.00  0.00    +0.134 A 
ATOM     21  F   LIG    1      -29.591  75.689  11.024  0.00  0.00    -0.205 F 
ATOM     22  C   LIG    1      -28.843  77.805  11.825  0.00  0.00    +0.036 A 
ATOM     23  C   LIG    1      -27.890  78.478  12.626  0.00  0.00    +0.027 A 
BRANCH  22  24
ATOM     24  C   LIG    1      -29.885  78.563  11.109  0.00  0.00    +0.074 A 
ATOM     25  N   LIG    1      -30.889  79.039  11.890  0.00  0.00    -0.255 NA
ATOM     26  C   LIG    1      -31.889  79.722  11.289  0.00  0.00    +0.111 A 
ATOM     27  C   LIG    1      -31.953  79.953   9.927  0.00  0.00    +0.020 A 
ATOM     28  C   LIG    1      -30.925  79.464   9.135  0.00  0.00    +0.004 A 
ATOM     29  C   LIG    1      -29.879  78.762   9.730  0.00  0.00    +0.028 A 
ENDBRANCH  22  24
ENDBRANCH  14  16
ENDBRANCH   4  12
BRANCH   1  30
ATOM     30  C   LIG    1      -22.664  83.092  16.023  0.00  0.00    +0.236 C 
ATOM     31  N   LIG    1      -22.772  84.175  15.347  0.00  0.00    -0.245 NA
BRANCH  30  32
ATOM     32  O   LIG    1      -22.298  83.033  17.321  0.00  0.00    -0.491 OA
ATOM     33  H   LIG    1      -23.090  83.161  17.878  0.00  0.00    +0.294 HD
ENDBRANCH  30  32
BRANCH  31  34
ATOM     34  C   LIG    1      -22.533  85.437  16.041  0.00  0.00    +0.180 C 
BRANCH  34  35
ATOM     35  C   LIG    1      -21.911  86.404  15.060  0.00  0.00    -0.002 C 
ATOM     36  C   LIG    1      -21.133  85.858  13.941  0.00  0.00    +0.013 C 
ATOM     37  C   LIG    1      -20.480  86.644  13.066  0.00  0.00    +0.096 C 
ATOM     38  C   LIG    1      -20.596  88.118  13.252  0.00  0.00    +0.294 C 
ATOM     39  N   LIG    1      -21.383  88.594  14.274  0.00  0.00    -0.225 N 
ATOM     40  H   LIG    1      -21.461  89.587  14.435  0.00  0.00    +0.292 HD
ATOM     41  C   LIG    1      -22.006  87.745  15.161  0.00  0.00    +0.240 C 
BRANCH  38  42
ATOM     42  N   LIG    1      -19.946  88.891  12.440  0.00  0.00    -0.071 NA
ATOM     43  H   LIG    1      -20.525  89.697  12.199  0.00  0.00    +0.348 HD
ENDBRANCH  38  42
ENDBRANCH  34  35
ENDBRANCH  31  34
ENDBRANCH   1  30
TORSDOF 9
ENDMDL
MODEL 6
REMARK VINA RESULT:      -6.8      6.437      9.532
REMARK  Name = pdb/CHEMBL3904853.pdb
REMARK                            x       y       z     vdW  Elec       q    Type
REMARK                         _______ _______ _______ _____ _____    ______ ____
ROOT
ATOM      1  C   LIG    1      -24.373  78.532  34.258  0.00  0.00    +0.149 A 
ATOM      2  N   LIG    1      -23.273  78.599  33.487  0.00  0.00    -0.160 NA
ATOM      3  N   LIG    1      -23.303  77.448  32.739  0.00  0.00    -0.218 N 
ATOM      4  C   LIG    1      -24.356  76.605  33.134  0.00  0.00    +0.129 A 
ATOM      5  C   LIG    1      -25.068  77.322  34.063  0.00  0.00    +0.078 A 
ENDROOT
BRANCH   3   6
ATOM      6  C   LIG    1      -22.320  77.247  31.724  0.00  0.00    +0.067 A 
ATOM      7  C   LIG    1      -20.972  77.543  31.987  0.00  0.00    +0.028 A 
ATOM      8  C   LIG    1      -20.012  77.430  30.973  0.00  0.00    +0.002 A 
ATOM      9  C   LIG    1      -20.389  77.047  29.689  0.00  0.00    +0.000 A 
ATOM     10  C   LIG    1      -21.720  76.736  29.425  0.00  0.00    +0.002 A 
ATOM     11  C   LIG    1      -22.679  76.829  30.437  0.00  0.00    +0.028 A 
ENDBRANCH   3   6
BRANCH   4  12
ATOM     12  N   LIG    1      -24.605  75.279  32.748  0.00  0.00    -0.266 N 
ATOM     13  H   LIG    1      -24.208  74.537  33.308  0.00  0.00    +0.157 HD
ATOM     14  C   LIG    1      -25.509  74.913  31.682  0.00  0.00    +0.251 C 
ATOM     15  O   LIG    1      -26.048  75.763  31.015  0.00  0.00    -0.270 OA
BRANCH  14  16
ATOM     16  C   LIG    1      -25.827  73.462  31.477  0.00  0.00    +0.056 A 
ATOM     17  C   LIG    1      -27.035  72.824  31.780  0.00  0.00    +0.056 A 
ATOM     18 CL   LIG    1      -28.373  73.581  32.554  0.00  0.00    -0.083 Cl
ATOM     19  C   LIG    1      -27.220  71.476  31.464  0.00  0.00    +0.059 A 
ATOM     20  C   LIG    1      -26.202  70.749  30.857  0.00  0.00    +0.134 A 
ATOM     21  F   LIG    1      -26.447  69.458  30.594  0.00  0.00    -0.205 F 
ATOM     22  C   LIG    1      -24.970  71.327  30.545  0.00  0.00    +0.036 A 
ATOM     23  C   LIG    1      -24.811  72.697  30.864  0.00  0.00    +0.027 A 
BRANCH  22  24
ATOM     24  C   LIG    1      -23.870  70.574  29.917  0.00  0.00    +0.074 A 
ATOM     25  N   LIG    1      -23.996  70.381  28.578  0.00  0.00    -0.255 NA
ATOM     26  C   LIG    1      -23.030  69.676  27.946  0.00  0.00    +0.111 A 
ATOM     27  C   LIG    1      -21.931  69.132  28.586  0.00  0.00    +0.020 A 
ATOM     28  C   LIG    1      -21.808  69.332  29.953  0.00  0.00    +0.004 A 
ATOM     29  C   LIG    1      -22.786  70.061  30.627  0.00  0.00    +0.028 A 
ENDBRANCH  22  24
ENDBRANCH  14  16
ENDBRANCH   4  12
BRANCH   1  30
ATOM     30  C   LIG    1      -24.731  79.583  35.206  0.00  0.00    +0.236 C 
ATOM     31  N   LIG    1      -23.899  80.528  35.442  0.00  0.00    -0.245 NA
BRANCH  30  32
ATOM     32  O   LIG    1      -25.957  79.486  35.765  0.00  0.00    -0.491 OA
ATOM     33  H   LIG    1      -26.625  79.445  35.053  0.00  0.00    +0.294 HD
ENDBRANCH  30  32
BRANCH  31  34
ATOM     34  C   LIG    1      -24.322  81.601  36.337  0.00  0.00    +0.180 C 
BRANCH  34  35
ATOM     35  C   LIG    1      -23.084  82.253  36.909  0.00  0.00    -0.002 C 
ATOM     36  C   LIG    1      -21.803  82.037  36.227  0.00  0.00    +0.013 C 
ATOM     37  C   LIG    1      -20.640  82.512  36.709  0.00  0.00    +0.096 C 
ATOM     38  C   LIG    1      -20.696  83.309  37.968  0.00  0.00    +0.294 C 
ATOM     39  N   LIG    1      -21.921  83.543  38.545  0.00  0.00    -0.225 N 
ATOM     40  H   LIG    1      -21.985  84.061  39.409  0.00  0.00    +0.292 HD
ATOM     41  C   LIG    1      -23.079  83.007  38.028  0.00  0.00    +0.240 C 
BRANCH  38  42
ATOM     42  N   LIG    1      -19.583  83.746  38.465  0.00  0.00    -0.071 NA
ATOM     43  H   LIG    1      -18.874  83.013  38.413  0.00  0.00    +0.348 HD
ENDBRANCH  38  42
ENDBRANCH  34  35
ENDBRANCH  31  34
ENDBRANCH   1  30
TORSDOF 9
ENDMDL
MODEL 7
REMARK VINA RESULT:      -6.8      5.843      9.703
REMARK  Name = pdb/CHEMBL3904853.pdb
REMARK                            x       y       z     vdW  Elec       q    Type
REMARK                         _______ _______ _______ _____ _____    ______ ____
ROOT
ATOM      1  C   LIG    1      -36.259  71.433  26.439  0.00  0.00    +0.149 A 
ATOM      2  N   LIG    1      -37.274  72.280  26.193  0.00  0.00    -0.160 NA
ATOM      3  N   LIG    1      -37.856  71.802  25.046  0.00  0.00    -0.218 N 
ATOM      4  C   LIG    1      -37.127  70.727  24.509  0.00  0.00    +0.129 A 
ATOM      5  C   LIG    1      -36.143  70.459  25.428  0.00  0.00    +0.078 A 
ENDROOT
BRANCH   3   6
ATOM      6  C   LIG    1      -39.047  72.417  24.556  0.00  0.00    +0.067 A 
ATOM      7  C   LIG    1      -40.061  71.626  23.989  0.00  0.00    +0.028 A 
ATOM      8  C   LIG    1      -41.196  72.225  23.428  0.00  0.00    +0.002 A 
ATOM      9  C   LIG    1      -41.318  73.612  23.405  0.00  0.00    +0.000 A 
ATOM     10  C   LIG    1      -40.326  74.402  23.979  0.00  0.00    +0.002 A 
ATOM     11  C   LIG    1      -39.200  73.808  24.557  0.00  0.00    +0.028 A 
ENDBRANCH   3   6
BRANCH   4  12
ATOM     12  N   LIG    1      -37.289  70.096  23.266  0.00  0.00    -0.266 N 
ATOM     13  H   LIG    1      -36.799  70.482  22.469  0.00  0.00    +0.157 HD
ATOM     14  C   LIG    1      -37.997  68.850  23.087  0.00  0.00    +0.251 C 
ATOM     15  O   LIG    1      -38.556  68.323  24.018  0.00  0.00    -0.270 OA
BRANCH  14  16
ATOM     16  C   LIG    1      -37.954  68.186  21.743  0.00  0.00    +0.056 A 
ATOM     17  C   LIG    1      -39.020  68.053  20.846  0.00  0.00    +0.056 A 
ATOM     18 CL   LIG    1      -40.636  68.550  21.169  0.00  0.00    -0.083 Cl
ATOM     19  C   LIG    1      -38.818  67.476  19.591  0.00  0.00    +0.059 A 
ATOM     20  C   LIG    1      -37.559  67.014  19.222  0.00  0.00    +0.134 A 
ATOM     21  F   LIG    1      -37.445  66.461  18.006  0.00  0.00    -0.205 F 
ATOM     22  C   LIG    1      -36.462  67.104  20.080  0.00  0.00    +0.036 A 
ATOM     23  C   LIG    1      -36.689  67.704  21.341  0.00  0.00    +0.027 A 
BRANCH  22  24
ATOM     24  C   LIG    1      -35.122  66.607  19.719  0.00  0.00    +0.074 A 
ATOM     25  N   LIG    1      -34.587  65.712  20.590  0.00  0.00    -0.255 NA
ATOM     26  C   LIG    1      -33.349  65.237  20.328  0.00  0.00    +0.111 A 
ATOM     27  C   LIG    1      -32.594  65.617  19.233  0.00  0.00    +0.020 A 
ATOM     28  C   LIG    1      -33.146  66.531  18.348  0.00  0.00    +0.004 A 
ATOM     29  C   LIG    1      -34.423  67.031  18.591  0.00  0.00    +0.028 A 
ENDBRANCH  22  24
ENDBRANCH  14  16
ENDBRANCH   4  12
BRANCH   1  30
ATOM     30  C   LIG    1      -35.380  71.577  27.596  0.00  0.00    +0.236 C 
ATOM     31  N   LIG    1      -34.354  72.338  27.515  0.00  0.00    -0.245 NA
BRANCH  30  32
ATOM     32  O   LIG    1      -35.737  70.889  28.702  0.00  0.00    -0.491 OA
ATOM     33  H   LIG    1      -36.505  70.324  28.487  0.00  0.00    +0.294 HD
ENDBRANCH  30  32
BRANCH  31  34
ATOM     34  C   LIG    1      -33.541  72.517  28.715  0.00  0.00    +0.180 C 
BRANCH  34  35
ATOM     35  C   LIG    1      -33.120  73.967  28.786  0.00  0.00    -0.002 C 
ATOM     36  C   LIG    1      -33.839  74.945  27.961  0.00  0.00    +0.013 C 
ATOM     37  C   LIG    1      -33.482  76.241  27.902  0.00  0.00    +0.096 C 
ATOM     38  C   LIG    1      -32.327  76.670  28.741  0.00  0.00    +0.294 C 
ATOM     39  N   LIG    1      -31.717  75.740  29.548  0.00  0.00    -0.225 N 
ATOM     40  H   LIG    1      -30.919  76.000  30.109  0.00  0.00    +0.292 HD
ATOM     41  C   LIG    1      -32.102  74.418  29.548  0.00  0.00    +0.240 C 
BRANCH  38  42
ATOM     42  N   LIG    1      -31.947  77.907  28.672  0.00  0.00    -0.071 NA
ATOM     43  H   LIG    1      -32.632  78.446  28.140  0.00  0.00    +0.348 HD
ENDBRANCH  38  42
ENDBRANCH  34  35
ENDBRANCH  31  34
ENDBRANCH   1  30
TORSDOF 9
ENDMDL
MODEL 8
REMARK VINA RESULT:      -6.7     17.285     19.433
REMARK  Name = pdb/CHEMBL3904853.pdb
REMARK                            x       y       z     vdW  Elec       q    Type
REMARK                         _______ _______ _______ _____ _____    ______ ____
ROOT
ATOM      1  C   LIG    1      -26.422  77.204  13.547  0.00  0.00    +0.149 A 
ATOM      2  N   LIG    1      -26.764  75.964  13.153  0.00  0.00    -0.160 NA
ATOM      3  N   LIG    1      -27.926  76.132  12.443  0.00  0.00    -0.218 N 
ATOM      4  C   LIG    1      -28.375  77.462  12.500  0.00  0.00    +0.129 A 
ATOM      5  C   LIG    1      -27.387  78.153  13.157  0.00  0.00    +0.078 A 
ENDROOT
BRANCH   3   6
ATOM      6  C   LIG    1      -28.513  75.010  11.784  0.00  0.00    +0.067 A 
ATOM      7  C   LIG    1      -27.886  74.454  10.657  0.00  0.00    +0.028 A 
ATOM      8  C   LIG    1      -28.495  73.408   9.952  0.00  0.00    +0.002 A 
ATOM      9  C   LIG    1      -29.740  72.927  10.348  0.00  0.00    +0.000 A 
ATOM     10  C   LIG    1      -30.360  73.461  11.473  0.00  0.00    +0.002 A 
ATOM     11  C   LIG    1      -29.748  74.492  12.192  0.00  0.00    +0.028 A 
ENDBRANCH   3   6
BRANCH   4  12
ATOM     12  N   LIG    1      -29.602  77.989  12.067  0.00  0.00    -0.266 N 
ATOM     13  H   LIG    1      -30.253  78.318  12.768  0.00  0.00    +0.157 HD
ATOM     14  C   LIG    1      -29.928  78.220  10.679  0.00  0.00    +0.251 C 
ATOM     15  O   LIG    1      -29.162  77.892   9.806  0.00  0.00    -0.270 OA
BRANCH  14  16
ATOM     16  C   LIG    1      -31.198  78.947  10.351  0.00  0.00    +0.056 A 
ATOM     17  C   LIG    1      -32.415  78.368   9.973  0.00  0.00    +0.056 A 
ATOM     18 CL   LIG    1      -32.656  76.684   9.712  0.00  0.00    -0.083 Cl
ATOM     19  C   LIG    1      -33.543  79.166   9.769  0.00  0.00    +0.059 A 
ATOM     20  C   LIG    1      -33.467  80.546   9.927  0.00  0.00    +0.134 A 
ATOM     21  F   LIG    1      -34.588  81.247   9.703  0.00  0.00    -0.205 F 
ATOM     22  C   LIG    1      -32.278  81.182  10.287  0.00  0.00    +0.036 A 
ATOM     23  C   LIG    1      -31.152  80.351  10.500  0.00  0.00    +0.027 A 
BRANCH  22  24
ATOM     24  C   LIG    1      -32.169  82.643  10.444  0.00  0.00    +0.074 A 
ATOM     25  N   LIG    1      -31.040  83.193   9.927  0.00  0.00    -0.255 NA
ATOM     26  C   LIG    1      -30.868  84.528  10.060  0.00  0.00    +0.111 A 
ATOM     27  C   LIG    1      -31.768  85.360  10.701  0.00  0.00    +0.020 A 
ATOM     28  C   LIG    1      -32.919  84.791  11.227  0.00  0.00    +0.004 A 
ATOM     29  C   LIG    1      -33.123  83.419  11.098  0.00  0.00    +0.028 A 
ENDBRANCH  22  24
ENDBRANCH  14  16
ENDBRANCH   4  12
BRANCH   1  30
ATOM     30  C   LIG    1      -25.218  77.475  14.327  0.00  0.00    +0.236 C 
ATOM     31  N   LIG    1      -25.035  78.646  14.814  0.00  0.00    -0.245 NA
BRANCH  30  32
ATOM     32  O   LIG    1      -24.374  76.435  14.497  0.00  0.00    -0.491 OA
ATOM     33  H   LIG    1      -23.515  76.775  14.813  0.00  0.00    +0.294 HD
ENDBRANCH  30  32
BRANCH  31  34
ATOM     34  C   LIG    1      -23.859  78.859  15.652  0.00  0.00    +0.180 C 
BRANCH  34  35
ATOM     35  C   LIG    1      -23.510  80.329  15.610  0.00  0.00    -0.002 C 
ATOM     36  C   LIG    1      -22.576  80.854  16.613  0.00  0.00    +0.013 C 
ATOM     37  C   LIG    1      -22.270  82.161  16.700  0.00  0.00    +0.096 C 
ATOM     38  C   LIG    1      -22.898  83.077  15.705  0.00  0.00    +0.294 C 
ATOM     39  N   LIG    1      -23.718  82.542  14.742  0.00  0.00    -0.225 N 
ATOM     40  H   LIG    1      -24.173  83.142  14.070  0.00  0.00    +0.292 HD
ATOM     41  C   LIG    1      -24.024  81.199  14.717  0.00  0.00    +0.240 C 
BRANCH  38  42
ATOM     42  N   LIG    1      -22.642  84.344  15.794  0.00  0.00    -0.071 NA
ATOM     43  H   LIG    1      -22.198  84.664  14.931  0.00  0.00    +0.348 HD
ENDBRANCH  38  42
ENDBRANCH  34  35
ENDBRANCH  31  34
ENDBRANCH   1  30
TORSDOF 9
ENDMDL
MODEL 9
REMARK VINA RESULT:      -6.7      7.193     10.961
REMARK  Name = pdb/CHEMBL3904853.pdb
REMARK                            x       y       z     vdW  Elec       q    Type
REMARK                         _______ _______ _______ _____ _____    ______ ____
ROOT
ATOM      1  C   LIG    1      -38.259  78.251  26.152  0.00  0.00    +0.149 A 
ATOM      2  N   LIG    1      -37.278  77.882  26.995  0.00  0.00    -0.160 NA
ATOM      3  N   LIG    1      -36.940  76.612  26.600  0.00  0.00    -0.218 N 
ATOM      4  C   LIG    1      -37.796  76.142  25.590  0.00  0.00    +0.129 A 
ATOM      5  C   LIG    1      -38.599  77.208  25.269  0.00  0.00    +0.078 A 
ENDROOT
BRANCH   3   6
ATOM      6  C   LIG    1      -35.840  75.953  27.228  0.00  0.00    +0.067 A 
ATOM      7  C   LIG    1      -34.561  76.532  27.187  0.00  0.00    +0.028 A 
ATOM      8  C   LIG    1      -33.459  75.855  27.725  0.00  0.00    +0.002 A 
ATOM      9  C   LIG    1      -33.618  74.590  28.284  0.00  0.00    +0.000 A 
ATOM     10  C   LIG    1      -34.885  74.016  28.343  0.00  0.00    +0.002 A 
ATOM     11  C   LIG    1      -35.991  74.696  27.825  0.00  0.00    +0.028 A 
ENDBRANCH   3   6
BRANCH   4  12
ATOM     12  N   LIG    1      -37.895  74.845  25.062  0.00  0.00    -0.266 N 
ATOM     13  H   LIG    1      -37.205  74.554  24.383  0.00  0.00    +0.157 HD
ATOM     14  C   LIG    1      -38.837  73.859  25.535  0.00  0.00    +0.251 C 
ATOM     15  O   LIG    1      -39.650  74.143  26.382  0.00  0.00    -0.270 OA
BRANCH  14  16
ATOM     16  C   LIG    1      -38.732  72.457  25.015  0.00  0.00    +0.056 A 
ATOM     17  C   LIG    1      -39.557  71.863  24.052  0.00  0.00    +0.056 A 
ATOM     18 CL   LIG    1      -40.934  72.616  23.346  0.00  0.00    -0.083 Cl
ATOM     19  C   LIG    1      -39.296  70.566  23.602  0.00  0.00    +0.059 A 
ATOM     20  C   LIG    1      -38.224  69.846  24.116  0.00  0.00    +0.134 A 
ATOM     21  F   LIG    1      -38.043  68.603  23.645  0.00  0.00    -0.205 F 
ATOM     22  C   LIG    1      -37.377  70.379  25.089  0.00  0.00    +0.036 A 
ATOM     23  C   LIG    1      -37.654  71.698  25.519  0.00  0.00    +0.027 A 
BRANCH  22  24
ATOM     24  C   LIG    1      -36.244  69.629  25.660  0.00  0.00    +0.074 A 
ATOM     25  N   LIG    1      -35.015  70.111  25.339  0.00  0.00    -0.255 NA
ATOM     26  C   LIG    1      -33.933  69.452  25.812  0.00  0.00    +0.111 A 
ATOM     27  C   LIG    1      -34.006  68.314  26.594  0.00  0.00    +0.020 A 
ATOM     28  C   LIG    1      -35.264  67.827  26.919  0.00  0.00    +0.004 A 
ATOM     29  C   LIG    1      -36.395  68.490  26.449  0.00  0.00    +0.028 A 
ENDBRANCH  22  24
ENDBRANCH  14  16
ENDBRANCH   4  12
BRANCH   1  30
ATOM     30  C   LIG    1      -38.899  79.561  26.219  0.00  0.00    +0.236 C 
ATOM     31  N   LIG    1      -39.773  79.880  25.338  0.00  0.00    -0.245 NA
BRANCH  30  32
ATOM     32  O   LIG    1      -38.522  80.353  27.245  0.00  0.00    -0.491 OA
ATOM     33  H   LIG    1      -37.708  80.830  26.994  0.00  0.00    +0.294 HD
ENDBRANCH  30  32
BRANCH  31  34
ATOM     34  C   LIG    1      -40.446  81.167  25.481  0.00  0.00    +0.180 C 
BRANCH  34  35
ATOM     35  C   LIG    1      -40.050  82.040  24.313  0.00  0.00    -0.002 C 
ATOM     36  C   LIG    1      -40.971  82.143  23.175  0.00  0.00    +0.013 C 
ATOM     37  C   LIG    1      -40.666  82.832  22.060  0.00  0.00    +0.096 C 
ATOM     38  C   LIG    1      -39.348  83.528  22.026  0.00  0.00    +0.294 C 
ATOM     39  N   LIG    1      -38.538  83.460  23.134  0.00  0.00    -0.225 N 
ATOM     40  H   LIG    1      -37.631  83.904  23.129  0.00  0.00    +0.292 HD
ATOM     41  C   LIG    1      -38.884  82.715  24.239  0.00  0.00    +0.240 C 
BRANCH  38  42
ATOM     42  N   LIG    1      -39.022  84.169  20.948  0.00  0.00    -0.071 NA
ATOM     43  H   LIG    1      -39.863  84.377  20.407  0.00  0.00    +0.348 HD
ENDBRANCH  38  42
ENDBRANCH  34  35
ENDBRANCH  31  34
ENDBRANCH   1  30
TORSDOF 9
ENDMDL
