MODEL 1
REMARK VINA RESULT:      -6.9      0.000      0.000
REMARK  Name = pdb/CHEMBL3671443.pdb
REMARK                            x       y       z     vdW  Elec       q    Type
REMARK                         _______ _______ _______ _____ _____    ______ ____
ROOT
ATOM      1  C   LIG    1      -33.108  73.595  29.057  0.00  0.00    +0.042 A 
ATOM      2  C   LIG    1      -33.925  73.333  27.949  0.00  0.00    +0.038 A 
ATOM      3  C   LIG    1      -34.654  72.136  27.875  0.00  0.00    +0.052 A 
ATOM      4  C   LIG    1      -34.499  71.229  28.920  0.00  0.00    +0.134 A 
ATOM      5  N   LIG    1      -33.657  71.422  29.969  0.00  0.00    -0.261 NA
ATOM      6  C   LIG    1      -32.972  72.589  30.004  0.00  0.00    +0.122 A 
ENDROOT
BRANCH   3   7
ATOM      7  N   LIG    1      -35.497  71.952  26.755  0.00  0.00    -0.284 N 
ATOM      8  H   LIG    1      -35.047  71.638  25.905  0.00  0.00    +0.155 HD
ATOM      9  C   LIG    1      -36.872  72.103  26.717  0.00  0.00    +0.222 C 
ATOM     10  O   LIG    1      -37.566  72.417  27.682  0.00  0.00    -0.275 OA
BRANCH   9  11
ATOM     11  C   LIG    1      -37.522  71.962  25.343  0.00  0.00    +0.131 C 
BRANCH  11  12
ATOM     12  C   LIG    1      -38.372  73.119  24.872  0.00  0.00    -0.039 A 
ATOM     13  C   LIG    1      -39.634  72.900  24.303  0.00  0.00    +0.004 A 
ATOM     14  C   LIG    1      -40.426  73.978  23.902  0.00  0.00    +0.012 A 
ATOM     15  C   LIG    1      -39.964  75.295  24.046  0.00  0.00    +0.055 A 
ATOM     16  C   LIG    1      -38.693  75.511  24.598  0.00  0.00    +0.012 A 
ATOM     17  C   LIG    1      -37.907  74.433  25.011  0.00  0.00    +0.004 A 
BRANCH  15  18
ATOM     18  C   LIG    1      -40.832  76.453  23.615  0.00  0.00    +0.417 C 
ATOM     19  F   LIG    1      -41.495  77.013  24.666  0.00  0.00    -0.166 F 
ATOM     20  F   LIG    1      -41.790  76.085  22.722  0.00  0.00    -0.166 F 
ATOM     21  F   LIG    1      -40.140  77.467  23.028  0.00  0.00    -0.166 F 
ENDBRANCH  15  18
ENDBRANCH  11  12
ENDBRANCH   9  11
ENDBRANCH   3   7
BRANCH   1  22
ATOM     22  C   LIG    1      -32.359  74.864  29.261  0.00  0.00    +0.197 C 
ATOM     23  O   LIG    1      -31.161  74.792  29.545  0.00  0.00    -0.287 OA
BRANCH  22  31
ATOM     24  N   LIG    1      -34.313  77.971  29.546  0.00  0.00    -0.321 N 
ATOM     25  C   LIG    1      -33.634  78.230  28.374  0.00  0.00    +0.145 A 
ATOM     26  N   LIG    1      -33.731  79.333  27.612  0.00  0.00    -0.218 NA
ATOM     27  C   LIG    1      -32.997  79.263  26.493  0.00  0.00    +0.223 A 
ATOM     28  N   LIG    1      -32.200  78.256  26.100  0.00  0.00    -0.243 NA
ATOM     29  C   LIG    1      -32.102  77.176  26.908  0.00  0.00    +0.124 A 
ATOM     30  C   LIG    1      -32.843  77.120  28.091  0.00  0.00    +0.048 A 
ATOM     31  C   LIG    1      -33.018  76.166  29.143  0.00  0.00    +0.051 A 
ATOM     32  C   LIG    1      -33.870  76.766  30.056  0.00  0.00    +0.100 A 
BRANCH  24  34
ATOM     33  C   LIG    1      -36.591  79.001  29.323  0.00  0.00    +0.039 C 
ATOM     34  C   LIG    1      -35.346  78.781  30.183  0.00  0.00    +0.090 C 
ATOM     35  C   LIG    1      -35.662  78.294  31.615  0.00  0.00    +0.190 C 
ATOM     36  O   LIG    1      -35.591  79.652  32.123  0.00  0.00    -0.375 OA
ATOM     37  C   LIG    1      -34.896  80.066  30.916  0.00  0.00    +0.190 C 
ENDBRANCH  24  34
ENDBRANCH  22  31
ENDBRANCH   1  22
TORSDOF 7
ENDMDL
MODEL 2
REMARK VINA RESULT:      -6.6      7.849     11.853
REMARK  Name = pdb/CHEMBL3671443.pdb
REMARK                            x       y       z     vdW  Elec       q    Type
REMARK                         _______ _______ _______ _____ _____    ______ ____
ROOT
ATOM      1  C   LIG    1      -35.861  66.939  21.215  0.00  0.00    +0.042 A 
ATOM      2  C   LIG    1      -36.055  68.003  22.106  0.00  0.00    +0.038 A 
ATOM      3  C   LIG    1      -37.091  68.925  21.894  0.00  0.00    +0.052 A 
ATOM      4  C   LIG    1      -37.878  68.749  20.758  0.00  0.00    +0.134 A 
ATOM      5  N   LIG    1      -37.667  67.773  19.838  0.00  0.00    -0.261 NA
ATOM      6  C   LIG    1      -36.658  66.904  20.078  0.00  0.00    +0.122 A 
ENDROOT
BRANCH   3   7
ATOM      7  N   LIG    1      -37.265  69.948  22.855  0.00  0.00    -0.284 N 
ATOM      8  H   LIG    1      -36.728  70.792  22.707  0.00  0.00    +0.155 HD
ATOM      9  C   LIG    1      -38.127  69.933  23.937  0.00  0.00    +0.222 C 
ATOM     10  O   LIG    1      -38.887  69.005  24.210  0.00  0.00    -0.275 OA
BRANCH   9  11
ATOM     11  C   LIG    1      -38.024  71.122  24.889  0.00  0.00    +0.131 C 
BRANCH  11  12
ATOM     12  C   LIG    1      -38.882  72.324  24.568  0.00  0.00    -0.039 A 
ATOM     13  C   LIG    1      -38.455  73.619  24.894  0.00  0.00    +0.004 A 
ATOM     14  C   LIG    1      -39.239  74.726  24.563  0.00  0.00    +0.012 A 
ATOM     15  C   LIG    1      -40.473  74.559  23.916  0.00  0.00    +0.055 A 
ATOM     16  C   LIG    1      -40.906  73.261  23.608  0.00  0.00    +0.012 A 
ATOM     17  C   LIG    1      -40.115  72.155  23.927  0.00  0.00    +0.004 A 
BRANCH  15  18
ATOM     18  C   LIG    1      -41.310  75.764  23.557  0.00  0.00    +0.417 C 
ATOM     19  F   LIG    1      -42.382  75.430  22.786  0.00  0.00    -0.166 F 
ATOM     20  F   LIG    1      -40.612  76.691  22.846  0.00  0.00    -0.166 F 
ATOM     21  F   LIG    1      -41.815  76.420  24.637  0.00  0.00    -0.166 F 
ENDBRANCH  15  18
ENDBRANCH  11  12
ENDBRANCH   9  11
ENDBRANCH   3   7
BRANCH   1  22
ATOM     22  C   LIG    1      -34.840  65.873  21.396  0.00  0.00    +0.197 C 
ATOM     23  O   LIG    1      -34.935  65.140  22.384  0.00  0.00    -0.287 OA
BRANCH  22  31
ATOM     24  N   LIG    1      -31.904  66.057  19.182  0.00  0.00    -0.321 N 
ATOM     25  C   LIG    1      -32.330  64.776  18.898  0.00  0.00    +0.145 A 
ATOM     26  N   LIG    1      -31.771  63.913  18.032  0.00  0.00    -0.218 NA
ATOM     27  C   LIG    1      -32.454  62.766  17.922  0.00  0.00    +0.223 A 
ATOM     28  N   LIG    1      -33.570  62.412  18.580  0.00  0.00    -0.243 NA
ATOM     29  C   LIG    1      -34.086  63.294  19.466  0.00  0.00    +0.124 A 
ATOM     30  C   LIG    1      -33.477  64.537  19.649  0.00  0.00    +0.048 A 
ATOM     31  C   LIG    1      -33.742  65.698  20.444  0.00  0.00    +0.051 A 
ATOM     32  C   LIG    1      -32.703  66.577  20.182  0.00  0.00    +0.100 A 
BRANCH  24  34
ATOM     33  C   LIG    1      -29.420  66.275  18.897  0.00  0.00    +0.039 C 
ATOM     34  C   LIG    1      -30.815  66.800  18.557  0.00  0.00    +0.090 C 
ATOM     35  C   LIG    1      -31.047  67.002  17.042  0.00  0.00    +0.190 C 
ATOM     36  O   LIG    1      -30.706  68.408  17.149  0.00  0.00    -0.375 OA
ATOM     37  C   LIG    1      -30.893  68.344  18.588  0.00  0.00    +0.190 C 
ENDBRANCH  24  34
ENDBRANCH  22  31
ENDBRANCH   1  22
TORSDOF 7
ENDMDL
MODEL 3
REMARK VINA RESULT:      -6.4      4.671      9.233
REMARK  Name = pdb/CHEMBL3671443.pdb
REMARK                            x       y       z     vdW  Elec       q    Type
REMARK                         _______ _______ _______ _____ _____    ______ ____
ROOT
ATOM      1  C   LIG    1      -39.032  73.392  24.500  0.00  0.00    +0.042 A 
ATOM      2  C   LIG    1      -37.887  74.044  24.978  0.00  0.00    +0.038 A 
ATOM      3  C   LIG    1      -37.865  75.442  25.095  0.00  0.00    +0.052 A 
ATOM      4  C   LIG    1      -39.003  76.134  24.687  0.00  0.00    +0.134 A 
ATOM      5  N   LIG    1      -40.098  75.537  24.151  0.00  0.00    -0.261 NA
ATOM      6  C   LIG    1      -40.081  74.187  24.055  0.00  0.00    +0.122 A 
ENDROOT
BRANCH   3   7
ATOM      7  N   LIG    1      -36.697  76.035  25.629  0.00  0.00    -0.284 N 
ATOM      8  H   LIG    1      -36.002  76.333  24.957  0.00  0.00    +0.155 HD
ATOM      9  C   LIG    1      -36.436  76.299  26.961  0.00  0.00    +0.222 C 
ATOM     10  O   LIG    1      -37.209  76.054  27.886  0.00  0.00    -0.275 OA
BRANCH   9  11
ATOM     11  C   LIG    1      -35.041  76.835  27.274  0.00  0.00    +0.131 C 
BRANCH  11  12
ATOM     12  C   LIG    1      -34.098  75.896  27.991  0.00  0.00    -0.039 A 
ATOM     13  C   LIG    1      -34.269  74.507  27.912  0.00  0.00    +0.004 A 
ATOM     14  C   LIG    1      -33.372  73.647  28.550  0.00  0.00    +0.012 A 
ATOM     15  C   LIG    1      -32.298  74.159  29.294  0.00  0.00    +0.055 A 
ATOM     16  C   LIG    1      -32.141  75.549  29.386  0.00  0.00    +0.012 A 
ATOM     17  C   LIG    1      -33.029  76.409  28.737  0.00  0.00    +0.004 A 
BRANCH  15  18
ATOM     18  C   LIG    1      -31.331  73.219  29.973  0.00  0.00    +0.417 C 
ATOM     19  F   LIG    1      -30.401  73.889  30.709  0.00  0.00    -0.166 F 
ATOM     20  F   LIG    1      -30.631  72.459  29.088  0.00  0.00    -0.166 F 
ATOM     21  F   LIG    1      -31.928  72.346  30.829  0.00  0.00    -0.166 F 
ENDBRANCH  15  18
ENDBRANCH  11  12
ENDBRANCH   9  11
ENDBRANCH   3   7
BRANCH   1  22
ATOM     22  C   LIG    1      -39.178  71.915  24.412  0.00  0.00    +0.197 C 
ATOM     23  O   LIG    1      -40.243  71.460  23.989  0.00  0.00    -0.287 OA
BRANCH  22  31
ATOM     24  N   LIG    1      -36.531  69.953  26.057  0.00  0.00    -0.321 N 
ATOM     25  C   LIG    1      -36.492  69.389  24.799  0.00  0.00    +0.145 A 
ATOM     26  N   LIG    1      -35.673  68.409  24.380  0.00  0.00    -0.218 NA
ATOM     27  C   LIG    1      -35.825  68.120  23.079  0.00  0.00    +0.223 A 
ATOM     28  N   LIG    1      -36.689  68.675  22.214  0.00  0.00    -0.243 NA
ATOM     29  C   LIG    1      -37.518  69.637  22.680  0.00  0.00    +0.124 A 
ATOM     30  C   LIG    1      -37.436  70.044  24.013  0.00  0.00    +0.048 A 
ATOM     31  C   LIG    1      -38.099  71.016  24.827  0.00  0.00    +0.051 A 
ATOM     32  C   LIG    1      -37.564  70.869  26.097  0.00  0.00    +0.100 A 
BRANCH  24  34
ATOM     33  C   LIG    1      -34.183  70.029  26.939  0.00  0.00    +0.039 C 
ATOM     34  C   LIG    1      -35.652  69.684  27.189  0.00  0.00    +0.090 C 
ATOM     35  C   LIG    1      -36.208  70.271  28.506  0.00  0.00    +0.190 C 
ATOM     36  O   LIG    1      -35.952  69.025  29.203  0.00  0.00    -0.375 OA
ATOM     37  C   LIG    1      -35.829  68.338  27.929  0.00  0.00    +0.190 C 
ENDBRANCH  24  34
ENDBRANCH  22  31
ENDBRANCH   1  22
TORSDOF 7
ENDMDL
MODEL 4
REMARK VINA RESULT:      -6.2      4.633      9.579
REMARK  Name = pdb/CHEMBL3671443.pdb
REMARK                            x       y       z     vdW  Elec       q    Type
REMARK                         _______ _______ _______ _____ _____    ______ ____
ROOT
ATOM      1  C   LIG    1      -39.187  74.013  24.503  0.00  0.00    +0.042 A 
ATOM      2  C   LIG    1      -37.950  74.454  24.991  0.00  0.00    +0.038 A 
ATOM      3  C   LIG    1      -37.730  75.818  25.234  0.00  0.00    +0.052 A 
ATOM      4  C   LIG    1      -38.771  76.695  24.940  0.00  0.00    +0.134 A 
ATOM      5  N   LIG    1      -39.954  76.306  24.396  0.00  0.00    -0.261 NA
ATOM      6  C   LIG    1      -40.127  74.981  24.177  0.00  0.00    +0.122 A 
ENDROOT
BRANCH   3   7
ATOM      7  N   LIG    1      -36.476  76.194  25.772  0.00  0.00    -0.284 N 
ATOM      8  H   LIG    1      -35.738  76.363  25.102  0.00  0.00    +0.155 HD
ATOM      9  C   LIG    1      -36.175  76.404  27.105  0.00  0.00    +0.222 C 
ATOM     10  O   LIG    1      -36.981  76.299  28.028  0.00  0.00    -0.275 OA
BRANCH   9  11
ATOM     11  C   LIG    1      -34.708  76.683  27.422  0.00  0.00    +0.131 C 
BRANCH  11  12
ATOM     12  C   LIG    1      -33.914  75.543  28.018  0.00  0.00    -0.039 A 
ATOM     13  C   LIG    1      -32.778  75.790  28.802  0.00  0.00    +0.004 A 
ATOM     14  C   LIG    1      -32.071  74.732  29.377  0.00  0.00    +0.012 A 
ATOM     15  C   LIG    1      -32.475  73.405  29.164  0.00  0.00    +0.055 A 
ATOM     16  C   LIG    1      -33.600  73.160  28.363  0.00  0.00    +0.012 A 
ATOM     17  C   LIG    1      -34.315  74.219  27.801  0.00  0.00    +0.004 A 
BRANCH  15  18
ATOM     18  C   LIG    1      -31.707  72.269  29.795  0.00  0.00    +0.417 C 
ATOM     19  F   LIG    1      -32.211  71.053  29.443  0.00  0.00    -0.166 F 
ATOM     20  F   LIG    1      -31.741  72.308  31.156  0.00  0.00    -0.166 F 
ATOM     21  F   LIG    1      -30.390  72.242  29.453  0.00  0.00    -0.166 F 
ENDBRANCH  15  18
ENDBRANCH  11  12
ENDBRANCH   9  11
ENDBRANCH   3   7
BRANCH   1  22
ATOM     22  C   LIG    1      -39.539  72.584  24.286  0.00  0.00    +0.197 C 
ATOM     23  O   LIG    1      -40.542  72.329  23.617  0.00  0.00    -0.287 OA
BRANCH  22  31
ATOM     24  N   LIG    1      -37.382  69.708  25.083  0.00  0.00    -0.321 N 
ATOM     25  C   LIG    1      -37.682  70.136  26.360  0.00  0.00    +0.145 A 
ATOM     26  N   LIG    1      -37.265  69.586  27.513  0.00  0.00    -0.218 NA
ATOM     27  C   LIG    1      -37.782  70.185  28.596  0.00  0.00    +0.223 A 
ATOM     28  N   LIG    1      -38.612  71.240  28.628  0.00  0.00    -0.243 NA
ATOM     29  C   LIG    1      -38.984  71.786  27.448  0.00  0.00    +0.124 A 
ATOM     30  C   LIG    1      -38.533  71.232  26.249  0.00  0.00    +0.048 A 
ATOM     31  C   LIG    1      -38.732  71.505  24.858  0.00  0.00    +0.051 A 
ATOM     32  C   LIG    1      -37.941  70.591  24.180  0.00  0.00    +0.100 A 
BRANCH  24  34
ATOM     33  C   LIG    1      -37.242  67.203  25.143  0.00  0.00    +0.039 C 
ATOM     34  C   LIG    1      -36.625  68.526  24.687  0.00  0.00    +0.090 C 
ATOM     35  C   LIG    1      -36.257  68.551  23.186  0.00  0.00    +0.190 C 
ATOM     36  O   LIG    1      -34.885  68.187  23.488  0.00  0.00    -0.375 OA
ATOM     37  C   LIG    1      -35.091  68.563  24.876  0.00  0.00    +0.190 C 
ENDBRANCH  24  34
ENDBRANCH  22  31
ENDBRANCH   1  22
TORSDOF 7
ENDMDL
MODEL 5
REMARK VINA RESULT:      -6.2      3.235      5.610
REMARK  Name = pdb/CHEMBL3671443.pdb
REMARK                            x       y       z     vdW  Elec       q    Type
REMARK                         _______ _______ _______ _____ _____    ______ ____
ROOT
ATOM      1  C   LIG    1      -34.771  77.204  27.651  0.00  0.00    +0.042 A 
ATOM      2  C   LIG    1      -35.889  76.618  27.043  0.00  0.00    +0.038 A 
ATOM      3  C   LIG    1      -37.124  77.284  27.039  0.00  0.00    +0.052 A 
ATOM      4  C   LIG    1      -37.186  78.516  27.687  0.00  0.00    +0.134 A 
ATOM      5  N   LIG    1      -36.140  79.074  28.349  0.00  0.00    -0.261 NA
ATOM      6  C   LIG    1      -34.966  78.400  28.329  0.00  0.00    +0.122 A 
ENDROOT
BRANCH   3   7
ATOM      7  N   LIG    1      -38.201  76.662  26.367  0.00  0.00    -0.284 N 
ATOM      8  H   LIG    1      -38.947  76.309  26.953  0.00  0.00    +0.155 HD
ATOM      9  C   LIG    1      -38.365  76.535  24.999  0.00  0.00    +0.222 C 
ATOM     10  O   LIG    1      -37.577  76.968  24.159  0.00  0.00    -0.275 OA
BRANCH   9  11
ATOM     11  C   LIG    1      -39.563  75.707  24.544  0.00  0.00    +0.131 C 
BRANCH  11  12
ATOM     12  C   LIG    1      -39.359  74.212  24.449  0.00  0.00    -0.039 A 
ATOM     13  C   LIG    1      -40.350  73.384  23.906  0.00  0.00    +0.004 A 
ATOM     14  C   LIG    1      -40.138  72.008  23.791  0.00  0.00    +0.012 A 
ATOM     15  C   LIG    1      -38.937  71.432  24.234  0.00  0.00    +0.055 A 
ATOM     16  C   LIG    1      -37.955  72.261  24.794  0.00  0.00    +0.012 A 
ATOM     17  C   LIG    1      -38.162  73.638  24.896  0.00  0.00    +0.004 A 
BRANCH  15  18
ATOM     18  C   LIG    1      -38.716  69.945  24.099  0.00  0.00    +0.417 C 
ATOM     19  F   LIG    1      -39.125  69.475  22.887  0.00  0.00    -0.166 F 
ATOM     20  F   LIG    1      -39.403  69.227  25.029  0.00  0.00    -0.166 F 
ATOM     21  F   LIG    1      -37.413  69.572  24.224  0.00  0.00    -0.166 F 
ENDBRANCH  15  18
ENDBRANCH  11  12
ENDBRANCH   9  11
ENDBRANCH   3   7
BRANCH   1  22
ATOM     22  C   LIG    1      -33.407  76.612  27.640  0.00  0.00    +0.197 C 
ATOM     23  O   LIG    1      -32.649  76.916  26.717  0.00  0.00    -0.287 OA
BRANCH  22  31
ATOM     24  N   LIG    1      -32.014  74.812  30.535  0.00  0.00    -0.321 N 
ATOM     25  C   LIG    1      -32.681  73.776  29.915  0.00  0.00    +0.145 A 
ATOM     26  N   LIG    1      -32.740  72.496  30.322  0.00  0.00    -0.218 NA
ATOM     27  C   LIG    1      -33.408  71.706  29.471  0.00  0.00    +0.223 A 
ATOM     28  N   LIG    1      -34.009  72.063  28.324  0.00  0.00    -0.243 NA
ATOM     29  C   LIG    1      -33.955  73.365  27.962  0.00  0.00    +0.124 A 
ATOM     30  C   LIG    1      -33.262  74.282  28.757  0.00  0.00    +0.048 A 
ATOM     31  C   LIG    1      -32.972  75.681  28.684  0.00  0.00    +0.051 A 
ATOM     32  C   LIG    1      -32.268  75.979  29.841  0.00  0.00    +0.100 A 
BRANCH  24  34
ATOM     33  C   LIG    1      -31.905  74.477  33.020  0.00  0.00    +0.039 C 
ATOM     34  C   LIG    1      -31.157  74.750  31.714  0.00  0.00    +0.090 C 
ATOM     35  C   LIG    1      -29.937  73.827  31.495  0.00  0.00    +0.190 C 
ATOM     36  O   LIG    1      -29.044  74.830  32.044  0.00  0.00    -0.375 OA
ATOM     37  C   LIG    1      -30.072  75.841  31.868  0.00  0.00    +0.190 C 
ENDBRANCH  24  34
ENDBRANCH  22  31
ENDBRANCH   1  22
TORSDOF 7
ENDMDL
MODEL 6
REMARK VINA RESULT:      -6.2      2.605      6.294
REMARK  Name = pdb/CHEMBL3671443.pdb
REMARK                            x       y       z     vdW  Elec       q    Type
REMARK                         _______ _______ _______ _____ _____    ______ ____
ROOT
ATOM      1  C   LIG    1      -33.354  75.292  28.843  0.00  0.00    +0.042 A 
ATOM      2  C   LIG    1      -34.319  75.297  27.827  0.00  0.00    +0.038 A 
ATOM      3  C   LIG    1      -34.962  76.491  27.468  0.00  0.00    +0.052 A 
ATOM      4  C   LIG    1      -34.623  77.638  28.182  0.00  0.00    +0.134 A 
ATOM      5  N   LIG    1      -33.748  77.649  29.220  0.00  0.00    -0.261 NA
ATOM      6  C   LIG    1      -33.148  76.477  29.536  0.00  0.00    +0.122 A 
ENDROOT
BRANCH   3   7
ATOM      7  N   LIG    1      -35.891  76.439  26.402  0.00  0.00    -0.284 N 
ATOM      8  H   LIG    1      -35.498  76.415  25.470  0.00  0.00    +0.155 HD
ATOM      9  C   LIG    1      -37.268  76.364  26.505  0.00  0.00    +0.222 C 
ATOM     10  O   LIG    1      -37.887  76.321  27.567  0.00  0.00    -0.275 OA
BRANCH   9  11
ATOM     11  C   LIG    1      -38.042  76.445  25.191  0.00  0.00    +0.131 C 
BRANCH  11  12
ATOM     12  C   LIG    1      -38.767  75.194  24.752  0.00  0.00    -0.039 A 
ATOM     13  C   LIG    1      -38.190  73.929  24.931  0.00  0.00    +0.004 A 
ATOM     14  C   LIG    1      -38.883  72.776  24.553  0.00  0.00    +0.012 A 
ATOM     15  C   LIG    1      -40.157  72.868  23.972  0.00  0.00    +0.055 A 
ATOM     16  C   LIG    1      -40.723  74.136  23.777  0.00  0.00    +0.012 A 
ATOM     17  C   LIG    1      -40.036  75.287  24.168  0.00  0.00    +0.004 A 
BRANCH  15  18
ATOM     18  C   LIG    1      -40.899  71.615  23.574  0.00  0.00    +0.417 C 
ATOM     19  F   LIG    1      -41.987  71.392  24.363  0.00  0.00    -0.166 F 
ATOM     20  F   LIG    1      -40.129  70.497  23.674  0.00  0.00    -0.166 F 
ATOM     21  F   LIG    1      -41.363  71.638  22.294  0.00  0.00    -0.166 F 
ENDBRANCH  15  18
ENDBRANCH  11  12
ENDBRANCH   9  11
ENDBRANCH   3   7
BRANCH   1  22
ATOM     22  C   LIG    1      -32.566  74.095  29.241  0.00  0.00    +0.197 C 
ATOM     23  O   LIG    1      -31.516  74.271  29.863  0.00  0.00    -0.287 OA
BRANCH  22  31
ATOM     24  N   LIG    1      -34.130  71.006  27.986  0.00  0.00    -0.321 N 
ATOM     25  C   LIG    1      -33.150  70.461  28.790  0.00  0.00    +0.145 A 
ATOM     26  N   LIG    1      -32.915  69.155  29.003  0.00  0.00    -0.218 NA
ATOM     27  C   LIG    1      -31.937  68.937  29.893  0.00  0.00    +0.223 A 
ATOM     28  N   LIG    1      -31.197  69.856  30.535  0.00  0.00    -0.243 NA
ATOM     29  C   LIG    1      -31.441  71.160  30.272  0.00  0.00    +0.124 A 
ATOM     30  C   LIG    1      -32.457  71.513  29.382  0.00  0.00    +0.048 A 
ATOM     31  C   LIG    1      -33.008  72.742  28.896  0.00  0.00    +0.051 A 
ATOM     32  C   LIG    1      -33.982  72.380  27.979  0.00  0.00    +0.100 A 
BRANCH  24  34
ATOM     33  C   LIG    1      -36.213  69.616  28.145  0.00  0.00    +0.039 C 
ATOM     34  C   LIG    1      -35.181  70.308  27.254  0.00  0.00    +0.090 C 
ATOM     35  C   LIG    1      -35.810  71.197  26.157  0.00  0.00    +0.190 C 
ATOM     36  O   LIG    1      -35.706  70.122  25.188  0.00  0.00    -0.375 OA
ATOM     37  C   LIG    1      -34.757  69.438  26.049  0.00  0.00    +0.190 C 
ENDBRANCH  24  34
ENDBRANCH  22  31
ENDBRANCH   1  22
TORSDOF 7
ENDMDL
MODEL 7
REMARK VINA RESULT:      -6.2     19.289     22.871
REMARK  Name = pdb/CHEMBL3671443.pdb
REMARK                            x       y       z     vdW  Elec       q    Type
REMARK                         _______ _______ _______ _____ _____    ______ ____
ROOT
ATOM      1  C   LIG    1      -24.875  87.660  11.050  0.00  0.00    +0.042 A 
ATOM      2  C   LIG    1      -24.940  86.348  11.538  0.00  0.00    +0.038 A 
ATOM      3  C   LIG    1      -25.925  85.466  11.069  0.00  0.00    +0.052 A 
ATOM      4  C   LIG    1      -26.835  85.962  10.138  0.00  0.00    +0.134 A 
ATOM      5  N   LIG    1      -26.843  87.249   9.703  0.00  0.00    -0.261 NA
ATOM      6  C   LIG    1      -25.876  88.068  10.179  0.00  0.00    +0.122 A 
ENDROOT
BRANCH   3   7
ATOM      7  N   LIG    1      -25.908  84.141  11.565  0.00  0.00    -0.284 N 
ATOM      8  H   LIG    1      -26.398  83.987  12.437  0.00  0.00    +0.155 HD
ATOM      9  C   LIG    1      -25.343  83.035  10.957  0.00  0.00    +0.222 C 
ATOM     10  O   LIG    1      -24.772  83.052   9.869  0.00  0.00    -0.275 OA
BRANCH   9  11
ATOM     11  C   LIG    1      -25.361  81.744  11.773  0.00  0.00    +0.131 C 
BRANCH  11  12
ATOM     12  C   LIG    1      -24.570  81.744  13.061  0.00  0.00    -0.039 A 
ATOM     13  C   LIG    1      -24.802  80.774  14.046  0.00  0.00    +0.004 A 
ATOM     14  C   LIG    1      -24.042  80.762  15.218  0.00  0.00    +0.012 A 
ATOM     15  C   LIG    1      -23.049  81.729  15.435  0.00  0.00    +0.055 A 
ATOM     16  C   LIG    1      -22.832  82.709  14.455  0.00  0.00    +0.012 A 
ATOM     17  C   LIG    1      -23.583  82.712  13.278  0.00  0.00    +0.004 A 
BRANCH  15  18
ATOM     18  C   LIG    1      -22.229  81.701  16.703  0.00  0.00    +0.417 C 
ATOM     19  F   LIG    1      -20.923  82.011  16.473  0.00  0.00    -0.166 F 
ATOM     20  F   LIG    1      -22.225  80.476  17.296  0.00  0.00    -0.166 F 
ATOM     21  F   LIG    1      -22.660  82.577  17.651  0.00  0.00    -0.166 F 
ENDBRANCH  15  18
ENDBRANCH  11  12
ENDBRANCH   9  11
ENDBRANCH   3   7
BRANCH   1  22
ATOM     22  C   LIG    1      -23.824  88.641  11.430  0.00  0.00    +0.197 C 
ATOM     23  O   LIG    1      -24.090  89.842  11.337  0.00  0.00    -0.287 OA
BRANCH  22  31
ATOM     24  N   LIG    1      -20.345  87.541  11.927  0.00  0.00    -0.321 N 
ATOM     25  C   LIG    1      -20.759  87.609  13.242  0.00  0.00    +0.145 A 
ATOM     26  N   LIG    1      -20.028  87.323  14.333  0.00  0.00    -0.218 NA
ATOM     27  C   LIG    1      -20.729  87.415  15.471  0.00  0.00    +0.223 A 
ATOM     28  N   LIG    1      -22.016  87.771  15.612  0.00  0.00    -0.243 NA
ATOM     29  C   LIG    1      -22.711  88.082  14.494  0.00  0.00    +0.124 A 
ATOM     30  C   LIG    1      -22.096  87.996  13.244  0.00  0.00    +0.048 A 
ATOM     31  C   LIG    1      -22.504  88.206  11.888  0.00  0.00    +0.051 A 
ATOM     32  C   LIG    1      -21.371  87.991  11.118  0.00  0.00    +0.100 A 
BRANCH  24  34
ATOM     33  C   LIG    1      -17.870  87.935  11.810  0.00  0.00    +0.039 C 
ATOM     34  C   LIG    1      -19.065  87.069  11.412  0.00  0.00    +0.090 C 
ATOM     35  C   LIG    1      -18.853  85.562  11.683  0.00  0.00    +0.190 C 
ATOM     36  O   LIG    1      -18.430  85.347  10.311  0.00  0.00    -0.375 OA
ATOM     37  C   LIG    1      -19.010  86.623   9.933  0.00  0.00    +0.190 C 
ENDBRANCH  24  34
ENDBRANCH  22  31
ENDBRANCH   1  22
TORSDOF 7
ENDMDL
MODEL 8
REMARK VINA RESULT:      -6.2      6.417     10.697
REMARK  Name = pdb/CHEMBL3671443.pdb
REMARK                            x       y       z     vdW  Elec       q    Type
REMARK                         _______ _______ _______ _____ _____    ______ ____
ROOT
ATOM      1  C   LIG    1      -35.777  67.857  23.708  0.00  0.00    +0.042 A 
ATOM      2  C   LIG    1      -36.952  68.573  23.445  0.00  0.00    +0.038 A 
ATOM      3  C   LIG    1      -37.198  69.794  24.091  0.00  0.00    +0.052 A 
ATOM      4  C   LIG    1      -36.250  70.229  25.014  0.00  0.00    +0.134 A 
ATOM      5  N   LIG    1      -35.139  69.521  25.345  0.00  0.00    -0.261 NA
ATOM      6  C   LIG    1      -34.938  68.349  24.699  0.00  0.00    +0.122 A 
ENDROOT
BRANCH   3   7
ATOM      7  N   LIG    1      -38.379  70.491  23.746  0.00  0.00    -0.284 N 
ATOM      8  H   LIG    1      -38.416  70.866  22.807  0.00  0.00    +0.155 HD
ATOM      9  C   LIG    1      -39.502  70.664  24.536  0.00  0.00    +0.222 C 
ATOM     10  O   LIG    1      -39.631  70.214  25.673  0.00  0.00    -0.275 OA
BRANCH   9  11
ATOM     11  C   LIG    1      -40.590  71.567  23.961  0.00  0.00    +0.131 C 
BRANCH  11  12
ATOM     12  C   LIG    1      -40.344  73.057  24.034  0.00  0.00    -0.039 A 
ATOM     13  C   LIG    1      -39.158  73.564  24.583  0.00  0.00    +0.004 A 
ATOM     14  C   LIG    1      -38.925  74.941  24.615  0.00  0.00    +0.012 A 
ATOM     15  C   LIG    1      -39.881  75.838  24.115  0.00  0.00    +0.055 A 
ATOM     16  C   LIG    1      -41.075  75.329  23.583  0.00  0.00    +0.012 A 
ATOM     17  C   LIG    1      -41.301  73.951  23.539  0.00  0.00    +0.004 A 
BRANCH  15  18
ATOM     18  C   LIG    1      -39.616  77.324  24.149  0.00  0.00    +0.417 C 
ATOM     19  F   LIG    1      -40.102  77.904  25.281  0.00  0.00    -0.166 F 
ATOM     20  F   LIG    1      -40.201  77.983  23.111  0.00  0.00    -0.166 F 
ATOM     21  F   LIG    1      -38.294  77.645  24.101  0.00  0.00    -0.166 F 
ENDBRANCH  15  18
ENDBRANCH  11  12
ENDBRANCH   9  11
ENDBRANCH   3   7
BRANCH   1  22
ATOM     22  C   LIG    1      -35.394  66.596  23.019  0.00  0.00    +0.197 C 
ATOM     23  O   LIG    1      -35.388  65.553  23.676  0.00  0.00    -0.287 OA
BRANCH  22  31
ATOM     24  N   LIG    1      -33.830  66.436  19.688  0.00  0.00    -0.321 N 
ATOM     25  C   LIG    1      -35.137  66.682  19.321  0.00  0.00    +0.145 A 
ATOM     26  N   LIG    1      -35.611  66.819  18.071  0.00  0.00    -0.218 NA
ATOM     27  C   LIG    1      -36.916  67.123  18.036  0.00  0.00    +0.223 A 
ATOM     28  N   LIG    1      -37.749  67.269  19.079  0.00  0.00    -0.243 NA
ATOM     29  C   LIG    1      -37.243  67.093  20.321  0.00  0.00    +0.124 A 
ATOM     30  C   LIG    1      -35.888  66.800  20.487  0.00  0.00    +0.048 A 
ATOM     31  C   LIG    1      -35.019  66.585  21.603  0.00  0.00    +0.051 A 
ATOM     32  C   LIG    1      -33.779  66.286  21.061  0.00  0.00    +0.100 A 
BRANCH  24  34
ATOM     33  C   LIG    1      -32.509  67.522  17.851  0.00  0.00    +0.039 C 
ATOM     34  C   LIG    1      -32.656  66.354  18.827  0.00  0.00    +0.090 C 
ATOM     35  C   LIG    1      -31.369  66.055  19.631  0.00  0.00    +0.190 C 
ATOM     36  O   LIG    1      -30.986  65.023  18.685  0.00  0.00    -0.375 OA
ATOM     37  C   LIG    1      -32.344  64.989  18.172  0.00  0.00    +0.190 C 
ENDBRANCH  24  34
ENDBRANCH  22  31
ENDBRANCH   1  22
TORSDOF 7
ENDMDL
MODEL 9
REMARK VINA RESULT:      -6.1      4.080      8.889
REMARK  Name = pdb/CHEMBL3671443.pdb
REMARK                            x       y       z     vdW  Elec       q    Type
REMARK                         _______ _______ _______ _____ _____    ______ ____
ROOT
ATOM      1  C   LIG    1      -36.977  70.193  25.470  0.00  0.00    +0.042 A 
ATOM      2  C   LIG    1      -36.021  71.043  26.043  0.00  0.00    +0.038 A 
ATOM      3  C   LIG    1      -35.473  70.747  27.300  0.00  0.00    +0.052 A 
ATOM      4  C   LIG    1      -35.944  69.608  27.949  0.00  0.00    +0.134 A 
ATOM      5  N   LIG    1      -36.923  68.807  27.453  0.00  0.00    -0.261 NA
ATOM      6  C   LIG    1      -37.425  69.127  26.237  0.00  0.00    +0.122 A 
ENDROOT
BRANCH   3   7
ATOM      7  N   LIG    1      -34.479  71.618  27.802  0.00  0.00    -0.284 N 
ATOM      8  H   LIG    1      -33.574  71.565  27.354  0.00  0.00    +0.155 HD
ATOM      9  C   LIG    1      -34.632  72.566  28.798  0.00  0.00    +0.222 C 
ATOM     10  O   LIG    1      -35.685  72.791  29.391  0.00  0.00    -0.275 OA
BRANCH   9  11
ATOM     11  C   LIG    1      -33.359  73.289  29.234  0.00  0.00    +0.131 C 
BRANCH  11  12
ATOM     12  C   LIG    1      -33.159  74.689  28.703  0.00  0.00    -0.039 A 
ATOM     13  C   LIG    1      -32.083  75.476  29.138  0.00  0.00    +0.004 A 
ATOM     14  C   LIG    1      -31.887  76.757  28.616  0.00  0.00    +0.012 A 
ATOM     15  C   LIG    1      -32.772  77.282  27.662  0.00  0.00    +0.055 A 
ATOM     16  C   LIG    1      -33.858  76.499  27.242  0.00  0.00    +0.012 A 
ATOM     17  C   LIG    1      -34.045  75.214  27.754  0.00  0.00    +0.004 A 
BRANCH  15  18
ATOM     18  C   LIG    1      -32.546  78.665  27.100  0.00  0.00    +0.417 C 
ATOM     19  F   LIG    1      -31.512  79.304  27.715  0.00  0.00    -0.166 F 
ATOM     20  F   LIG    1      -33.630  79.474  27.252  0.00  0.00    -0.166 F 
ATOM     21  F   LIG    1      -32.254  78.674  25.770  0.00  0.00    -0.166 F 
ENDBRANCH  15  18
ENDBRANCH  11  12
ENDBRANCH   9  11
ENDBRANCH   3   7
BRANCH   1  22
ATOM     22  C   LIG    1      -37.557  70.383  24.114  0.00  0.00    +0.197 C 
ATOM     23  O   LIG    1      -36.909  69.983  23.144  0.00  0.00    -0.287 OA
BRANCH  22  31
ATOM     24  N   LIG    1      -41.020  71.421  23.414  0.00  0.00    -0.321 N 
ATOM     25  C   LIG    1      -40.516  72.607  23.906  0.00  0.00    +0.145 A 
ATOM     26  N   LIG    1      -41.177  73.769  24.043  0.00  0.00    -0.218 NA
ATOM     27  C   LIG    1      -40.397  74.766  24.484  0.00  0.00    +0.223 A 
ATOM     28  N   LIG    1      -39.094  74.704  24.805  0.00  0.00    -0.243 NA
ATOM     29  C   LIG    1      -38.470  73.511  24.684  0.00  0.00    +0.124 A 
ATOM     30  C   LIG    1      -39.173  72.402  24.207  0.00  0.00    +0.048 A 
ATOM     31  C   LIG    1      -38.854  71.035  23.923  0.00  0.00    +0.051 A 
ATOM     32  C   LIG    1      -40.042  70.451  23.513  0.00  0.00    +0.100 A 
BRANCH  24  34
ATOM     33  C   LIG    1      -42.610  71.879  21.527  0.00  0.00    +0.039 C 
ATOM     34  C   LIG    1      -42.345  71.171  22.856  0.00  0.00    +0.090 C 
ATOM     35  C   LIG    1      -42.688  69.665  22.834  0.00  0.00    +0.190 C 
ATOM     36  O   LIG    1      -43.997  69.925  23.404  0.00  0.00    -0.375 OA
ATOM     37  C   LIG    1      -43.552  71.244  23.820  0.00  0.00    +0.190 C 
ENDBRANCH  24  34
ENDBRANCH  22  31
ENDBRANCH   1  22
TORSDOF 7
ENDMDL
