MODEL 1
REMARK VINA RESULT:      -6.1      0.000      0.000
REMARK  Name = pdb/CHEMBL3957446.pdb
REMARK                            x       y       z     vdW  Elec       q    Type
REMARK                         _______ _______ _______ _____ _____    ______ ____
ROOT
ATOM      1  C   LIG    1      -37.563  80.016  28.173  0.00  0.00    +0.042 A 
ATOM      2  C   LIG    1      -37.939  79.089  27.190  0.00  0.00    +0.042 A 
ATOM      3  C   LIG    1      -38.898  79.408  26.226  0.00  0.00    +0.086 A 
ATOM      4  C   LIG    1      -39.426  80.698  26.282  0.00  0.00    +0.138 A 
ATOM      5  N   LIG    1      -39.066  81.644  27.186  0.00  0.00    -0.260 NA
ATOM      6  C   LIG    1      -38.129  81.281  28.099  0.00  0.00    +0.122 A 
ENDROOT
BRANCH   1   7
ATOM      7  C   LIG    1      -36.554  79.628  29.197  0.00  0.00    +0.197 C 
ATOM      8  O   LIG    1      -36.543  80.244  30.271  0.00  0.00    -0.287 OA
BRANCH   7  16
ATOM      9  N   LIG    1      -34.546  76.564  28.920  0.00  0.00    -0.338 N 
ATOM     10  C   LIG    1      -33.821  77.373  28.050  0.00  0.00    +0.053 A 
ATOM     11  C   LIG    1      -32.708  77.128  27.233  0.00  0.00    +0.046 A 
ATOM     12  C   LIG    1      -32.236  78.200  26.492  0.00  0.00    +0.113 A 
ATOM     13  N   LIG    1      -32.737  79.447  26.546  0.00  0.00    -0.263 NA
ATOM     14  C   LIG    1      -33.811  79.685  27.340  0.00  0.00    +0.121 A 
ATOM     15  C   LIG    1      -34.408  78.651  28.084  0.00  0.00    +0.029 A 
ATOM     16  C   LIG    1      -35.569  78.581  28.923  0.00  0.00    +0.049 A 
ATOM     17  C   LIG    1      -35.648  77.270  29.355  0.00  0.00    +0.099 A 
BRANCH   9  19
ATOM     18  C   LIG    1      -35.238  74.630  30.386  0.00  0.00    +0.036 C 
ATOM     19  C   LIG    1      -34.214  75.180  29.350  0.00  0.00    +0.063 C 
ATOM     20  C   LIG    1      -32.846  75.164  30.068  0.00  0.00    +0.036 C 
BRANCH  19  21
ATOM     21  C   LIG    1      -34.212  74.215  28.137  0.00  0.00    +0.183 C 
BRANCH  21  22
ATOM     22  O   LIG    1      -35.435  74.301  27.405  0.00  0.00    -0.393 OA
ATOM     23  H   LIG    1      -35.493  73.512  26.839  0.00  0.00    +0.209 HD
ENDBRANCH  21  22
ENDBRANCH  19  21
ENDBRANCH   9  19
ENDBRANCH   7  16
ENDBRANCH   1   7
BRANCH   3  24
ATOM     24  N   LIG    1      -39.293  78.573  25.166  0.00  0.00    -0.216 NA
ATOM     25  C   LIG    1      -40.208  77.671  25.288  0.00  0.00    +0.192 C 
BRANCH  25  26
ATOM     26  O   LIG    1      -40.888  77.447  26.430  0.00  0.00    -0.495 OA
ATOM     27  H   LIG    1      -40.441  77.806  27.214  0.00  0.00    +0.293 HD
ENDBRANCH  25  26
BRANCH  25  28
ATOM     28  C   LIG    1      -40.589  76.784  24.127  0.00  0.00    +0.130 C 
BRANCH  28  29
ATOM     29  C   LIG    1      -40.032  75.388  24.262  0.00  0.00    -0.038 A 
ATOM     30  C   LIG    1      -40.770  74.282  23.822  0.00  0.00    +0.004 A 
ATOM     31  C   LIG    1      -40.228  72.998  23.902  0.00  0.00    +0.012 A 
ATOM     32  C   LIG    1      -38.945  72.795  24.434  0.00  0.00    +0.055 A 
ATOM     33  C   LIG    1      -38.218  73.902  24.891  0.00  0.00    +0.012 A 
ATOM     34  C   LIG    1      -38.757  75.187  24.807  0.00  0.00    +0.004 A 
BRANCH  32  35
ATOM     35  C   LIG    1      -38.376  71.399  24.500  0.00  0.00    +0.417 C 
ATOM     36  F   LIG    1      -37.069  71.356  24.117  0.00  0.00    -0.166 F 
ATOM     37  F   LIG    1      -39.034  70.529  23.686  0.00  0.00    -0.166 F 
ATOM     38  F   LIG    1      -38.416  70.850  25.747  0.00  0.00    -0.166 F 
ENDBRANCH  32  35
ENDBRANCH  28  29
ENDBRANCH  25  28
ENDBRANCH   3  24
TORSDOF 10
ENDMDL
MODEL 2
REMARK VINA RESULT:      -6.0     17.965     20.748
REMARK  Name = pdb/CHEMBL3957446.pdb
REMARK                            x       y       z     vdW  Elec       q    Type
REMARK                         _______ _______ _______ _____ _____    ______ ____
ROOT
ATOM      1  C   LIG    1      -22.854  82.095  14.524  0.00  0.00    +0.042 A 
ATOM      2  C   LIG    1      -22.757  80.766  14.084  0.00  0.00    +0.042 A 
ATOM      3  C   LIG    1      -22.481  79.729  14.978  0.00  0.00    +0.086 A 
ATOM      4  C   LIG    1      -22.340  80.089  16.318  0.00  0.00    +0.138 A 
ATOM      5  N   LIG    1      -22.465  81.352  16.800  0.00  0.00    -0.260 NA
ATOM      6  C   LIG    1      -22.735  82.321  15.888  0.00  0.00    +0.122 A 
ENDROOT
BRANCH   1   7
ATOM      7  C   LIG    1      -23.127  83.175  13.535  0.00  0.00    +0.197 C 
ATOM      8  O   LIG    1      -24.012  82.984  12.690  0.00  0.00    -0.287 OA
BRANCH   7  16
ATOM      9  N   LIG    1      -21.815  86.605  13.649  0.00  0.00    -0.338 N 
ATOM     10  C   LIG    1      -20.608  85.917  13.573  0.00  0.00    +0.053 A 
ATOM     11  C   LIG    1      -19.272  86.342  13.604  0.00  0.00    +0.046 A 
ATOM     12  C   LIG    1      -18.306  85.354  13.488  0.00  0.00    +0.113 A 
ATOM     13  N   LIG    1      -18.566  84.049  13.300  0.00  0.00    -0.263 NA
ATOM     14  C   LIG    1      -19.858  83.638  13.264  0.00  0.00    +0.121 A 
ATOM     15  C   LIG    1      -20.915  84.551  13.438  0.00  0.00    +0.029 A 
ATOM     16  C   LIG    1      -22.339  84.407  13.530  0.00  0.00    +0.049 A 
ATOM     17  C   LIG    1      -22.838  85.682  13.726  0.00  0.00    +0.099 A 
BRANCH   9  19
ATOM     18  C   LIG    1      -23.008  88.518  12.516  0.00  0.00    +0.036 C 
ATOM     19  C   LIG    1      -22.015  88.077  13.632  0.00  0.00    +0.063 C 
ATOM     20  C   LIG    1      -20.682  88.788  13.308  0.00  0.00    +0.036 C 
BRANCH  19  21
ATOM     21  C   LIG    1      -22.587  88.569  14.987  0.00  0.00    +0.183 C 
BRANCH  21  22
ATOM     22  O   LIG    1      -21.825  88.063  16.084  0.00  0.00    -0.393 OA
ATOM     23  H   LIG    1      -21.406  88.823  16.524  0.00  0.00    +0.209 HD
ENDBRANCH  21  22
ENDBRANCH  19  21
ENDBRANCH   9  19
ENDBRANCH   7  16
ENDBRANCH   1   7
BRANCH   3  24
ATOM     24  N   LIG    1      -22.429  78.364  14.646  0.00  0.00    -0.216 NA
ATOM     25  C   LIG    1      -21.332  77.684  14.645  0.00  0.00    +0.192 C 
BRANCH  25  26
ATOM     26  O   LIG    1      -20.132  78.202  14.975  0.00  0.00    -0.495 OA
ATOM     27  H   LIG    1      -19.929  79.022  14.496  0.00  0.00    +0.293 HD
ENDBRANCH  25  26
BRANCH  25  28
ATOM     28  C   LIG    1      -21.320  76.223  14.265  0.00  0.00    +0.130 C 
BRANCH  28  29
ATOM     29  C   LIG    1      -21.466  75.316  15.461  0.00  0.00    -0.038 A 
ATOM     30  C   LIG    1      -22.730  75.045  15.999  0.00  0.00    +0.004 A 
ATOM     31  C   LIG    1      -22.862  74.164  17.073  0.00  0.00    +0.012 A 
ATOM     32  C   LIG    1      -21.734  73.545  17.636  0.00  0.00    +0.055 A 
ATOM     33  C   LIG    1      -20.469  73.833  17.106  0.00  0.00    +0.012 A 
ATOM     34  C   LIG    1      -20.336  74.711  16.029  0.00  0.00    +0.004 A 
BRANCH  32  35
ATOM     35  C   LIG    1      -21.903  72.588  18.789  0.00  0.00    +0.417 C 
ATOM     36  F   LIG    1      -20.774  72.483  19.544  0.00  0.00    -0.166 F 
ATOM     37  F   LIG    1      -22.196  71.323  18.378  0.00  0.00    -0.166 F 
ATOM     38  F   LIG    1      -22.896  72.940  19.653  0.00  0.00    -0.166 F 
ENDBRANCH  32  35
ENDBRANCH  28  29
ENDBRANCH  25  28
ENDBRANCH   3  24
TORSDOF 10
ENDMDL
MODEL 3
REMARK VINA RESULT:      -6.0      3.188      5.826
REMARK  Name = pdb/CHEMBL3957446.pdb
REMARK                            x       y       z     vdW  Elec       q    Type
REMARK                         _______ _______ _______ _____ _____    ______ ____
ROOT
ATOM      1  C   LIG    1      -33.252  73.443  29.034  0.00  0.00    +0.042 A 
ATOM      2  C   LIG    1      -34.054  73.285  27.894  0.00  0.00    +0.042 A 
ATOM      3  C   LIG    1      -34.754  72.098  27.663  0.00  0.00    +0.086 A 
ATOM      4  C   LIG    1      -34.632  71.109  28.638  0.00  0.00    +0.138 A 
ATOM      5  N   LIG    1      -33.903  71.228  29.777  0.00  0.00    -0.260 NA
ATOM      6  C   LIG    1      -33.244  72.401  29.951  0.00  0.00    +0.122 A 
ENDROOT
BRANCH   1   7
ATOM      7  C   LIG    1      -32.503  74.715  29.231  0.00  0.00    +0.197 C 
ATOM      8  O   LIG    1      -31.290  74.649  29.470  0.00  0.00    -0.287 OA
BRANCH   7  16
ATOM      9  N   LIG    1      -34.523  77.731  29.795  0.00  0.00    -0.338 N 
ATOM     10  C   LIG    1      -33.828  78.149  28.664  0.00  0.00    +0.053 A 
ATOM     11  C   LIG    1      -33.806  79.361  27.959  0.00  0.00    +0.046 A 
ATOM     12  C   LIG    1      -32.983  79.413  26.845  0.00  0.00    +0.113 A 
ATOM     13  N   LIG    1      -32.260  78.380  26.379  0.00  0.00    -0.263 NA
ATOM     14  C   LIG    1      -32.285  77.206  27.058  0.00  0.00    +0.121 A 
ATOM     15  C   LIG    1      -33.037  77.066  28.239  0.00  0.00    +0.029 A 
ATOM     16  C   LIG    1      -33.191  76.006  29.193  0.00  0.00    +0.049 A 
ATOM     17  C   LIG    1      -34.055  76.486  30.160  0.00  0.00    +0.099 A 
BRANCH   9  19
ATOM     18  C   LIG    1      -36.252  77.595  31.627  0.00  0.00    +0.036 C 
ATOM     19  C   LIG    1      -35.605  78.461  30.508  0.00  0.00    +0.063 C 
ATOM     20  C   LIG    1      -36.750  78.797  29.526  0.00  0.00    +0.036 C 
BRANCH  19  21
ATOM     21  C   LIG    1      -35.053  79.748  31.173  0.00  0.00    +0.183 C 
BRANCH  21  22
ATOM     22  O   LIG    1      -34.125  79.435  32.213  0.00  0.00    -0.393 OA
ATOM     23  H   LIG    1      -34.639  79.262  33.021  0.00  0.00    +0.209 HD
ENDBRANCH  21  22
ENDBRANCH  19  21
ENDBRANCH   9  19
ENDBRANCH   7  16
ENDBRANCH   1   7
BRANCH   3  24
ATOM     24  N   LIG    1      -35.631  71.870  26.588  0.00  0.00    -0.216 NA
ATOM     25  C   LIG    1      -36.896  72.116  26.652  0.00  0.00    +0.192 C 
BRANCH  25  26
ATOM     26  O   LIG    1      -37.504  72.628  27.741  0.00  0.00    -0.495 OA
ATOM     27  H   LIG    1      -37.555  71.998  28.477  0.00  0.00    +0.293 HD
ENDBRANCH  25  26
BRANCH  25  28
ATOM     28  C   LIG    1      -37.805  71.840  25.478  0.00  0.00    +0.130 C 
BRANCH  28  29
ATOM     29  C   LIG    1      -38.489  73.087  24.973  0.00  0.00    -0.038 A 
ATOM     30  C   LIG    1      -39.749  73.011  24.367  0.00  0.00    +0.004 A 
ATOM     31  C   LIG    1      -40.399  74.173  23.949  0.00  0.00    +0.012 A 
ATOM     32  C   LIG    1      -39.797  75.430  24.119  0.00  0.00    +0.055 A 
ATOM     33  C   LIG    1      -38.528  75.500  24.709  0.00  0.00    +0.012 A 
ATOM     34  C   LIG    1      -37.880  74.339  25.132  0.00  0.00    +0.004 A 
BRANCH  32  35
ATOM     35  C   LIG    1      -40.524  76.674  23.670  0.00  0.00    +0.417 C 
ATOM     36  F   LIG    1      -41.147  77.309  24.701  0.00  0.00    -0.166 F 
ATOM     37  F   LIG    1      -41.495  76.408  22.753  0.00  0.00    -0.166 F 
ATOM     38  F   LIG    1      -39.712  77.605  23.095  0.00  0.00    -0.166 F 
ENDBRANCH  32  35
ENDBRANCH  28  29
ENDBRANCH  25  28
ENDBRANCH   3  24
TORSDOF 10
ENDMDL
MODEL 4
REMARK VINA RESULT:      -6.0      3.852      6.611
REMARK  Name = pdb/CHEMBL3957446.pdb
REMARK                            x       y       z     vdW  Elec       q    Type
REMARK                         _______ _______ _______ _____ _____    ______ ____
ROOT
ATOM      1  C   LIG    1      -34.263  71.413  28.963  0.00  0.00    +0.042 A 
ATOM      2  C   LIG    1      -35.464  71.560  28.253  0.00  0.00    +0.042 A 
ATOM      3  C   LIG    1      -35.820  70.662  27.244  0.00  0.00    +0.086 A 
ATOM      4  C   LIG    1      -34.936  69.608  27.014  0.00  0.00    +0.138 A 
ATOM      5  N   LIG    1      -33.784  69.399  27.701  0.00  0.00    -0.260 NA
ATOM      6  C   LIG    1      -33.487  70.301  28.670  0.00  0.00    +0.122 A 
ENDROOT
BRANCH   1   7
ATOM      7  C   LIG    1      -33.910  72.406  30.016  0.00  0.00    +0.197 C 
ATOM      8  O   LIG    1      -34.122  72.106  31.198  0.00  0.00    -0.287 OA
BRANCH   7  16
ATOM      9  N   LIG    1      -33.218  75.788  28.760  0.00  0.00    -0.338 N 
ATOM     10  C   LIG    1      -32.103  75.632  29.578  0.00  0.00    +0.053 A 
ATOM     11  C   LIG    1      -31.049  76.493  29.918  0.00  0.00    +0.046 A 
ATOM     12  C   LIG    1      -30.084  75.982  30.771  0.00  0.00    +0.113 A 
ATOM     13  N   LIG    1      -30.069  74.722  31.242  0.00  0.00    -0.263 NA
ATOM     14  C   LIG    1      -31.086  73.888  30.909  0.00  0.00    +0.121 A 
ATOM     15  C   LIG    1      -32.151  74.328  30.101  0.00  0.00    +0.029 A 
ATOM     16  C   LIG    1      -33.372  73.719  29.661  0.00  0.00    +0.049 A 
ATOM     17  C   LIG    1      -34.021  74.676  28.901  0.00  0.00    +0.099 A 
BRANCH   9  19
ATOM     18  C   LIG    1      -33.804  78.240  28.653  0.00  0.00    +0.036 C 
ATOM     19  C   LIG    1      -33.521  76.931  27.859  0.00  0.00    +0.063 C 
ATOM     20  C   LIG    1      -34.810  76.644  27.057  0.00  0.00    +0.036 C 
BRANCH  19  21
ATOM     21  C   LIG    1      -32.330  77.210  26.907  0.00  0.00    +0.183 C 
BRANCH  21  22
ATOM     22  O   LIG    1      -32.678  78.175  25.913  0.00  0.00    -0.393 OA
ATOM     23  H   LIG    1      -32.803  79.027  26.364  0.00  0.00    +0.209 HD
ENDBRANCH  21  22
ENDBRANCH  19  21
ENDBRANCH   9  19
ENDBRANCH   7  16
ENDBRANCH   1   7
BRANCH   3  24
ATOM     24  N   LIG    1      -37.027  70.688  26.523  0.00  0.00    -0.216 NA
ATOM     25  C   LIG    1      -37.103  71.091  25.299  0.00  0.00    +0.192 C 
BRANCH  25  26
ATOM     26  O   LIG    1      -36.041  71.511  24.583  0.00  0.00    -0.495 OA
ATOM     27  H   LIG    1      -35.744  70.858  23.929  0.00  0.00    +0.293 HD
ENDBRANCH  25  26
BRANCH  25  28
ATOM     28  C   LIG    1      -38.424  71.118  24.568  0.00  0.00    +0.130 C 
BRANCH  28  29
ATOM     29  C   LIG    1      -38.989  72.512  24.451  0.00  0.00    -0.038 A 
ATOM     30  C   LIG    1      -38.261  73.616  24.911  0.00  0.00    +0.004 A 
ATOM     31  C   LIG    1      -38.766  74.908  24.753  0.00  0.00    +0.012 A 
ATOM     32  C   LIG    1      -40.012  75.119  24.141  0.00  0.00    +0.055 A 
ATOM     33  C   LIG    1      -40.746  74.010  23.698  0.00  0.00    +0.012 A 
ATOM     34  C   LIG    1      -40.239  72.718  23.852  0.00  0.00    +0.004 A 
BRANCH  32  35
ATOM     35  C   LIG    1      -40.533  76.524  23.970  0.00  0.00    +0.417 C 
ATOM     36  F   LIG    1      -41.699  76.560  23.266  0.00  0.00    -0.166 F 
ATOM     37  F   LIG    1      -39.663  77.324  23.293  0.00  0.00    -0.166 F 
ATOM     38  F   LIG    1      -40.789  77.160  25.147  0.00  0.00    -0.166 F 
ENDBRANCH  32  35
ENDBRANCH  28  29
ENDBRANCH  25  28
ENDBRANCH   3  24
TORSDOF 10
ENDMDL
MODEL 5
REMARK VINA RESULT:      -5.8     15.033     18.222
REMARK  Name = pdb/CHEMBL3957446.pdb
REMARK                            x       y       z     vdW  Elec       q    Type
REMARK                         _______ _______ _______ _____ _____    ______ ____
ROOT
ATOM      1  C   LIG    1      -26.837  74.904  13.170  0.00  0.00    +0.042 A 
ATOM      2  C   LIG    1      -26.033  76.032  13.395  0.00  0.00    +0.042 A 
ATOM      3  C   LIG    1      -26.545  77.323  13.254  0.00  0.00    +0.086 A 
ATOM      4  C   LIG    1      -27.894  77.420  12.913  0.00  0.00    +0.138 A 
ATOM      5  N   LIG    1      -28.724  76.362  12.726  0.00  0.00    -0.260 NA
ATOM      6  C   LIG    1      -28.175  75.130  12.876  0.00  0.00    +0.122 A 
ENDROOT
BRANCH   1   7
ATOM      7  C   LIG    1      -26.246  73.544  13.308  0.00  0.00    +0.197 C 
ATOM      8  O   LIG    1      -25.640  73.069  12.338  0.00  0.00    -0.287 OA
BRANCH   7  16
ATOM      9  N   LIG    1      -27.369  71.459  16.116  0.00  0.00    -0.338 N 
ATOM     10  C   LIG    1      -26.040  71.625  16.492  0.00  0.00    +0.053 A 
ATOM     11  C   LIG    1      -25.285  71.115  17.559  0.00  0.00    +0.046 A 
ATOM     12  C   LIG    1      -23.960  71.513  17.625  0.00  0.00    +0.113 A 
ATOM     13  N   LIG    1      -23.378  72.381  16.778  0.00  0.00    -0.263 NA
ATOM     14  C   LIG    1      -24.109  72.878  15.749  0.00  0.00    +0.121 A 
ATOM     15  C   LIG    1      -25.446  72.487  15.552  0.00  0.00    +0.029 A 
ATOM     16  C   LIG    1      -26.418  72.770  14.537  0.00  0.00    +0.049 A 
ATOM     17  C   LIG    1      -27.555  72.065  14.891  0.00  0.00    +0.099 A 
BRANCH   9  19
ATOM     18  C   LIG    1      -28.165  69.249  17.037  0.00  0.00    +0.036 C 
ATOM     19  C   LIG    1      -28.442  70.773  16.882  0.00  0.00    +0.063 C 
ATOM     20  C   LIG    1      -29.783  70.877  16.121  0.00  0.00    +0.036 C 
BRANCH  19  21
ATOM     21  C   LIG    1      -28.568  71.372  18.307  0.00  0.00    +0.183 C 
BRANCH  21  22
ATOM     22  O   LIG    1      -29.037  72.720  18.261  0.00  0.00    -0.393 OA
ATOM     23  H   LIG    1      -29.420  72.926  19.131  0.00  0.00    +0.209 HD
ENDBRANCH  21  22
ENDBRANCH  19  21
ENDBRANCH   9  19
ENDBRANCH   7  16
ENDBRANCH   1   7
BRANCH   3  24
ATOM     24  N   LIG    1      -25.839  78.510  13.520  0.00  0.00    -0.216 NA
ATOM     25  C   LIG    1      -25.763  79.031  14.698  0.00  0.00    +0.192 C 
BRANCH  25  26
ATOM     26  O   LIG    1      -26.335  78.490  15.792  0.00  0.00    -0.495 OA
ATOM     27  H   LIG    1      -26.745  77.627  15.618  0.00  0.00    +0.293 HD
ENDBRANCH  25  26
BRANCH  25  28
ATOM     28  C   LIG    1      -25.007  80.316  14.935  0.00  0.00    +0.130 C 
BRANCH  28  29
ATOM     29  C   LIG    1      -23.571  80.075  15.331  0.00  0.00    -0.038 A 
ATOM     30  C   LIG    1      -22.897  78.926  14.899  0.00  0.00    +0.004 A 
ATOM     31  C   LIG    1      -21.554  78.734  15.226  0.00  0.00    +0.012 A 
ATOM     32  C   LIG    1      -20.863  79.681  15.999  0.00  0.00    +0.055 A 
ATOM     33  C   LIG    1      -21.546  80.820  16.445  0.00  0.00    +0.012 A 
ATOM     34  C   LIG    1      -22.889  81.015  16.115  0.00  0.00    +0.004 A 
BRANCH  32  35
ATOM     35  C   LIG    1      -19.408  79.458  16.330  0.00  0.00    +0.417 C 
ATOM     36  F   LIG    1      -19.244  78.687  17.441  0.00  0.00    -0.166 F 
ATOM     37  F   LIG    1      -18.747  80.622  16.581  0.00  0.00    -0.166 F 
ATOM     38  F   LIG    1      -18.709  78.837  15.339  0.00  0.00    -0.166 F 
ENDBRANCH  32  35
ENDBRANCH  28  29
ENDBRANCH  25  28
ENDBRANCH   3  24
TORSDOF 10
ENDMDL
MODEL 6
REMARK VINA RESULT:      -5.8      1.594      1.941
REMARK  Name = pdb/CHEMBL3957446.pdb
REMARK                            x       y       z     vdW  Elec       q    Type
REMARK                         _______ _______ _______ _____ _____    ______ ____
ROOT
ATOM      1  C   LIG    1      -37.063  79.448  29.547  0.00  0.00    +0.042 A 
ATOM      2  C   LIG    1      -37.215  78.911  28.260  0.00  0.00    +0.042 A 
ATOM      3  C   LIG    1      -38.443  78.962  27.597  0.00  0.00    +0.086 A 
ATOM      4  C   LIG    1      -39.484  79.598  28.272  0.00  0.00    +0.138 A 
ATOM      5  N   LIG    1      -39.378  80.169  29.499  0.00  0.00    -0.260 NA
ATOM      6  C   LIG    1      -38.163  80.092  30.098  0.00  0.00    +0.122 A 
ENDROOT
BRANCH   1   7
ATOM      7  C   LIG    1      -35.743  79.353  30.229  0.00  0.00    +0.197 C 
ATOM      8  O   LIG    1      -35.534  80.085  31.205  0.00  0.00    -0.287 OA
BRANCH   7  16
ATOM      9  N   LIG    1      -33.361  76.643  29.534  0.00  0.00    -0.338 N 
ATOM     10  C   LIG    1      -33.091  77.452  28.434  0.00  0.00    +0.053 A 
ATOM     11  C   LIG    1      -32.241  77.296  27.330  0.00  0.00    +0.046 A 
ATOM     12  C   LIG    1      -32.219  78.337  26.414  0.00  0.00    +0.113 A 
ATOM     13  N   LIG    1      -32.910  79.484  26.544  0.00  0.00    -0.263 NA
ATOM     14  C   LIG    1      -33.728  79.636  27.614  0.00  0.00    +0.121 A 
ATOM     15  C   LIG    1      -33.873  78.613  28.570  0.00  0.00    +0.029 A 
ATOM     16  C   LIG    1      -34.701  78.455  29.729  0.00  0.00    +0.049 A 
ATOM     17  C   LIG    1      -34.400  77.207  30.245  0.00  0.00    +0.099 A 
BRANCH   9  19
ATOM     18  C   LIG    1      -32.988  74.215  28.959  0.00  0.00    +0.036 C 
ATOM     19  C   LIG    1      -32.661  75.391  29.925  0.00  0.00    +0.063 C 
ATOM     20  C   LIG    1      -33.142  74.931  31.319  0.00  0.00    +0.036 C 
BRANCH  19  21
ATOM     21  C   LIG    1      -31.124  75.594  29.911  0.00  0.00    +0.183 C 
BRANCH  21  22
ATOM     22  O   LIG    1      -30.729  76.613  30.831  0.00  0.00    -0.393 OA
ATOM     23  H   LIG    1      -30.463  77.390  30.310  0.00  0.00    +0.209 HD
ENDBRANCH  21  22
ENDBRANCH  19  21
ENDBRANCH   9  19
ENDBRANCH   7  16
ENDBRANCH   1   7
BRANCH   3  24
ATOM     24  N   LIG    1      -38.676  78.512  26.285  0.00  0.00    -0.216 NA
ATOM     25  C   LIG    1      -39.278  77.401  26.023  0.00  0.00    +0.192 C 
BRANCH  25  26
ATOM     26  O   LIG    1      -39.757  76.569  26.969  0.00  0.00    -0.495 OA
ATOM     27  H   LIG    1      -39.934  75.676  26.633  0.00  0.00    +0.293 HD
ENDBRANCH  25  26
BRANCH  25  28
ATOM     28  C   LIG    1      -39.493  76.948  24.599  0.00  0.00    +0.130 C 
BRANCH  28  29
ATOM     29  C   LIG    1      -39.532  75.445  24.472  0.00  0.00    -0.038 A 
ATOM     30  C   LIG    1      -40.678  74.801  23.988  0.00  0.00    +0.004 A 
ATOM     31  C   LIG    1      -40.690  73.415  23.825  0.00  0.00    +0.012 A 
ATOM     32  C   LIG    1      -39.562  72.646  24.152  0.00  0.00    +0.055 A 
ATOM     33  C   LIG    1      -38.424  73.292  24.654  0.00  0.00    +0.012 A 
ATOM     34  C   LIG    1      -38.409  74.679  24.813  0.00  0.00    +0.004 A 
BRANCH  32  35
ATOM     35  C   LIG    1      -39.593  71.151  23.956  0.00  0.00    +0.417 C 
ATOM     36  F   LIG    1      -40.168  70.504  25.009  0.00  0.00    -0.166 F 
ATOM     37  F   LIG    1      -38.348  70.616  23.823  0.00  0.00    -0.166 F 
ATOM     38  F   LIG    1      -40.290  70.757  22.853  0.00  0.00    -0.166 F 
ENDBRANCH  32  35
ENDBRANCH  28  29
ENDBRANCH  25  28
ENDBRANCH   3  24
TORSDOF 10
ENDMDL
MODEL 7
REMARK VINA RESULT:      -5.7     17.879     20.915
REMARK  Name = pdb/CHEMBL3957446.pdb
REMARK                            x       y       z     vdW  Elec       q    Type
REMARK                         _______ _______ _______ _____ _____    ______ ____
ROOT
ATOM      1  C   LIG    1      -20.551  81.834  14.829  0.00  0.00    +0.042 A 
ATOM      2  C   LIG    1      -20.114  80.515  14.636  0.00  0.00    +0.042 A 
ATOM      3  C   LIG    1      -20.531  79.486  15.483  0.00  0.00    +0.086 A 
ATOM      4  C   LIG    1      -21.421  79.842  16.497  0.00  0.00    +0.138 A 
ATOM      5  N   LIG    1      -21.905  81.093  16.700  0.00  0.00    -0.260 NA
ATOM      6  C   LIG    1      -21.468  82.055  15.847  0.00  0.00    +0.122 A 
ENDROOT
BRANCH   1   7
ATOM      7  C   LIG    1      -20.064  82.907  13.918  0.00  0.00    +0.197 C 
ATOM      8  O   LIG    1      -18.907  82.826  13.485  0.00  0.00    -0.287 OA
BRANCH   7  16
ATOM      9  N   LIG    1      -21.601  86.188  13.308  0.00  0.00    -0.338 N 
ATOM     10  C   LIG    1      -22.586  85.383  12.744  0.00  0.00    +0.053 A 
ATOM     11  C   LIG    1      -23.779  85.677  12.068  0.00  0.00    +0.046 A 
ATOM     12  C   LIG    1      -24.535  84.595  11.646  0.00  0.00    +0.113 A 
ATOM     13  N   LIG    1      -24.227  83.308  11.885  0.00  0.00    -0.263 NA
ATOM     14  C   LIG    1      -23.075  83.023  12.542  0.00  0.00    +0.121 A 
ATOM     15  C   LIG    1      -22.203  84.046  12.957  0.00  0.00    +0.029 A 
ATOM     16  C   LIG    1      -20.912  84.051  13.581  0.00  0.00    +0.049 A 
ATOM     17  C   LIG    1      -20.558  85.381  13.713  0.00  0.00    +0.099 A 
BRANCH   9  19
ATOM     18  C   LIG    1      -21.935  88.402  12.146  0.00  0.00    +0.036 C 
ATOM     19  C   LIG    1      -21.636  87.663  13.483  0.00  0.00    +0.063 C 
ATOM     20  C   LIG    1      -20.251  88.173  13.941  0.00  0.00    +0.036 C 
BRANCH  19  21
ATOM     21  C   LIG    1      -22.736  88.070  14.498  0.00  0.00    +0.183 C 
BRANCH  21  22
ATOM     22  O   LIG    1      -22.185  88.812  15.587  0.00  0.00    -0.393 OA
ATOM     23  H   LIG    1      -21.299  89.110  15.319  0.00  0.00    +0.209 HD
ENDBRANCH  21  22
ENDBRANCH  19  21
ENDBRANCH   9  19
ENDBRANCH   7  16
ENDBRANCH   1   7
BRANCH   3  24
ATOM     24  N   LIG    1      -20.201  78.127  15.333  0.00  0.00    -0.216 NA
ATOM     25  C   LIG    1      -20.892  77.316  14.605  0.00  0.00    +0.192 C 
BRANCH  25  26
ATOM     26  O   LIG    1      -21.984  77.683  13.907  0.00  0.00    -0.495 OA
ATOM     27  H   LIG    1      -22.180  78.631  13.982  0.00  0.00    +0.293 HD
ENDBRANCH  25  26
BRANCH  25  28
ATOM     28  C   LIG    1      -20.510  75.860  14.485  0.00  0.00    +0.130 C 
BRANCH  28  29
ATOM     29  C   LIG    1      -20.999  75.038  15.652  0.00  0.00    -0.038 A 
ATOM     30  C   LIG    1      -22.364  74.977  15.958  0.00  0.00    +0.004 A 
ATOM     31  C   LIG    1      -22.814  74.174  17.007  0.00  0.00    +0.012 A 
ATOM     32  C   LIG    1      -21.908  73.426  17.776  0.00  0.00    +0.055 A 
ATOM     33  C   LIG    1      -20.541  73.504  17.478  0.00  0.00    +0.012 A 
ATOM     34  C   LIG    1      -20.090  74.303  16.426  0.00  0.00    +0.004 A 
BRANCH  32  35
ATOM     35  C   LIG    1      -22.419  72.556  18.897  0.00  0.00    +0.417 C 
ATOM     36  F   LIG    1      -23.230  71.558  18.448  0.00  0.00    -0.166 F 
ATOM     37  F   LIG    1      -23.154  73.255  19.806  0.00  0.00    -0.166 F 
ATOM     38  F   LIG    1      -21.431  71.941  19.607  0.00  0.00    -0.166 F 
ENDBRANCH  32  35
ENDBRANCH  28  29
ENDBRANCH  25  28
ENDBRANCH   3  24
TORSDOF 10
ENDMDL
MODEL 8
REMARK VINA RESULT:      -5.7     16.915     20.181
REMARK  Name = pdb/CHEMBL3957446.pdb
REMARK                            x       y       z     vdW  Elec       q    Type
REMARK                         _______ _______ _______ _____ _____    ______ ____
ROOT
ATOM      1  C   LIG    1      -20.627  80.542  15.653  0.00  0.00    +0.042 A 
ATOM      2  C   LIG    1      -20.315  79.181  15.797  0.00  0.00    +0.042 A 
ATOM      3  C   LIG    1      -19.016  78.713  15.588  0.00  0.00    +0.086 A 
ATOM      4  C   LIG    1      -18.058  79.673  15.263  0.00  0.00    +0.138 A 
ATOM      5  N   LIG    1      -18.299  81.004  15.153  0.00  0.00    -0.260 NA
ATOM      6  C   LIG    1      -19.578  81.404  15.367  0.00  0.00    +0.122 A 
ENDROOT
BRANCH   1   7
ATOM      7  C   LIG    1      -22.029  80.997  15.862  0.00  0.00    +0.197 C 
ATOM      8  O   LIG    1      -22.325  81.500  16.955  0.00  0.00    -0.287 OA
BRANCH   7  16
ATOM      9  N   LIG    1      -24.128  80.983  12.847  0.00  0.00    -0.338 N 
ATOM     10  C   LIG    1      -24.821  80.035  13.593  0.00  0.00    +0.053 A 
ATOM     11  C   LIG    1      -25.935  79.232  13.307  0.00  0.00    +0.046 A 
ATOM     12  C   LIG    1      -26.368  78.391  14.319  0.00  0.00    +0.113 A 
ATOM     13  N   LIG    1      -25.830  78.335  15.550  0.00  0.00    -0.263 NA
ATOM     14  C   LIG    1      -24.755  79.115  15.829  0.00  0.00    +0.121 A 
ATOM     15  C   LIG    1      -24.195  79.957  14.850  0.00  0.00    +0.029 A 
ATOM     16  C   LIG    1      -23.044  80.811  14.824  0.00  0.00    +0.049 A 
ATOM     17  C   LIG    1      -23.008  81.363  13.556  0.00  0.00    +0.099 A 
BRANCH   9  19
ATOM     18  C   LIG    1      -24.704  80.414  10.457  0.00  0.00    +0.036 C 
ATOM     19  C   LIG    1      -24.505  81.535  11.519  0.00  0.00    +0.063 C 
ATOM     20  C   LIG    1      -23.367  82.427  10.975  0.00  0.00    +0.036 C 
BRANCH  19  21
ATOM     21  C   LIG    1      -25.833  82.330  11.612  0.00  0.00    +0.183 C 
BRANCH  21  22
ATOM     22  O   LIG    1      -25.892  83.097  12.816  0.00  0.00    -0.393 OA
ATOM     23  H   LIG    1      -25.008  83.074  13.220  0.00  0.00    +0.209 HD
ENDBRANCH  21  22
ENDBRANCH  19  21
ENDBRANCH   9  19
ENDBRANCH   7  16
ENDBRANCH   1   7
BRANCH   3  24
ATOM     24  N   LIG    1      -18.594  77.384  15.771  0.00  0.00    -0.216 NA
ATOM     25  C   LIG    1      -18.176  76.932  16.906  0.00  0.00    +0.192 C 
BRANCH  25  26
ATOM     26  O   LIG    1      -18.116  77.675  18.029  0.00  0.00    -0.495 OA
ATOM     27  H   LIG    1      -18.593  77.274  18.774  0.00  0.00    +0.293 HD
ENDBRANCH  25  26
BRANCH  25  28
ATOM     28  C   LIG    1      -17.716  75.502  17.054  0.00  0.00    +0.130 C 
BRANCH  28  29
ATOM     29  C   LIG    1      -18.850  74.563  17.382  0.00  0.00    -0.038 A 
ATOM     30  C   LIG    1      -18.764  73.699  18.480  0.00  0.00    +0.004 A 
ATOM     31  C   LIG    1      -19.837  72.870  18.809  0.00  0.00    +0.012 A 
ATOM     32  C   LIG    1      -21.012  72.881  18.040  0.00  0.00    +0.055 A 
ATOM     33  C   LIG    1      -21.087  73.733  16.930  0.00  0.00    +0.012 A 
ATOM     34  C   LIG    1      -20.016  74.566  16.603  0.00  0.00    +0.004 A 
BRANCH  32  35
ATOM     35  C   LIG    1      -22.164  71.984  18.420  0.00  0.00    +0.417 C 
ATOM     36  F   LIG    1      -23.317  72.323  17.779  0.00  0.00    -0.166 F 
ATOM     37  F   LIG    1      -22.447  72.036  19.751  0.00  0.00    -0.166 F 
ATOM     38  F   LIG    1      -21.952  70.668  18.134  0.00  0.00    -0.166 F 
ENDBRANCH  32  35
ENDBRANCH  28  29
ENDBRANCH  25  28
ENDBRANCH   3  24
TORSDOF 10
ENDMDL
MODEL 9
REMARK VINA RESULT:      -5.7     20.067     23.306
REMARK  Name = pdb/CHEMBL3957446.pdb
REMARK                            x       y       z     vdW  Elec       q    Type
REMARK                         _______ _______ _______ _____ _____    ______ ____
ROOT
ATOM      1  C   LIG    1      -21.302  86.771  14.294  0.00  0.00    +0.042 A 
ATOM      2  C   LIG    1      -21.905  87.815  13.576  0.00  0.00    +0.042 A 
ATOM      3  C   LIG    1      -21.146  88.681  12.786  0.00  0.00    +0.086 A 
ATOM      4  C   LIG    1      -19.775  88.426  12.731  0.00  0.00    +0.138 A 
ATOM      5  N   LIG    1      -19.150  87.406  13.373  0.00  0.00    -0.260 NA
ATOM      6  C   LIG    1      -19.936  86.595  14.126  0.00  0.00    +0.122 A 
ENDROOT
BRANCH   1   7
ATOM      7  C   LIG    1      -22.145  85.885  15.143  0.00  0.00    +0.197 C 
ATOM      8  O   LIG    1      -22.429  86.267  16.287  0.00  0.00    -0.287 OA
BRANCH   7  16
ATOM      9  N   LIG    1      -23.293  82.948  13.259  0.00  0.00    -0.338 N 
ATOM     10  C   LIG    1      -23.041  82.332  14.481  0.00  0.00    +0.053 A 
ATOM     11  C   LIG    1      -23.110  80.995  14.901  0.00  0.00    +0.046 A 
ATOM     12  C   LIG    1      -22.790  80.746  16.226  0.00  0.00    +0.113 A 
ATOM     13  N   LIG    1      -22.475  81.693  17.128  0.00  0.00    -0.263 NA
ATOM     14  C   LIG    1      -22.413  82.986  16.723  0.00  0.00    +0.121 A 
ATOM     15  C   LIG    1      -22.655  83.340  15.383  0.00  0.00    +0.029 A 
ATOM     16  C   LIG    1      -22.585  84.576  14.660  0.00  0.00    +0.049 A 
ATOM     17  C   LIG    1      -22.918  84.272  13.352  0.00  0.00    +0.099 A 
BRANCH   9  19
ATOM     18  C   LIG    1      -23.091  81.070  11.586  0.00  0.00    +0.036 C 
ATOM     19  C   LIG    1      -23.884  82.329  12.044  0.00  0.00    +0.063 C 
ATOM     20  C   LIG    1      -23.814  83.319  10.859  0.00  0.00    +0.036 C 
BRANCH  19  21
ATOM     21  C   LIG    1      -25.347  81.888  12.308  0.00  0.00    +0.183 C 
BRANCH  21  22
ATOM     22  O   LIG    1      -26.153  82.993  12.719  0.00  0.00    -0.393 OA
ATOM     23  H   LIG    1      -26.850  82.646  13.302  0.00  0.00    +0.209 HD
ENDBRANCH  21  22
ENDBRANCH  19  21
ENDBRANCH   9  19
ENDBRANCH   7  16
ENDBRANCH   1   7
BRANCH   3  24
ATOM     24  N   LIG    1      -21.664  89.711  11.982  0.00  0.00    -0.216 NA
ATOM     25  C   LIG    1      -22.221  89.493  10.838  0.00  0.00    +0.192 C 
BRANCH  25  26
ATOM     26  O   LIG    1      -22.376  88.265  10.304  0.00  0.00    -0.495 OA
ATOM     27  H   LIG    1      -23.005  88.251   9.564  0.00  0.00    +0.293 HD
ENDBRANCH  25  26
BRANCH  25  28
ATOM     28  C   LIG    1      -22.750  90.631   9.999  0.00  0.00    +0.130 C 
BRANCH  28  29
ATOM     29  C   LIG    1      -23.819  91.423  10.711  0.00  0.00    -0.038 A 
ATOM     30  C   LIG    1      -23.823  92.822  10.656  0.00  0.00    +0.004 A 
ATOM     31  C   LIG    1      -24.844  93.547  11.274  0.00  0.00    +0.012 A 
ATOM     32  C   LIG    1      -25.872  92.888  11.966  0.00  0.00    +0.055 A 
ATOM     33  C   LIG    1      -25.854  91.488  12.034  0.00  0.00    +0.012 A 
ATOM     34  C   LIG    1      -24.836  90.763  11.413  0.00  0.00    +0.004 A 
BRANCH  32  35
ATOM     35  C   LIG    1      -26.971  93.692  12.616  0.00  0.00    +0.417 C 
ATOM     36  F   LIG    1      -26.484  94.656  13.445  0.00  0.00    -0.166 F 
ATOM     37  F   LIG    1      -27.796  92.924  13.380  0.00  0.00    -0.166 F 
ATOM     38  F   LIG    1      -27.777  94.337  11.727  0.00  0.00    -0.166 F 
ENDBRANCH  32  35
ENDBRANCH  28  29
ENDBRANCH  25  28
ENDBRANCH   3  24
TORSDOF 10
ENDMDL
