MODEL 1
REMARK VINA RESULT:      -5.8      0.000      0.000
REMARK  Name = pdb/CHEMBL3676081.pdb
REMARK                            x       y       z     vdW  Elec       q    Type
REMARK                         _______ _______ _______ _____ _____    ______ ____
ROOT
ATOM      1  C   LIG    1      -20.422  77.039  30.683  0.00  0.00    +0.100 A 
ATOM      2  C   LIG    1      -20.123  77.724  31.847  0.00  0.00    +0.170 A 
ATOM      3  N   LIG    1      -20.918  78.316  32.797  0.00  0.00    -0.212 NA
ATOM      4  C   LIG    1      -20.329  78.930  33.807  0.00  0.00    +0.126 A 
ATOM      5  C   LIG    1      -18.823  78.994  33.926  0.00  0.00    +0.063 A 
ATOM      6  C   LIG    1      -18.099  78.396  32.974  0.00  0.00    +0.118 A 
ATOM      7  N   LIG    1      -18.729  77.757  31.923  0.00  0.00    -0.221 N 
ATOM      8  N   LIG    1      -18.142  77.136  30.876  0.00  0.00    -0.173 NA
ATOM      9  C   LIG    1      -19.163  76.726  30.128  0.00  0.00    +0.150 A 
ENDROOT
BRANCH   4  10
ATOM     10  N   LIG    1      -21.127  79.539  34.773  0.00  0.00    -0.305 N 
ATOM     11  C   LIG    1      -22.532  79.905  34.526  0.00  0.00    +0.108 C 
ATOM     12  C   LIG    1      -22.809  81.123  35.420  0.00  0.00    +0.060 C 
ATOM     13  C   LIG    1      -21.723  81.093  36.482  0.00  0.00    +0.134 C 
ATOM     14  C   LIG    1      -20.534  80.443  35.769  0.00  0.00    +0.138 C 
BRANCH  11  15
ATOM     15  C   LIG    1      -23.496  78.754  34.755  0.00  0.00    -0.024 A 
ATOM     16  C   LIG    1      -24.730  78.654  34.096  0.00  0.00    +0.043 A 
ATOM     17  C   LIG    1      -25.586  77.587  34.360  0.00  0.00    +0.124 A 
ATOM     18  F   LIG    1      -26.758  77.512  33.718  0.00  0.00    -0.205 F 
ATOM     19  C   LIG    1      -25.251  76.610  35.287  0.00  0.00    +0.038 A 
ATOM     20  C   LIG    1      -24.036  76.697  35.962  0.00  0.00    +0.003 A 
ATOM     21  C   LIG    1      -23.163  77.756  35.693  0.00  0.00    +0.005 A 
ENDBRANCH  11  15
BRANCH  13  22
ATOM     22  O   LIG    1      -22.160  80.364  37.624  0.00  0.00    -0.390 OA
ATOM     23  H   LIG    1      -22.494  80.992  38.287  0.00  0.00    +0.210 HD
ENDBRANCH  13  22
ENDBRANCH   4  10
BRANCH   1  26
ATOM     24  N   LIG    1      -22.779  76.779  30.976  0.00  0.00    -0.300 N 
ATOM     25  H   LIG    1      -22.573  76.990  31.953  0.00  0.00    +0.150 HD
ATOM     26  C   LIG    1      -21.713  76.721  30.114  0.00  0.00    +0.250 C 
ATOM     27  O   LIG    1      -21.850  76.438  28.923  0.00  0.00    -0.270 OA
BRANCH  24  29
ATOM     28  C   LIG    1      -24.963  77.769  30.527  0.00  0.00    +0.037 C 
ATOM     29  C   LIG    1      -24.146  76.481  30.531  0.00  0.00    +0.174 C 
BRANCH  29  30
ATOM     30  C   LIG    1      -24.878  75.343  31.292  0.00  0.00    +0.407 C 
ATOM     31  F   LIG    1      -24.781  74.149  30.665  0.00  0.00    -0.169 F 
ATOM     32  F   LIG    1      -26.194  75.622  31.442  0.00  0.00    -0.169 F 
ATOM     33  F   LIG    1      -24.372  75.170  32.539  0.00  0.00    -0.169 F 
ENDBRANCH  29  30
ENDBRANCH  24  29
ENDBRANCH   1  26
TORSDOF 6
ENDMDL
MODEL 2
REMARK VINA RESULT:      -5.7      2.956      5.208
REMARK  Name = pdb/CHEMBL3676081.pdb
REMARK                            x       y       z     vdW  Elec       q    Type
REMARK                         _______ _______ _______ _____ _____    ______ ____
ROOT
ATOM      1  C   LIG    1      -25.913  77.067  32.867  0.00  0.00    +0.100 A 
ATOM      2  C   LIG    1      -25.555  77.919  33.896  0.00  0.00    +0.170 A 
ATOM      3  N   LIG    1      -24.407  78.629  34.147  0.00  0.00    -0.212 NA
ATOM      4  C   LIG    1      -24.350  79.353  35.249  0.00  0.00    +0.126 A 
ATOM      5  C   LIG    1      -25.506  79.404  36.224  0.00  0.00    +0.063 A 
ATOM      6  C   LIG    1      -26.600  78.696  35.926  0.00  0.00    +0.118 A 
ATOM      7  N   LIG    1      -26.645  77.943  34.768  0.00  0.00    -0.221 N 
ATOM      8  N   LIG    1      -27.660  77.157  34.345  0.00  0.00    -0.173 NA
ATOM      9  C   LIG    1      -27.205  76.621  33.216  0.00  0.00    +0.150 A 
ENDROOT
BRANCH   4  10
ATOM     10  N   LIG    1      -23.188  80.073  35.515  0.00  0.00    -0.305 N 
ATOM     11  C   LIG    1      -22.006  79.465  36.149  0.00  0.00    +0.108 C 
ATOM     12  C   LIG    1      -21.314  80.601  36.919  0.00  0.00    +0.060 C 
ATOM     13  C   LIG    1      -21.845  81.882  36.299  0.00  0.00    +0.134 C 
ATOM     14  C   LIG    1      -23.255  81.507  35.834  0.00  0.00    +0.138 C 
BRANCH  11  15
ATOM     15  C   LIG    1      -21.094  78.762  35.158  0.00  0.00    -0.024 A 
ATOM     16  C   LIG    1      -20.293  79.456  34.240  0.00  0.00    +0.043 A 
ATOM     17  C   LIG    1      -19.491  78.761  33.338  0.00  0.00    +0.124 A 
ATOM     18  F   LIG    1      -18.734  79.445  32.471  0.00  0.00    -0.205 F 
ATOM     19  C   LIG    1      -19.474  77.373  33.313  0.00  0.00    +0.038 A 
ATOM     20  C   LIG    1      -20.272  76.665  34.208  0.00  0.00    +0.003 A 
ATOM     21  C   LIG    1      -21.070  77.353  35.128  0.00  0.00    +0.005 A 
ENDBRANCH  11  15
BRANCH  13  22
ATOM     22  O   LIG    1      -20.999  82.311  35.236  0.00  0.00    -0.390 OA
ATOM     23  H   LIG    1      -21.376  83.117  34.843  0.00  0.00    +0.210 HD
ENDBRANCH  13  22
ENDBRANCH   4  10
BRANCH   1  26
ATOM     24  N   LIG    1      -23.818  76.448  31.900  0.00  0.00    -0.300 N 
ATOM     25  H   LIG    1      -23.455  76.621  32.838  0.00  0.00    +0.150 HD
ATOM     26  C   LIG    1      -25.156  76.675  31.699  0.00  0.00    +0.250 C 
ATOM     27  O   LIG    1      -25.685  76.530  30.595  0.00  0.00    -0.270 OA
BRANCH  24  29
ATOM     28  C   LIG    1      -21.892  75.062  31.332  0.00  0.00    +0.037 C 
ATOM     29  C   LIG    1      -22.932  76.043  30.801  0.00  0.00    +0.174 C 
BRANCH  29  30
ATOM     30  C   LIG    1      -22.272  77.196  29.997  0.00  0.00    +0.407 C 
ATOM     31  F   LIG    1      -21.529  76.751  28.959  0.00  0.00    -0.169 F 
ATOM     32  F   LIG    1      -21.468  77.944  30.787  0.00  0.00    -0.169 F 
ATOM     33  F   LIG    1      -23.201  78.038  29.478  0.00  0.00    -0.169 F 
ENDBRANCH  29  30
ENDBRANCH  24  29
ENDBRANCH   1  26
TORSDOF 6
ENDMDL
MODEL 3
REMARK VINA RESULT:      -5.6      2.735      5.445
REMARK  Name = pdb/CHEMBL3676081.pdb
REMARK                            x       y       z     vdW  Elec       q    Type
REMARK                         _______ _______ _______ _____ _____    ______ ____
ROOT
ATOM      1  C   LIG    1      -18.454  78.435  33.397  0.00  0.00    +0.100 A 
ATOM      2  C   LIG    1      -19.305  77.990  32.400  0.00  0.00    +0.170 A 
ATOM      3  N   LIG    1      -20.673  77.936  32.314  0.00  0.00    -0.212 NA
ATOM      4  C   LIG    1      -21.208  77.424  31.221  0.00  0.00    +0.126 A 
ATOM      5  C   LIG    1      -20.352  76.901  30.089  0.00  0.00    +0.063 A 
ATOM      6  C   LIG    1      -19.025  76.983  30.226  0.00  0.00    +0.118 A 
ATOM      7  N   LIG    1      -18.479  77.521  31.376  0.00  0.00    -0.221 N 
ATOM      8  N   LIG    1      -17.167  77.647  31.675  0.00  0.00    -0.173 NA
ATOM      9  C   LIG    1      -17.161  78.177  32.895  0.00  0.00    +0.150 A 
ENDROOT
BRANCH   4  10
ATOM     10  N   LIG    1      -22.597  77.360  31.126  0.00  0.00    -0.305 N 
ATOM     11  C   LIG    1      -23.408  76.458  31.962  0.00  0.00    +0.108 C 
ATOM     12  C   LIG    1      -24.651  76.119  31.124  0.00  0.00    +0.060 C 
ATOM     13  C   LIG    1      -24.731  77.209  30.070  0.00  0.00    +0.134 C 
ATOM     14  C   LIG    1      -23.269  77.604  29.841  0.00  0.00    +0.138 C 
BRANCH  11  15
ATOM     15  C   LIG    1      -23.738  77.046  33.323  0.00  0.00    -0.024 A 
ATOM     16  C   LIG    1      -24.019  78.406  33.515  0.00  0.00    +0.043 A 
ATOM     17  C   LIG    1      -24.294  78.896  34.790  0.00  0.00    +0.124 A 
ATOM     18  F   LIG    1      -24.560  80.198  34.949  0.00  0.00    -0.205 F 
ATOM     19  C   LIG    1      -24.283  78.060  35.899  0.00  0.00    +0.038 A 
ATOM     20  C   LIG    1      -23.994  76.708  35.731  0.00  0.00    +0.003 A 
ATOM     21  C   LIG    1      -23.731  76.204  34.453  0.00  0.00    +0.005 A 
ENDBRANCH  11  15
BRANCH  13  22
ATOM     22  O   LIG    1      -25.539  78.290  30.526  0.00  0.00    -0.390 OA
ATOM     23  H   LIG    1      -25.830  78.809  29.758  0.00  0.00    +0.210 HD
ENDBRANCH  13  22
ENDBRANCH   4  10
BRANCH   1  26
ATOM     24  N   LIG    1      -20.059  79.473  34.830  0.00  0.00    -0.300 N 
ATOM     25  H   LIG    1      -20.666  79.421  34.011  0.00  0.00    +0.150 HD
ATOM     26  C   LIG    1      -18.776  79.012  34.684  0.00  0.00    +0.250 C 
ATOM     27  O   LIG    1      -17.954  79.064  35.600  0.00  0.00    -0.270 OA
BRANCH  24  29
ATOM     28  C   LIG    1      -21.124  78.998  36.974  0.00  0.00    +0.037 C 
ATOM     29  C   LIG    1      -20.520  80.081  36.085  0.00  0.00    +0.174 C 
BRANCH  29  30
ATOM     30  C   LIG    1      -21.473  81.300  35.943  0.00  0.00    +0.407 C 
ATOM     31  F   LIG    1      -21.999  81.409  34.702  0.00  0.00    -0.169 F 
ATOM     32  F   LIG    1      -20.830  82.458  36.220  0.00  0.00    -0.169 F 
ATOM     33  F   LIG    1      -22.518  81.219  36.804  0.00  0.00    -0.169 F 
ENDBRANCH  29  30
ENDBRANCH  24  29
ENDBRANCH   1  26
TORSDOF 6
ENDMDL
MODEL 4
REMARK VINA RESULT:      -5.5      2.368      5.601
REMARK  Name = pdb/CHEMBL3676081.pdb
REMARK                            x       y       z     vdW  Elec       q    Type
REMARK                         _______ _______ _______ _____ _____    ______ ____
ROOT
ATOM      1  C   LIG    1      -19.088  79.234  35.501  0.00  0.00    +0.100 A 
ATOM      2  C   LIG    1      -19.121  78.525  34.313  0.00  0.00    +0.170 A 
ATOM      3  N   LIG    1      -20.138  78.251  33.432  0.00  0.00    -0.212 NA
ATOM      4  C   LIG    1      -19.862  77.512  32.374  0.00  0.00    +0.126 A 
ATOM      5  C   LIG    1      -18.472  76.970  32.126  0.00  0.00    +0.063 A 
ATOM      6  C   LIG    1      -17.520  77.273  33.015  0.00  0.00    +0.118 A 
ATOM      7  N   LIG    1      -17.824  78.047  34.119  0.00  0.00    -0.221 N 
ATOM      8  N   LIG    1      -16.985  78.413  35.113  0.00  0.00    -0.173 NA
ATOM      9  C   LIG    1      -17.756  79.107  35.948  0.00  0.00    +0.150 A 
ENDROOT
BRANCH   4  10
ATOM     10  N   LIG    1      -20.888  77.224  31.476  0.00  0.00    -0.305 N 
ATOM     11  C   LIG    1      -21.892  76.176  31.730  0.00  0.00    +0.108 C 
ATOM     12  C   LIG    1      -22.318  75.662  30.347  0.00  0.00    +0.060 C 
ATOM     13  C   LIG    1      -21.912  76.756  29.374  0.00  0.00    +0.134 C 
ATOM     14  C   LIG    1      -20.684  77.393  30.030  0.00  0.00    +0.138 C 
BRANCH  11  15
ATOM     15  C   LIG    1      -23.054  76.660  32.580  0.00  0.00    -0.024 A 
ATOM     16  C   LIG    1      -23.818  75.800  33.382  0.00  0.00    +0.043 A 
ATOM     17  C   LIG    1      -24.888  76.294  34.125  0.00  0.00    +0.124 A 
ATOM     18  F   LIG    1      -25.603  75.454  34.884  0.00  0.00    -0.205 F 
ATOM     19  C   LIG    1      -25.234  77.638  34.082  0.00  0.00    +0.038 A 
ATOM     20  C   LIG    1      -24.495  78.506  33.283  0.00  0.00    +0.003 A 
ATOM     21  C   LIG    1      -23.410  78.024  32.544  0.00  0.00    +0.005 A 
ENDBRANCH  11  15
BRANCH  13  22
ATOM     22  O   LIG    1      -22.983  77.675  29.178  0.00  0.00    -0.390 OA
ATOM     23  H   LIG    1      -23.824  77.211  29.328  0.00  0.00    +0.210 HD
ENDBRANCH  13  22
ENDBRANCH   4  10
BRANCH   1  26
ATOM     24  N   LIG    1      -21.406  79.377  36.062  0.00  0.00    -0.300 N 
ATOM     25  H   LIG    1      -21.491  78.550  35.469  0.00  0.00    +0.150 HD
ATOM     26  C   LIG    1      -20.158  79.932  36.179  0.00  0.00    +0.250 C 
ATOM     27  O   LIG    1      -19.955  80.952  36.841  0.00  0.00    -0.270 OA
BRANCH  24  29
ATOM     28  C   LIG    1      -23.504  78.877  37.203  0.00  0.00    +0.037 C 
ATOM     29  C   LIG    1      -22.582  79.983  36.701  0.00  0.00    +0.174 C 
BRANCH  29  30
ATOM     30  C   LIG    1      -23.354  81.030  35.853  0.00  0.00    +0.407 C 
ATOM     31  F   LIG    1      -23.197  82.292  36.312  0.00  0.00    -0.169 F 
ATOM     32  F   LIG    1      -24.680  80.762  35.835  0.00  0.00    -0.169 F 
ATOM     33  F   LIG    1      -22.939  81.031  34.561  0.00  0.00    -0.169 F 
ENDBRANCH  29  30
ENDBRANCH  24  29
ENDBRANCH   1  26
TORSDOF 6
ENDMDL
MODEL 5
REMARK VINA RESULT:      -5.3     15.869     19.786
REMARK  Name = pdb/CHEMBL3676081.pdb
REMARK                            x       y       z     vdW  Elec       q    Type
REMARK                         _______ _______ _______ _____ _____    ______ ____
ROOT
ATOM      1  C   LIG    1      -38.752  75.097  24.723  0.00  0.00    +0.100 A 
ATOM      2  C   LIG    1      -38.893  73.736  24.520  0.00  0.00    +0.170 A 
ATOM      3  N   LIG    1      -38.008  72.692  24.628  0.00  0.00    -0.212 NA
ATOM      4  C   LIG    1      -38.438  71.478  24.340  0.00  0.00    +0.126 A 
ATOM      5  C   LIG    1      -39.862  71.227  23.896  0.00  0.00    +0.063 A 
ATOM      6  C   LIG    1      -40.681  72.280  23.813  0.00  0.00    +0.118 A 
ATOM      7  N   LIG    1      -40.216  73.546  24.118  0.00  0.00    -0.221 N 
ATOM      8  N   LIG    1      -40.908  74.705  24.056  0.00  0.00    -0.173 NA
ATOM      9  C   LIG    1      -40.017  75.632  24.401  0.00  0.00    +0.150 A 
ENDROOT
BRANCH   4  10
ATOM     10  N   LIG    1      -37.546  70.413  24.441  0.00  0.00    -0.305 N 
ATOM     11  C   LIG    1      -37.975  69.007  24.336  0.00  0.00    +0.108 C 
ATOM     12  C   LIG    1      -36.983  68.204  25.192  0.00  0.00    +0.060 C 
ATOM     13  C   LIG    1      -35.768  69.103  25.342  0.00  0.00    +0.134 C 
ATOM     14  C   LIG    1      -36.351  70.518  25.291  0.00  0.00    +0.138 C 
BRANCH  11  15
ATOM     15  C   LIG    1      -38.069  68.519  22.901  0.00  0.00    -0.024 A 
ATOM     16  C   LIG    1      -38.848  67.416  22.524  0.00  0.00    +0.043 A 
ATOM     17  C   LIG    1      -38.881  66.998  21.195  0.00  0.00    +0.124 A 
ATOM     18  F   LIG    1      -39.633  65.942  20.859  0.00  0.00    -0.205 F 
ATOM     19  C   LIG    1      -38.139  67.647  20.219  0.00  0.00    +0.038 A 
ATOM     20  C   LIG    1      -37.350  68.738  20.575  0.00  0.00    +0.003 A 
ATOM     21  C   LIG    1      -37.321  69.175  21.903  0.00  0.00    +0.005 A 
ENDBRANCH  11  15
BRANCH  13  22
ATOM     22  O   LIG    1      -34.825  68.847  24.306  0.00  0.00    -0.390 OA
ATOM     23  H   LIG    1      -33.962  68.654  24.710  0.00  0.00    +0.210 HD
ENDBRANCH  13  22
ENDBRANCH   4  10
BRANCH   1  26
ATOM     24  N   LIG    1      -37.072  75.517  26.368  0.00  0.00    -0.300 N 
ATOM     25  H   LIG    1      -37.577  74.816  26.910  0.00  0.00    +0.150 HD
ATOM     26  C   LIG    1      -37.585  75.844  25.139  0.00  0.00    +0.250 C 
ATOM     27  O   LIG    1      -37.071  76.704  24.423  0.00  0.00    -0.270 OA
BRANCH  24  29
ATOM     28  C   LIG    1      -35.058  75.194  27.709  0.00  0.00    +0.037 C 
ATOM     29  C   LIG    1      -35.889  76.197  26.914  0.00  0.00    +0.174 C 
BRANCH  29  30
ATOM     30  C   LIG    1      -36.161  77.489  27.731  0.00  0.00    +0.407 C 
ATOM     31  F   LIG    1      -37.079  78.292  27.148  0.00  0.00    -0.169 F 
ATOM     32  F   LIG    1      -35.029  78.211  27.896  0.00  0.00    -0.169 F 
ATOM     33  F   LIG    1      -36.626  77.205  28.974  0.00  0.00    -0.169 F 
ENDBRANCH  29  30
ENDBRANCH  24  29
ENDBRANCH   1  26
TORSDOF 6
ENDMDL
MODEL 6
REMARK VINA RESULT:      -5.2     18.186     20.873
REMARK  Name = pdb/CHEMBL3676081.pdb
REMARK                            x       y       z     vdW  Elec       q    Type
REMARK                         _______ _______ _______ _____ _____    ______ ____
ROOT
ATOM      1  C   LIG    1      -22.850  83.605  11.326  0.00  0.00    +0.100 A 
ATOM      2  C   LIG    1      -23.620  82.457  11.387  0.00  0.00    +0.170 A 
ATOM      3  N   LIG    1      -23.905  81.593  12.415  0.00  0.00    -0.212 NA
ATOM      4  C   LIG    1      -24.667  80.547  12.156  0.00  0.00    +0.126 A 
ATOM      5  C   LIG    1      -25.215  80.289  10.770  0.00  0.00    +0.063 A 
ATOM      6  C   LIG    1      -24.908  81.166   9.809  0.00  0.00    +0.118 A 
ATOM      7  N   LIG    1      -24.108  82.257  10.094  0.00  0.00    -0.221 N 
ATOM      8  N   LIG    1      -23.689  83.209   9.232  0.00  0.00    -0.173 NA
ATOM      9  C   LIG    1      -22.920  84.002   9.974  0.00  0.00    +0.150 A 
ENDROOT
BRANCH   4  10
ATOM     10  N   LIG    1      -24.959  79.662  13.191  0.00  0.00    -0.305 N 
ATOM     11  C   LIG    1      -24.012  78.626  13.639  0.00  0.00    +0.108 C 
ATOM     12  C   LIG    1      -24.876  77.474  14.175  0.00  0.00    +0.060 C 
ATOM     13  C   LIG    1      -26.233  78.095  14.461  0.00  0.00    +0.134 C 
ATOM     14  C   LIG    1      -26.342  79.225  13.433  0.00  0.00    +0.138 C 
BRANCH  11  15
ATOM     15  C   LIG    1      -22.998  79.141  14.645  0.00  0.00    -0.024 A 
ATOM     16  C   LIG    1      -23.303  80.129  15.592  0.00  0.00    +0.043 A 
ATOM     17  C   LIG    1      -22.328  80.581  16.478  0.00  0.00    +0.124 A 
ATOM     18  F   LIG    1      -22.643  81.525  17.375  0.00  0.00    -0.205 F 
ATOM     19  C   LIG    1      -21.033  80.081  16.439  0.00  0.00    +0.038 A 
ATOM     20  C   LIG    1      -20.707  79.109  15.498  0.00  0.00    +0.003 A 
ATOM     21  C   LIG    1      -21.682  78.637  14.613  0.00  0.00    +0.005 A 
ENDBRANCH  11  15
BRANCH  13  22
ATOM     22  O   LIG    1      -26.301  78.552  15.808  0.00  0.00    -0.390 OA
ATOM     23  H   LIG    1      -26.591  77.817  16.373  0.00  0.00    +0.210 HD
ENDBRANCH  13  22
ENDBRANCH   4  10
BRANCH   1  26
ATOM     24  N   LIG    1      -22.765  84.428  13.567  0.00  0.00    -0.300 N 
ATOM     25  H   LIG    1      -23.738  84.121  13.604  0.00  0.00    +0.150 HD
ATOM     26  C   LIG    1      -22.105  84.264  12.376  0.00  0.00    +0.250 C 
ATOM     27  O   LIG    1      -20.941  84.634  12.217  0.00  0.00    -0.270 OA
BRANCH  24  29
ATOM     28  C   LIG    1      -22.699  84.497  16.006  0.00  0.00    +0.037 C 
ATOM     29  C   LIG    1      -22.126  85.080  14.718  0.00  0.00    +0.174 C 
BRANCH  29  30
ATOM     30  C   LIG    1      -22.163  86.632  14.728  0.00  0.00    +0.407 C 
ATOM     31  F   LIG    1      -22.205  87.145  15.978  0.00  0.00    -0.169 F 
ATOM     32  F   LIG    1      -23.239  87.101  14.055  0.00  0.00    -0.169 F 
ATOM     33  F   LIG    1      -21.067  87.162  14.127  0.00  0.00    -0.169 F 
ENDBRANCH  29  30
ENDBRANCH  24  29
ENDBRANCH   1  26
TORSDOF 6
ENDMDL
MODEL 7
REMARK VINA RESULT:      -5.2     16.998     19.906
REMARK  Name = pdb/CHEMBL3676081.pdb
REMARK                            x       y       z     vdW  Elec       q    Type
REMARK                         _______ _______ _______ _____ _____    ______ ____
ROOT
ATOM      1  C   LIG    1      -36.862  68.418  22.179  0.00  0.00    +0.100 A 
ATOM      2  C   LIG    1      -38.016  69.091  22.541  0.00  0.00    +0.170 A 
ATOM      3  N   LIG    1      -38.386  69.727  23.700  0.00  0.00    -0.212 NA
ATOM      4  C   LIG    1      -39.589  70.268  23.755  0.00  0.00    +0.126 A 
ATOM      5  C   LIG    1      -40.546  70.194  22.587  0.00  0.00    +0.063 A 
ATOM      6  C   LIG    1      -40.130  69.567  21.483  0.00  0.00    +0.118 A 
ATOM      7  N   LIG    1      -38.869  69.004  21.438  0.00  0.00    -0.221 N 
ATOM      8  N   LIG    1      -38.317  68.317  20.413  0.00  0.00    -0.173 NA
ATOM      9  C   LIG    1      -37.123  67.953  20.873  0.00  0.00    +0.150 A 
ENDROOT
BRANCH   4  10
ATOM     10  N   LIG    1      -39.976  70.912  24.929  0.00  0.00    -0.305 N 
ATOM     11  C   LIG    1      -39.141  71.930  25.588  0.00  0.00    +0.108 C 
ATOM     12  C   LIG    1      -39.474  71.838  27.085  0.00  0.00    +0.060 C 
ATOM     13  C   LIG    1      -40.815  71.129  27.151  0.00  0.00    +0.134 C 
ATOM     14  C   LIG    1      -40.807  70.215  25.922  0.00  0.00    +0.138 C 
BRANCH  11  15
ATOM     15  C   LIG    1      -39.333  73.322  25.009  0.00  0.00    -0.024 A 
ATOM     16  C   LIG    1      -38.372  74.336  25.136  0.00  0.00    +0.043 A 
ATOM     17  C   LIG    1      -38.610  75.601  24.605  0.00  0.00    +0.124 A 
ATOM     18  F   LIG    1      -37.678  76.554  24.738  0.00  0.00    -0.205 F 
ATOM     19  C   LIG    1      -39.799  75.896  23.953  0.00  0.00    +0.038 A 
ATOM     20  C   LIG    1      -40.770  74.906  23.826  0.00  0.00    +0.003 A 
ATOM     21  C   LIG    1      -40.537  73.628  24.343  0.00  0.00    +0.005 A 
ENDBRANCH  11  15
BRANCH  13  22
ATOM     22  O   LIG    1      -41.882  72.072  27.142  0.00  0.00    -0.390 OA
ATOM     23  H   LIG    1      -42.719  71.597  27.010  0.00  0.00    +0.210 HD
ENDBRANCH  13  22
ENDBRANCH   4  10
BRANCH   1  26
ATOM     24  N   LIG    1      -35.712  68.547  24.269  0.00  0.00    -0.300 N 
ATOM     25  H   LIG    1      -36.575  68.982  24.596  0.00  0.00    +0.150 HD
ATOM     26  C   LIG    1      -35.656  68.195  22.945  0.00  0.00    +0.250 C 
ATOM     27  O   LIG    1      -34.646  67.697  22.443  0.00  0.00    -0.270 OA
BRANCH  24  29
ATOM     28  C   LIG    1      -34.667  67.022  25.862  0.00  0.00    +0.037 C 
ATOM     29  C   LIG    1      -34.558  68.373  25.162  0.00  0.00    +0.174 C 
BRANCH  29  30
ATOM     30  C   LIG    1      -34.300  69.522  26.174  0.00  0.00    +0.407 C 
ATOM     31  F   LIG    1      -35.304  69.667  27.067  0.00  0.00    -0.169 F 
ATOM     32  F   LIG    1      -34.141  70.706  25.539  0.00  0.00    -0.169 F 
ATOM     33  F   LIG    1      -33.168  69.310  26.891  0.00  0.00    -0.169 F 
ENDBRANCH  29  30
ENDBRANCH  24  29
ENDBRANCH   1  26
TORSDOF 6
ENDMDL
MODEL 8
REMARK VINA RESULT:      -5.2      2.875      6.142
REMARK  Name = pdb/CHEMBL3676081.pdb
REMARK                            x       y       z     vdW  Elec       q    Type
REMARK                         _______ _______ _______ _____ _____    ______ ____
ROOT
ATOM      1  C   LIG    1      -20.641  79.788  35.246  0.00  0.00    +0.100 A 
ATOM      2  C   LIG    1      -21.996  79.535  35.127  0.00  0.00    +0.170 A 
ATOM      3  N   LIG    1      -22.694  78.512  34.534  0.00  0.00    -0.212 NA
ATOM      4  C   LIG    1      -24.012  78.559  34.564  0.00  0.00    +0.126 A 
ATOM      5  C   LIG    1      -24.750  79.702  35.223  0.00  0.00    +0.063 A 
ATOM      6  C   LIG    1      -24.020  80.668  35.789  0.00  0.00    +0.118 A 
ATOM      7  N   LIG    1      -22.639  80.606  35.750  0.00  0.00    -0.221 N 
ATOM      8  N   LIG    1      -21.768  81.512  36.248  0.00  0.00    -0.173 NA
ATOM      9  C   LIG    1      -20.573  81.024  35.923  0.00  0.00    +0.150 A 
ENDROOT
BRANCH   4  10
ATOM     10  N   LIG    1      -24.729  77.528  33.959  0.00  0.00    -0.305 N 
ATOM     11  C   LIG    1      -25.138  77.570  32.545  0.00  0.00    +0.108 C 
ATOM     12  C   LIG    1      -26.433  76.748  32.460  0.00  0.00    +0.060 C 
ATOM     13  C   LIG    1      -26.437  75.882  33.708  0.00  0.00    +0.134 C 
ATOM     14  C   LIG    1      -25.681  76.724  34.740  0.00  0.00    +0.138 C 
BRANCH  11  15
ATOM     15  C   LIG    1      -24.052  77.088  31.598  0.00  0.00    -0.024 A 
ATOM     16  C   LIG    1      -23.177  76.039  31.917  0.00  0.00    +0.043 A 
ATOM     17  C   LIG    1      -22.185  75.652  31.019  0.00  0.00    +0.124 A 
ATOM     18  F   LIG    1      -21.362  74.648  31.345  0.00  0.00    -0.205 F 
ATOM     19  C   LIG    1      -22.026  76.298  29.800  0.00  0.00    +0.038 A 
ATOM     20  C   LIG    1      -22.877  77.349  29.470  0.00  0.00    +0.003 A 
ATOM     21  C   LIG    1      -23.886  77.737  30.357  0.00  0.00    +0.005 A 
ENDBRANCH  11  15
BRANCH  13  22
ATOM     22  O   LIG    1      -25.820  74.625  33.448  0.00  0.00    -0.390 OA
ATOM     23  H   LIG    1      -26.350  73.924  33.862  0.00  0.00    +0.210 HD
ENDBRANCH  13  22
ENDBRANCH   4  10
BRANCH   1  26
ATOM     24  N   LIG    1      -19.378  78.928  33.409  0.00  0.00    -0.300 N 
ATOM     25  H   LIG    1      -20.097  79.378  32.842  0.00  0.00    +0.150 HD
ATOM     26  C   LIG    1      -19.520  79.007  34.771  0.00  0.00    +0.250 C 
ATOM     27  O   LIG    1      -18.727  78.466  35.544  0.00  0.00    -0.270 OA
BRANCH  24  29
ATOM     28  C   LIG    1      -17.062  79.072  32.655  0.00  0.00    +0.037 C 
ATOM     29  C   LIG    1      -18.283  78.168  32.792  0.00  0.00    +0.174 C 
BRANCH  29  30
ATOM     30  C   LIG    1      -18.618  77.453  31.455  0.00  0.00    +0.407 C 
ATOM     31  F   LIG    1      -18.952  76.154  31.627  0.00  0.00    -0.169 F 
ATOM     32  F   LIG    1      -17.569  77.498  30.601  0.00  0.00    -0.169 F 
ATOM     33  F   LIG    1      -19.661  78.044  30.821  0.00  0.00    -0.169 F 
ENDBRANCH  29  30
ENDBRANCH  24  29
ENDBRANCH   1  26
TORSDOF 6
ENDMDL
MODEL 9
REMARK VINA RESULT:      -5.2     16.619     20.264
REMARK  Name = pdb/CHEMBL3676081.pdb
REMARK                            x       y       z     vdW  Elec       q    Type
REMARK                         _______ _______ _______ _____ _____    ______ ____
ROOT
ATOM      1  C   LIG    1      -35.504  67.744  23.332  0.00  0.00    +0.100 A 
ATOM      2  C   LIG    1      -36.583  68.138  22.561  0.00  0.00    +0.170 A 
ATOM      3  N   LIG    1      -37.741  68.807  22.870  0.00  0.00    -0.212 NA
ATOM      4  C   LIG    1      -38.613  69.022  21.903  0.00  0.00    +0.126 A 
ATOM      5  C   LIG    1      -38.362  68.547  20.490  0.00  0.00    +0.063 A 
ATOM      6  C   LIG    1      -37.216  67.905  20.245  0.00  0.00    +0.118 A 
ATOM      7  N   LIG    1      -36.311  67.687  21.267  0.00  0.00    -0.221 N 
ATOM      8  N   LIG    1      -35.131  67.034  21.186  0.00  0.00    -0.173 NA
ATOM      9  C   LIG    1      -34.663  67.055  22.432  0.00  0.00    +0.150 A 
ENDROOT
BRANCH   4  10
ATOM     10  N   LIG    1      -39.794  69.696  22.209  0.00  0.00    -0.305 N 
ATOM     11  C   LIG    1      -40.155  70.078  23.584  0.00  0.00    +0.108 C 
ATOM     12  C   LIG    1      -41.691  70.079  23.627  0.00  0.00    +0.060 C 
ATOM     13  C   LIG    1      -42.130  70.178  22.176  0.00  0.00    +0.134 C 
ATOM     14  C   LIG    1      -41.006  69.478  21.406  0.00  0.00    +0.138 C 
BRANCH  11  15
ATOM     15  C   LIG    1      -39.537  71.396  24.017  0.00  0.00    -0.024 A 
ATOM     16  C   LIG    1      -40.171  72.632  23.822  0.00  0.00    +0.043 A 
ATOM     17  C   LIG    1      -39.548  73.814  24.219  0.00  0.00    +0.124 A 
ATOM     18  F   LIG    1      -40.173  74.982  24.023  0.00  0.00    -0.205 F 
ATOM     19  C   LIG    1      -38.288  73.802  24.801  0.00  0.00    +0.038 A 
ATOM     20  C   LIG    1      -37.637  72.586  24.993  0.00  0.00    +0.003 A 
ATOM     21  C   LIG    1      -38.259  71.393  24.611  0.00  0.00    +0.005 A 
ENDBRANCH  11  15
BRANCH  13  22
ATOM     22  O   LIG    1      -42.306  71.540  21.798  0.00  0.00    -0.390 OA
ATOM     23  H   LIG    1      -41.889  72.107  22.468  0.00  0.00    +0.210 HD
ENDBRANCH  13  22
ENDBRANCH   4  10
BRANCH   1  26
ATOM     24  N   LIG    1      -35.963  68.972  25.329  0.00  0.00    -0.300 N 
ATOM     25  H   LIG    1      -36.549  69.541  24.718  0.00  0.00    +0.150 HD
ATOM     26  C   LIG    1      -35.267  67.944  24.744  0.00  0.00    +0.250 C 
ATOM     27  O   LIG    1      -34.505  67.222  25.388  0.00  0.00    -0.270 OA
BRANCH  24  29
ATOM     28  C   LIG    1      -37.189  69.228  27.423  0.00  0.00    +0.037 C 
ATOM     29  C   LIG    1      -35.818  69.285  26.757  0.00  0.00    +0.174 C 
BRANCH  29  30
ATOM     30  C   LIG    1      -35.074  70.606  27.092  0.00  0.00    +0.407 C 
ATOM     31  F   LIG    1      -34.044  70.423  27.948  0.00  0.00    -0.169 F 
ATOM     32  F   LIG    1      -35.913  71.512  27.647  0.00  0.00    -0.169 F 
ATOM     33  F   LIG    1      -34.558  71.185  25.979  0.00  0.00    -0.169 F 
ENDBRANCH  29  30
ENDBRANCH  24  29
ENDBRANCH   1  26
TORSDOF 6
ENDMDL
