MODEL 1
REMARK VINA RESULT:      -6.1      0.000      0.000
REMARK  Name = pdb/CHEMBL3666246.pdb
REMARK                            x       y       z     vdW  Elec       q    Type
REMARK                         _______ _______ _______ _____ _____    ______ ____
ROOT
ATOM      1  C   LIG    1      -40.222  70.437  23.101  0.00  0.00    +0.042 A 
ATOM      2  C   LIG    1      -38.910  70.021  23.347  0.00  0.00    +0.038 A 
ATOM      3  C   LIG    1      -38.251  69.202  22.426  0.00  0.00    +0.052 A 
ATOM      4  C   LIG    1      -38.933  68.848  21.267  0.00  0.00    +0.134 A 
ATOM      5  N   LIG    1      -40.214  69.210  21.014  0.00  0.00    -0.261 NA
ATOM      6  C   LIG    1      -40.840  69.968  21.947  0.00  0.00    +0.122 A 
ENDROOT
BRANCH   3   7
ATOM      7  N   LIG    1      -36.945  68.788  22.737  0.00  0.00    -0.284 N 
ATOM      8  H   LIG    1      -36.240  69.517  22.862  0.00  0.00    +0.155 HD
ATOM      9  C   LIG    1      -36.549  67.510  23.077  0.00  0.00    +0.223 C 
ATOM     10  O   LIG    1      -37.292  66.529  23.101  0.00  0.00    -0.275 OA
BRANCH   9  11
ATOM     11  C   LIG    1      -35.072  67.349  23.402  0.00  0.00    +0.151 C 
BRANCH  11  12
ATOM     12  C   LIG    1      -34.649  67.900  24.743  0.00  0.00    +0.050 A 
ATOM     13  N   LIG    1      -34.445  69.245  24.820  0.00  0.00    -0.258 NA
ATOM     14  C   LIG    1      -34.043  69.748  26.016  0.00  0.00    +0.131 A 
ATOM     15  C   LIG    1      -33.843  68.976  27.146  0.00  0.00    +0.059 A 
ATOM     16 CL   LIG    1      -33.342  69.689  28.621  0.00  0.00    -0.082 Cl
ATOM     17  C   LIG    1      -34.063  67.607  27.054  0.00  0.00    +0.023 A 
ATOM     18  C   LIG    1      -34.469  67.057  25.837  0.00  0.00    +0.025 A 
ENDBRANCH  11  12
ENDBRANCH   9  11
ENDBRANCH   3   7
BRANCH   1  19
ATOM     19  C   LIG    1      -40.974  71.315  24.039  0.00  0.00    +0.197 C 
ATOM     20  O   LIG    1      -41.675  70.789  24.898  0.00  0.00    -0.287 OA
BRANCH  19  28
ATOM     21  N   LIG    1      -41.502  74.909  23.520  0.00  0.00    -0.329 N 
ATOM     22  C   LIG    1      -40.243  74.951  24.053  0.00  0.00    +0.147 A 
ATOM     23  N   LIG    1      -39.545  76.067  24.312  0.00  0.00    -0.197 NA
ATOM     24  C   LIG    1      -38.327  75.825  24.799  0.00  0.00    +0.214 A 
ATOM     25  N   LIG    1      -37.794  74.620  25.046  0.00  0.00    -0.222 NA
ATOM     26  C   LIG    1      -38.534  73.512  24.785  0.00  0.00    +0.126 A 
ATOM     27  C   LIG    1      -39.825  73.644  24.273  0.00  0.00    +0.048 A 
ATOM     28  C   LIG    1      -40.898  72.771  23.891  0.00  0.00    +0.051 A 
ATOM     29  C   LIG    1      -41.907  73.594  23.414  0.00  0.00    +0.100 A 
BRANCH  21  31
ATOM     30  C   LIG    1      -43.439  75.635  22.143  0.00  0.00    +0.030 C 
ATOM     31  C   LIG    1      -42.334  76.038  23.120  0.00  0.00    +0.083 C 
ATOM     32  C   LIG    1      -42.882  76.819  24.314  0.00  0.00    +0.030 C 
ENDBRANCH  21  31
BRANCH  24  33
ATOM     33  N   LIG    1      -37.559  76.933  25.119  0.00  0.00    -0.327 N 
ATOM     34  H   LIG    1      -37.124  76.789  26.015  0.00  0.00    +0.145 HD
ATOM     35  H   LIG    1      -36.952  77.164  24.345  0.00  0.00    +0.145 HD
ENDBRANCH  24  33
ENDBRANCH  19  28
ENDBRANCH   1  19
TORSDOF 7
ENDMDL
MODEL 2
REMARK VINA RESULT:      -6.1     17.183     21.124
REMARK  Name = pdb/CHEMBL3666246.pdb
REMARK                            x       y       z     vdW  Elec       q    Type
REMARK                         _______ _______ _______ _____ _____    ______ ____
ROOT
ATOM      1  C   LIG    1      -19.630  76.897  30.640  0.00  0.00    +0.042 A 
ATOM      2  C   LIG    1      -19.587  77.631  31.830  0.00  0.00    +0.038 A 
ATOM      3  C   LIG    1      -18.356  77.966  32.401  0.00  0.00    +0.052 A 
ATOM      4  C   LIG    1      -17.202  77.568  31.736  0.00  0.00    +0.134 A 
ATOM      5  N   LIG    1      -17.211  76.832  30.598  0.00  0.00    -0.261 NA
ATOM      6  C   LIG    1      -18.420  76.487  30.093  0.00  0.00    +0.122 A 
ENDROOT
BRANCH   3   7
ATOM      7  N   LIG    1      -18.370  78.676  33.613  0.00  0.00    -0.284 N 
ATOM      8  H   LIG    1      -18.497  79.688  33.561  0.00  0.00    +0.155 HD
ATOM      9  C   LIG    1      -18.417  78.133  34.882  0.00  0.00    +0.223 C 
ATOM     10  O   LIG    1      -18.398  76.928  35.130  0.00  0.00    -0.275 OA
BRANCH   9  11
ATOM     11  C   LIG    1      -18.458  79.139  36.021  0.00  0.00    +0.151 C 
BRANCH  11  12
ATOM     12  C   LIG    1      -19.713  79.977  36.089  0.00  0.00    +0.050 A 
ATOM     13  N   LIG    1      -20.689  79.702  35.178  0.00  0.00    -0.258 NA
ATOM     14  C   LIG    1      -21.811  80.464  35.216  0.00  0.00    +0.131 A 
ATOM     15  C   LIG    1      -22.016  81.485  36.127  0.00  0.00    +0.059 A 
ATOM     16 CL   LIG    1      -23.468  82.397  36.114  0.00  0.00    -0.082 Cl
ATOM     17  C   LIG    1      -21.016  81.749  37.054  0.00  0.00    +0.023 A 
ATOM     18  C   LIG    1      -19.846  80.989  37.037  0.00  0.00    +0.025 A 
ENDBRANCH  11  12
ENDBRANCH   9  11
ENDBRANCH   3   7
BRANCH   1  19
ATOM     19  C   LIG    1      -20.909  76.517  29.979  0.00  0.00    +0.197 C 
ATOM     20  O   LIG    1      -21.025  76.714  28.774  0.00  0.00    -0.287 OA
BRANCH  19  28
ATOM     21  N   LIG    1      -23.115  74.805  32.359  0.00  0.00    -0.329 N 
ATOM     22  C   LIG    1      -24.031  75.637  31.778  0.00  0.00    +0.147 A 
ATOM     23  N   LIG    1      -25.324  75.735  32.123  0.00  0.00    -0.197 NA
ATOM     24  C   LIG    1      -26.006  76.599  31.373  0.00  0.00    +0.214 A 
ATOM     25  N   LIG    1      -25.516  77.343  30.370  0.00  0.00    -0.222 NA
ATOM     26  C   LIG    1      -24.200  77.229  30.056  0.00  0.00    +0.126 A 
ATOM     27  C   LIG    1      -23.386  76.354  30.776  0.00  0.00    +0.048 A 
ATOM     28  C   LIG    1      -22.005  75.964  30.778  0.00  0.00    +0.051 A 
ATOM     29  C   LIG    1      -21.886  74.991  31.760  0.00  0.00    +0.100 A 
BRANCH  21  31
ATOM     30  C   LIG    1      -23.632  72.446  32.946  0.00  0.00    +0.030 C 
ATOM     31  C   LIG    1      -23.340  73.860  33.448  0.00  0.00    +0.083 C 
ATOM     32  C   LIG    1      -22.219  73.879  34.486  0.00  0.00    +0.030 C 
ENDBRANCH  21  31
BRANCH  24  33
ATOM     33  N   LIG    1      -27.342  76.775  31.693  0.00  0.00    -0.327 N 
ATOM     34  H   LIG    1      -27.414  77.312  32.541  0.00  0.00    +0.145 HD
ATOM     35  H   LIG    1      -27.844  77.121  30.887  0.00  0.00    +0.145 HD
ENDBRANCH  24  33
ENDBRANCH  19  28
ENDBRANCH   1  19
TORSDOF 7
ENDMDL
MODEL 3
REMARK VINA RESULT:      -5.9      5.379      8.544
REMARK  Name = pdb/CHEMBL3666246.pdb
REMARK                            x       y       z     vdW  Elec       q    Type
REMARK                         _______ _______ _______ _____ _____    ______ ____
ROOT
ATOM      1  C   LIG    1      -34.011  72.682  28.534  0.00  0.00    +0.042 A 
ATOM      2  C   LIG    1      -35.175  72.901  27.790  0.00  0.00    +0.038 A 
ATOM      3  C   LIG    1      -35.994  71.824  27.439  0.00  0.00    +0.052 A 
ATOM      4  C   LIG    1      -35.622  70.557  27.873  0.00  0.00    +0.134 A 
ATOM      5  N   LIG    1      -34.486  70.309  28.569  0.00  0.00    -0.261 NA
ATOM      6  C   LIG    1      -33.692  71.369  28.857  0.00  0.00    +0.122 A 
ENDROOT
BRANCH   3   7
ATOM      7  N   LIG    1      -37.134  72.097  26.664  0.00  0.00    -0.284 N 
ATOM      8  H   LIG    1      -37.854  72.687  27.083  0.00  0.00    +0.155 HD
ATOM      9  C   LIG    1      -37.305  71.804  25.325  0.00  0.00    +0.223 C 
ATOM     10  O   LIG    1      -36.486  71.206  24.629  0.00  0.00    -0.275 OA
BRANCH   9  11
ATOM     11  C   LIG    1      -38.631  72.244  24.726  0.00  0.00    +0.151 C 
BRANCH  11  12
ATOM     12  C   LIG    1      -38.823  73.739  24.625  0.00  0.00    +0.050 A 
ATOM     13  N   LIG    1      -37.778  74.522  25.014  0.00  0.00    -0.258 NA
ATOM     14  C   LIG    1      -37.948  75.868  24.947  0.00  0.00    +0.131 A 
ATOM     15  C   LIG    1      -39.108  76.474  24.500  0.00  0.00    +0.059 A 
ATOM     16 CL   LIG    1      -39.239  78.182  24.439  0.00  0.00    -0.082 Cl
ATOM     17  C   LIG    1      -40.161  75.663  24.099  0.00  0.00    +0.023 A 
ATOM     18  C   LIG    1      -40.022  74.275  24.163  0.00  0.00    +0.025 A 
ENDBRANCH  11  12
ENDBRANCH   9  11
ENDBRANCH   3   7
BRANCH   1  19
ATOM     19  C   LIG    1      -33.103  73.788  28.946  0.00  0.00    +0.197 C 
ATOM     20  O   LIG    1      -31.902  73.556  29.035  0.00  0.00    -0.287 OA
BRANCH  19  28
ATOM     21  N   LIG    1      -34.577  76.796  30.444  0.00  0.00    -0.329 N 
ATOM     22  C   LIG    1      -34.167  77.328  29.252  0.00  0.00    +0.147 A 
ATOM     23  N   LIG    1      -34.283  78.615  28.894  0.00  0.00    -0.197 NA
ATOM     24  C   LIG    1      -33.834  78.862  27.663  0.00  0.00    +0.214 A 
ATOM     25  N   LIG    1      -33.295  77.971  26.819  0.00  0.00    -0.222 NA
ATOM     26  C   LIG    1      -33.180  76.678  27.220  0.00  0.00    +0.126 A 
ATOM     27  C   LIG    1      -33.617  76.303  28.491  0.00  0.00    +0.048 A 
ATOM     28  C   LIG    1      -33.660  75.102  29.275  0.00  0.00    +0.051 A 
ATOM     29  C   LIG    1      -34.279  75.449  30.467  0.00  0.00    +0.100 A 
BRANCH  21  31
ATOM     30  C   LIG    1      -36.354  76.680  32.176  0.00  0.00    +0.030 C 
ATOM     31  C   LIG    1      -35.220  77.493  31.552  0.00  0.00    +0.083 C 
ATOM     32  C   LIG    1      -34.222  77.982  32.600  0.00  0.00    +0.030 C 
ENDBRANCH  21  31
BRANCH  24  33
ATOM     33  N   LIG    1      -33.893  80.178  27.236  0.00  0.00    -0.327 N 
ATOM     34  H   LIG    1      -34.717  80.615  27.616  0.00  0.00    +0.145 HD
ATOM     35  H   LIG    1      -33.009  80.635  27.411  0.00  0.00    +0.145 HD
ENDBRANCH  24  33
ENDBRANCH  19  28
ENDBRANCH   1  19
TORSDOF 7
ENDMDL
MODEL 4
REMARK VINA RESULT:      -5.8     21.589     23.452
REMARK  Name = pdb/CHEMBL3666246.pdb
REMARK                            x       y       z     vdW  Elec       q    Type
REMARK                         _______ _______ _______ _____ _____    ______ ____
ROOT
ATOM      1  C   LIG    1      -21.545  85.738  14.160  0.00  0.00    +0.042 A 
ATOM      2  C   LIG    1      -22.021  84.519  14.653  0.00  0.00    +0.038 A 
ATOM      3  C   LIG    1      -21.245  83.363  14.527  0.00  0.00    +0.052 A 
ATOM      4  C   LIG    1      -19.996  83.481  13.927  0.00  0.00    +0.134 A 
ATOM      5  N   LIG    1      -19.521  84.641  13.414  0.00  0.00    -0.261 NA
ATOM      6  C   LIG    1      -20.315  85.735  13.513  0.00  0.00    +0.122 A 
ENDROOT
BRANCH   3   7
ATOM      7  N   LIG    1      -21.784  82.159  15.011  0.00  0.00    -0.284 N 
ATOM      8  H   LIG    1      -21.714  81.339  14.406  0.00  0.00    +0.155 HD
ATOM      9  C   LIG    1      -22.234  81.919  16.294  0.00  0.00    +0.223 C 
ATOM     10  O   LIG    1      -22.274  82.759  17.192  0.00  0.00    -0.275 OA
BRANCH   9  11
ATOM     11  C   LIG    1      -22.737  80.508  16.555  0.00  0.00    +0.151 C 
BRANCH  11  12
ATOM     12  C   LIG    1      -23.789  80.016  15.590  0.00  0.00    +0.050 A 
ATOM     13  N   LIG    1      -24.414  80.956  14.827  0.00  0.00    -0.258 NA
ATOM     14  C   LIG    1      -25.377  80.527  13.971  0.00  0.00    +0.131 A 
ATOM     15  C   LIG    1      -25.742  79.200  13.829  0.00  0.00    +0.059 A 
ATOM     16 CL   LIG    1      -26.964  78.739  12.719  0.00  0.00    -0.082 Cl
ATOM     17  C   LIG    1      -25.091  78.252  14.608  0.00  0.00    +0.023 A 
ATOM     18  C   LIG    1      -24.102  78.661  15.504  0.00  0.00    +0.025 A 
ENDBRANCH  11  12
ENDBRANCH   9  11
ENDBRANCH   3   7
BRANCH   1  19
ATOM     19  C   LIG    1      -22.320  87.005  14.270  0.00  0.00    +0.197 C 
ATOM     20  O   LIG    1      -22.449  87.517  15.377  0.00  0.00    -0.287 OA
BRANCH  19  28
ATOM     21  N   LIG    1      -23.460  89.035  11.434  0.00  0.00    -0.329 N 
ATOM     22  C   LIG    1      -24.010  87.836  11.074  0.00  0.00    +0.147 A 
ATOM     23  N   LIG    1      -24.696  87.601   9.945  0.00  0.00    -0.197 NA
ATOM     24  C   LIG    1      -25.153  86.352   9.857  0.00  0.00    +0.214 A 
ATOM     25  N   LIG    1      -24.973  85.373  10.754  0.00  0.00    -0.222 NA
ATOM     26  C   LIG    1      -24.261  85.641  11.880  0.00  0.00    +0.126 A 
ATOM     27  C   LIG    1      -23.733  86.917  12.080  0.00  0.00    +0.048 A 
ATOM     28  C   LIG    1      -22.943  87.583  13.077  0.00  0.00    +0.051 A 
ATOM     29  C   LIG    1      -22.815  88.895  12.646  0.00  0.00    +0.100 A 
BRANCH  21  31
ATOM     30  C   LIG    1      -24.689  91.168  11.098  0.00  0.00    +0.030 C 
ATOM     31  C   LIG    1      -23.505  90.290  10.692  0.00  0.00    +0.083 C 
ATOM     32  C   LIG    1      -22.182  91.053  10.742  0.00  0.00    +0.030 C 
ENDBRANCH  21  31
BRANCH  24  33
ATOM     33  N   LIG    1      -25.845  86.029   8.701  0.00  0.00    -0.327 N 
ATOM     34  H   LIG    1      -25.338  86.370   7.902  0.00  0.00    +0.145 HD
ATOM     35  H   LIG    1      -26.083  85.047   8.709  0.00  0.00    +0.145 HD
ENDBRANCH  24  33
ENDBRANCH  19  28
ENDBRANCH   1  19
TORSDOF 7
ENDMDL
MODEL 5
REMARK VINA RESULT:      -5.8     17.348     21.189
REMARK  Name = pdb/CHEMBL3666246.pdb
REMARK                            x       y       z     vdW  Elec       q    Type
REMARK                         _______ _______ _______ _____ _____    ______ ____
ROOT
ATOM      1  C   LIG    1      -20.492  77.104  31.772  0.00  0.00    +0.042 A 
ATOM      2  C   LIG    1      -20.780  78.293  32.451  0.00  0.00    +0.038 A 
ATOM      3  C   LIG    1      -19.976  78.702  33.518  0.00  0.00    +0.052 A 
ATOM      4  C   LIG    1      -18.885  77.906  33.852  0.00  0.00    +0.134 A 
ATOM      5  N   LIG    1      -18.598  76.735  33.234  0.00  0.00    -0.261 NA
ATOM      6  C   LIG    1      -19.422  76.344  32.231  0.00  0.00    +0.122 A 
ENDROOT
BRANCH   3   7
ATOM      7  N   LIG    1      -20.328  79.887  34.184  0.00  0.00    -0.284 N 
ATOM      8  H   LIG    1      -19.810  80.733  33.941  0.00  0.00    +0.155 HD
ATOM      9  C   LIG    1      -21.426  80.074  35.000  0.00  0.00    +0.223 C 
ATOM     10  O   LIG    1      -22.231  79.194  35.304  0.00  0.00    -0.275 OA
BRANCH   9  11
ATOM     11  C   LIG    1      -21.587  81.475  35.567  0.00  0.00    +0.151 C 
BRANCH  11  12
ATOM     12  C   LIG    1      -20.710  81.788  36.756  0.00  0.00    +0.050 A 
ATOM     13  N   LIG    1      -19.974  80.762  37.267  0.00  0.00    -0.258 NA
ATOM     14  C   LIG    1      -19.199  81.027  38.350  0.00  0.00    +0.131 A 
ATOM     15  C   LIG    1      -19.111  82.273  38.945  0.00  0.00    +0.059 A 
ATOM     16 CL   LIG    1      -18.101  82.528  40.306  0.00  0.00    -0.082 Cl
ATOM     17  C   LIG    1      -19.861  83.312  38.408  0.00  0.00    +0.023 A 
ATOM     18  C   LIG    1      -20.674  83.070  37.300  0.00  0.00    +0.025 A 
ENDBRANCH  11  12
ENDBRANCH   9  11
ENDBRANCH   3   7
BRANCH   1  19
ATOM     19  C   LIG    1      -21.305  76.619  30.623  0.00  0.00    +0.197 C 
ATOM     20  O   LIG    1      -20.916  76.865  29.486  0.00  0.00    -0.287 OA
BRANCH  19  28
ATOM     21  N   LIG    1      -24.009  74.272  31.427  0.00  0.00    -0.329 N 
ATOM     22  C   LIG    1      -24.745  75.420  31.319  0.00  0.00    +0.147 A 
ATOM     23  N   LIG    1      -26.066  75.520  31.534  0.00  0.00    -0.197 NA
ATOM     24  C   LIG    1      -26.541  76.748  31.327  0.00  0.00    +0.214 A 
ATOM     25  N   LIG    1      -25.832  77.824  30.958  0.00  0.00    -0.222 NA
ATOM     26  C   LIG    1      -24.495  77.690  30.763  0.00  0.00    +0.126 A 
ATOM     27  C   LIG    1      -23.886  76.449  30.951  0.00  0.00    +0.048 A 
ATOM     28  C   LIG    1      -22.561  75.905  30.871  0.00  0.00    +0.051 A 
ATOM     29  C   LIG    1      -22.686  74.553  31.153  0.00  0.00    +0.100 A 
BRANCH  21  31
ATOM     30  C   LIG    1      -24.628  72.026  30.563  0.00  0.00    +0.030 C 
ATOM     31  C   LIG    1      -24.488  72.940  31.780  0.00  0.00    +0.083 C 
ATOM     32  C   LIG    1      -23.664  72.293  32.892  0.00  0.00    +0.030 C 
ENDBRANCH  21  31
BRANCH  24  33
ATOM     33  N   LIG    1      -27.894  76.934  31.560  0.00  0.00    -0.327 N 
ATOM     34  H   LIG    1      -28.016  77.564  32.335  0.00  0.00    +0.145 HD
ATOM     35  H   LIG    1      -28.360  77.174  30.696  0.00  0.00    +0.145 HD
ENDBRANCH  24  33
ENDBRANCH  19  28
ENDBRANCH   1  19
TORSDOF 7
ENDMDL
MODEL 6
REMARK VINA RESULT:      -5.7      3.372      6.662
REMARK  Name = pdb/CHEMBL3666246.pdb
REMARK                            x       y       z     vdW  Elec       q    Type
REMARK                         _______ _______ _______ _____ _____    ______ ____
ROOT
ATOM      1  C   LIG    1      -39.334  74.467  25.190  0.00  0.00    +0.042 A 
ATOM      2  C   LIG    1      -38.081  74.804  25.712  0.00  0.00    +0.038 A 
ATOM      3  C   LIG    1      -37.494  76.029  25.385  0.00  0.00    +0.052 A 
ATOM      4  C   LIG    1      -38.205  76.890  24.556  0.00  0.00    +0.134 A 
ATOM      5  N   LIG    1      -39.406  76.580  24.011  0.00  0.00    -0.261 NA
ATOM      6  C   LIG    1      -39.929  75.367  24.313  0.00  0.00    +0.122 A 
ENDROOT
BRANCH   3   7
ATOM      7  N   LIG    1      -36.220  76.304  25.911  0.00  0.00    -0.284 N 
ATOM      8  H   LIG    1      -35.454  76.417  25.246  0.00  0.00    +0.155 HD
ATOM      9  C   LIG    1      -35.926  76.622  27.222  0.00  0.00    +0.223 C 
ATOM     10  O   LIG    1      -36.748  76.655  28.137  0.00  0.00    -0.275 OA
BRANCH   9  11
ATOM     11  C   LIG    1      -34.460  76.907  27.510  0.00  0.00    +0.151 C 
BRANCH  11  12
ATOM     12  C   LIG    1      -33.700  75.769  28.148  0.00  0.00    +0.050 A 
ATOM     13  N   LIG    1      -32.612  76.098  28.899  0.00  0.00    -0.258 NA
ATOM     14  C   LIG    1      -31.909  75.080  29.459  0.00  0.00    +0.131 A 
ATOM     15  C   LIG    1      -32.243  73.746  29.316  0.00  0.00    +0.059 A 
ATOM     16 CL   LIG    1      -31.307  72.520  30.063  0.00  0.00    -0.082 Cl
ATOM     17  C   LIG    1      -33.360  73.426  28.555  0.00  0.00    +0.023 A 
ATOM     18  C   LIG    1      -34.101  74.448  27.959  0.00  0.00    +0.025 A 
ENDBRANCH  11  12
ENDBRANCH   9  11
ENDBRANCH   3   7
BRANCH   1  19
ATOM     19  C   LIG    1      -40.016  73.182  25.508  0.00  0.00    +0.197 C 
ATOM     20  O   LIG    1      -40.606  73.082  26.579  0.00  0.00    -0.287 OA
BRANCH  19  28
ATOM     21  N   LIG    1      -40.451  70.635  22.903  0.00  0.00    -0.329 N 
ATOM     22  C   LIG    1      -39.151  70.376  23.242  0.00  0.00    +0.147 A 
ATOM     23  N   LIG    1      -38.363  69.460  22.659  0.00  0.00    -0.197 NA
ATOM     24  C   LIG    1      -37.149  69.387  23.205  0.00  0.00    +0.214 A 
ATOM     25  N   LIG    1      -36.686  70.130  24.220  0.00  0.00    -0.222 NA
ATOM     26  C   LIG    1      -37.506  71.058  24.777  0.00  0.00    +0.126 A 
ATOM     27  C   LIG    1      -38.802  71.224  24.287  0.00  0.00    +0.048 A 
ATOM     28  C   LIG    1      -39.933  72.062  24.566  0.00  0.00    +0.051 A 
ATOM     29  C   LIG    1      -40.935  71.651  23.700  0.00  0.00    +0.100 A 
BRANCH  21  31
ATOM     30  C   LIG    1      -41.983  68.748  22.384  0.00  0.00    +0.030 C 
ATOM     31  C   LIG    1      -41.244  69.982  21.867  0.00  0.00    +0.083 C 
ATOM     32  C   LIG    1      -42.181  70.950  21.145  0.00  0.00    +0.030 C 
ENDBRANCH  21  31
BRANCH  24  33
ATOM     33  N   LIG    1      -36.268  68.483  22.633  0.00  0.00    -0.327 N 
ATOM     34  H   LIG    1      -35.323  68.772  22.823  0.00  0.00    +0.145 HD
ATOM     35  H   LIG    1      -36.523  67.542  22.901  0.00  0.00    +0.145 HD
ENDBRANCH  24  33
ENDBRANCH  19  28
ENDBRANCH   1  19
TORSDOF 7
ENDMDL
MODEL 7
REMARK VINA RESULT:      -5.7     18.823     22.007
REMARK  Name = pdb/CHEMBL3666246.pdb
REMARK                            x       y       z     vdW  Elec       q    Type
REMARK                         _______ _______ _______ _____ _____    ______ ____
ROOT
ATOM      1  C   LIG    1      -18.103  77.825  15.866  0.00  0.00    +0.042 A 
ATOM      2  C   LIG    1      -19.401  78.333  15.986  0.00  0.00    +0.038 A 
ATOM      3  C   LIG    1      -19.605  79.709  16.114  0.00  0.00    +0.052 A 
ATOM      4  C   LIG    1      -18.487  80.536  16.093  0.00  0.00    +0.134 A 
ATOM      5  N   LIG    1      -17.217  80.072  16.008  0.00  0.00    -0.261 NA
ATOM      6  C   LIG    1      -17.050  78.730  15.928  0.00  0.00    +0.122 A 
ENDROOT
BRANCH   3   7
ATOM      7  N   LIG    1      -20.926  80.163  16.263  0.00  0.00    -0.284 N 
ATOM      8  H   LIG    1      -21.443  79.837  17.082  0.00  0.00    +0.155 HD
ATOM      9  C   LIG    1      -21.543  81.150  15.521  0.00  0.00    +0.223 C 
ATOM     10  O   LIG    1      -21.026  81.741  14.574  0.00  0.00    -0.275 OA
BRANCH   9  11
ATOM     11  C   LIG    1      -22.976  81.467  15.920  0.00  0.00    +0.151 C 
BRANCH  11  12
ATOM     12  C   LIG    1      -24.031  80.633  15.233  0.00  0.00    +0.050 A 
ATOM     13  N   LIG    1      -24.597  81.157  14.110  0.00  0.00    -0.258 NA
ATOM     14  C   LIG    1      -25.562  80.424  13.498  0.00  0.00    +0.131 A 
ATOM     15  C   LIG    1      -25.986  79.185  13.944  0.00  0.00    +0.059 A 
ATOM     16 CL   LIG    1      -27.206  78.320  13.108  0.00  0.00    -0.082 Cl
ATOM     17  C   LIG    1      -25.394  78.661  15.086  0.00  0.00    +0.023 A 
ATOM     18  C   LIG    1      -24.404  79.392  15.744  0.00  0.00    +0.025 A 
ENDBRANCH  11  12
ENDBRANCH   9  11
ENDBRANCH   3   7
BRANCH   1  19
ATOM     19  C   LIG    1      -17.822  76.371  15.718  0.00  0.00    +0.197 C 
ATOM     20  O   LIG    1      -16.932  76.022  14.950  0.00  0.00    -0.287 OA
BRANCH  19  28
ATOM     21  N   LIG    1      -20.257  73.911  16.938  0.00  0.00    -0.329 N 
ATOM     22  C   LIG    1      -19.325  73.802  17.932  0.00  0.00    +0.147 A 
ATOM     23  N   LIG    1      -19.387  72.950  18.967  0.00  0.00    -0.197 NA
ATOM     24  C   LIG    1      -18.363  73.072  19.812  0.00  0.00    +0.214 A 
ATOM     25  N   LIG    1      -17.333  73.924  19.697  0.00  0.00    -0.222 NA
ATOM     26  C   LIG    1      -17.295  74.763  18.630  0.00  0.00    +0.126 A 
ATOM     27  C   LIG    1      -18.315  74.723  17.678  0.00  0.00    +0.048 A 
ATOM     28  C   LIG    1      -18.633  75.394  16.450  0.00  0.00    +0.051 A 
ATOM     29  C   LIG    1      -19.851  74.875  16.038  0.00  0.00    +0.100 A 
BRANCH  21  31
ATOM     30  C   LIG    1      -22.660  73.780  17.557  0.00  0.00    +0.030 C 
ATOM     31  C   LIG    1      -21.494  73.152  16.794  0.00  0.00    +0.083 C 
ATOM     32  C   LIG    1      -21.849  72.874  15.334  0.00  0.00    +0.030 C 
ENDBRANCH  21  31
BRANCH  24  33
ATOM     33  N   LIG    1      -18.344  72.202  20.889  0.00  0.00    -0.327 N 
ATOM     34  H   LIG    1      -18.859  71.370  20.655  0.00  0.00    +0.145 HD
ATOM     35  H   LIG    1      -17.394  72.079  21.213  0.00  0.00    +0.145 HD
ENDBRANCH  24  33
ENDBRANCH  19  28
ENDBRANCH   1  19
TORSDOF 7
ENDMDL
MODEL 8
REMARK VINA RESULT:      -5.7      3.449      7.160
REMARK  Name = pdb/CHEMBL3666246.pdb
REMARK                            x       y       z     vdW  Elec       q    Type
REMARK                         _______ _______ _______ _____ _____    ______ ____
ROOT
ATOM      1  C   LIG    1      -39.065  73.980  25.073  0.00  0.00    +0.042 A 
ATOM      2  C   LIG    1      -37.900  74.495  25.651  0.00  0.00    +0.038 A 
ATOM      3  C   LIG    1      -37.539  75.827  25.429  0.00  0.00    +0.052 A 
ATOM      4  C   LIG    1      -38.383  76.607  24.646  0.00  0.00    +0.134 A 
ATOM      5  N   LIG    1      -39.501  76.130  24.049  0.00  0.00    -0.261 NA
ATOM      6  C   LIG    1      -39.801  74.823  24.248  0.00  0.00    +0.122 A 
ENDROOT
BRANCH   3   7
ATOM      7  N   LIG    1      -36.343  76.284  26.008  0.00  0.00    -0.284 N 
ATOM      8  H   LIG    1      -35.541  76.407  25.388  0.00  0.00    +0.155 HD
ATOM      9  C   LIG    1      -36.184  76.764  27.293  0.00  0.00    +0.223 C 
ATOM     10  O   LIG    1      -37.075  76.806  28.140  0.00  0.00    -0.275 OA
BRANCH   9  11
ATOM     11  C   LIG    1      -34.780  77.227  27.647  0.00  0.00    +0.151 C 
BRANCH  11  12
ATOM     12  C   LIG    1      -33.868  76.150  28.184  0.00  0.00    +0.050 A 
ATOM     13  N   LIG    1      -34.265  74.859  28.004  0.00  0.00    -0.258 NA
ATOM     14  C   LIG    1      -33.463  73.884  28.502  0.00  0.00    +0.131 A 
ATOM     15  C   LIG    1      -32.274  74.131  29.164  0.00  0.00    +0.059 A 
ATOM     16 CL   LIG    1      -31.313  72.841  29.757  0.00  0.00    -0.082 Cl
ATOM     17  C   LIG    1      -31.878  75.452  29.334  0.00  0.00    +0.023 A 
ATOM     18  C   LIG    1      -32.684  76.479  28.840  0.00  0.00    +0.025 A 
ENDBRANCH  11  12
ENDBRANCH   9  11
ENDBRANCH   3   7
BRANCH   1  19
ATOM     19  C   LIG    1      -39.507  72.574  25.278  0.00  0.00    +0.197 C 
ATOM     20  O   LIG    1      -40.575  72.373  25.847  0.00  0.00    -0.287 OA
BRANCH  19  28
ATOM     21  N   LIG    1      -37.798  69.797  23.595  0.00  0.00    -0.329 N 
ATOM     22  C   LIG    1      -36.882  70.048  24.579  0.00  0.00    +0.147 A 
ATOM     23  N   LIG    1      -35.707  69.418  24.728  0.00  0.00    -0.197 NA
ATOM     24  C   LIG    1      -35.018  69.832  25.791  0.00  0.00    +0.214 A 
ATOM     25  N   LIG    1      -35.389  70.786  26.657  0.00  0.00    -0.222 NA
ATOM     26  C   LIG    1      -36.579  71.413  26.469  0.00  0.00    +0.126 A 
ATOM     27  C   LIG    1      -37.386  71.062  25.386  0.00  0.00    +0.048 A 
ATOM     28  C   LIG    1      -38.649  71.470  24.840  0.00  0.00    +0.051 A 
ATOM     29  C   LIG    1      -38.873  70.649  23.745  0.00  0.00    +0.100 A 
BRANCH  21  31
ATOM     30  C   LIG    1      -37.945  67.384  23.021  0.00  0.00    +0.030 C 
ATOM     31  C   LIG    1      -37.703  68.809  22.525  0.00  0.00    +0.083 C 
ATOM     32  C   LIG    1      -38.582  69.155  21.324  0.00  0.00    +0.030 C 
ENDBRANCH  21  31
BRANCH  24  33
ATOM     33  N   LIG    1      -33.779  69.247  25.991  0.00  0.00    -0.327 N 
ATOM     34  H   LIG    1      -33.199  69.868  26.529  0.00  0.00    +0.145 HD
ATOM     35  H   LIG    1      -33.897  68.307  26.344  0.00  0.00    +0.145 HD
ENDBRANCH  24  33
ENDBRANCH  19  28
ENDBRANCH   1  19
TORSDOF 7
ENDMDL
MODEL 9
REMARK VINA RESULT:      -5.7     21.159     23.111
REMARK  Name = pdb/CHEMBL3666246.pdb
REMARK                            x       y       z     vdW  Elec       q    Type
REMARK                         _______ _______ _______ _____ _____    ______ ____
ROOT
ATOM      1  C   LIG    1      -22.774  86.888  12.628  0.00  0.00    +0.042 A 
ATOM      2  C   LIG    1      -22.917  85.731  13.401  0.00  0.00    +0.038 A 
ATOM      3  C   LIG    1      -22.538  85.736  14.746  0.00  0.00    +0.052 A 
ATOM      4  C   LIG    1      -22.047  86.924  15.277  0.00  0.00    +0.134 A 
ATOM      5  N   LIG    1      -21.869  88.052  14.548  0.00  0.00    -0.261 NA
ATOM      6  C   LIG    1      -22.206  88.001  13.236  0.00  0.00    +0.122 A 
ENDROOT
BRANCH   3   7
ATOM      7  N   LIG    1      -22.674  84.538  15.467  0.00  0.00    -0.284 N 
ATOM      8  H   LIG    1      -23.466  84.465  16.107  0.00  0.00    +0.155 HD
ATOM      9  C   LIG    1      -21.956  83.376  15.269  0.00  0.00    +0.223 C 
ATOM     10  O   LIG    1      -21.045  83.245  14.452  0.00  0.00    -0.275 OA
BRANCH   9  11
ATOM     11  C   LIG    1      -22.333  82.214  16.174  0.00  0.00    +0.151 C 
BRANCH  11  12
ATOM     12  C   LIG    1      -23.350  81.257  15.596  0.00  0.00    +0.050 A 
ATOM     13  N   LIG    1      -24.171  81.744  14.623  0.00  0.00    -0.258 NA
ATOM     14  C   LIG    1      -25.102  80.898  14.112  0.00  0.00    +0.131 A 
ATOM     15  C   LIG    1      -25.251  79.584  14.516  0.00  0.00    +0.059 A 
ATOM     16 CL   LIG    1      -26.448  78.578  13.815  0.00  0.00    -0.082 Cl
ATOM     17  C   LIG    1      -24.401  79.100  15.503  0.00  0.00    +0.023 A 
ATOM     18  C   LIG    1      -23.437  79.945  16.055  0.00  0.00    +0.025 A 
ENDBRANCH  11  12
ENDBRANCH   9  11
ENDBRANCH   3   7
BRANCH   1  19
ATOM     19  C   LIG    1      -23.167  86.948  11.193  0.00  0.00    +0.197 C 
ATOM     20  O   LIG    1      -22.297  86.799  10.342  0.00  0.00    -0.287 OA
BRANCH  19  28
ATOM     21  N   LIG    1      -26.377  88.236   9.969  0.00  0.00    -0.329 N 
ATOM     22  C   LIG    1      -26.779  86.986  10.352  0.00  0.00    +0.147 A 
ATOM     23  N   LIG    1      -28.016  86.488  10.206  0.00  0.00    -0.197 NA
ATOM     24  C   LIG    1      -28.149  85.255  10.696  0.00  0.00    +0.214 A 
ATOM     25  N   LIG    1      -27.187  84.521  11.274  0.00  0.00    -0.222 NA
ATOM     26  C   LIG    1      -25.943  85.051  11.393  0.00  0.00    +0.126 A 
ATOM     27  C   LIG    1      -25.686  86.337  10.915  0.00  0.00    +0.048 A 
ATOM     28  C   LIG    1      -24.560  87.222  10.831  0.00  0.00    +0.051 A 
ATOM     29  C   LIG    1      -25.037  88.391  10.258  0.00  0.00    +0.100 A 
BRANCH  21  31
ATOM     30  C   LIG    1      -27.698  90.307  10.347  0.00  0.00    +0.030 C 
ATOM     31  C   LIG    1      -27.187  89.275   9.342  0.00  0.00    +0.083 C 
ATOM     32  C   LIG    1      -26.485  89.932   8.154  0.00  0.00    +0.030 C 
ENDBRANCH  21  31
BRANCH  24  33
ATOM     33  N   LIG    1      -29.393  84.664  10.552  0.00  0.00    -0.327 N 
ATOM     34  H   LIG    1      -29.972  84.909  11.337  0.00  0.00    +0.145 HD
ATOM     35  H   LIG    1      -29.761  84.860   9.631  0.00  0.00    +0.145 HD
ENDBRANCH  24  33
ENDBRANCH  19  28
ENDBRANCH   1  19
TORSDOF 7
ENDMDL
