MODEL 1
REMARK VINA RESULT:      -6.7      0.000      0.000
REMARK  Name = pdb/CHEMBL3906935.pdb
REMARK                            x       y       z     vdW  Elec       q    Type
REMARK                         _______ _______ _______ _____ _____    ______ ____
ROOT
ATOM      1  C   LIG    1      -36.787  69.795  24.663  0.00  0.00    +0.149 A 
ATOM      2  N   LIG    1      -36.348  68.822  25.475  0.00  0.00    -0.160 NA
ATOM      3  N   LIG    1      -35.614  69.441  26.427  0.00  0.00    -0.218 N 
ATOM      4  C   LIG    1      -35.416  70.795  26.126  0.00  0.00    +0.129 A 
ATOM      5  C   LIG    1      -36.219  71.041  25.035  0.00  0.00    +0.078 A 
ENDROOT
BRANCH   3   6
ATOM      6  C   LIG    1      -35.132  68.687  27.532  0.00  0.00    +0.067 A 
ATOM      7  C   LIG    1      -35.600  68.915  28.830  0.00  0.00    +0.028 A 
ATOM      8  C   LIG    1      -35.116  68.149  29.896  0.00  0.00    +0.002 A 
ATOM      9  C   LIG    1      -34.177  67.145  29.669  0.00  0.00    +0.000 A 
ATOM     10  C   LIG    1      -33.729  66.892  28.374  0.00  0.00    +0.002 A 
ATOM     11  C   LIG    1      -34.213  67.651  27.306  0.00  0.00    +0.028 A 
ENDBRANCH   3   6
BRANCH   4  12
ATOM     12  N   LIG    1      -34.526  71.687  26.744  0.00  0.00    -0.266 N 
ATOM     13  H   LIG    1      -33.599  71.765  26.337  0.00  0.00    +0.157 HD
ATOM     14  C   LIG    1      -34.865  72.539  27.859  0.00  0.00    +0.251 C 
ATOM     15  O   LIG    1      -35.978  72.523  28.347  0.00  0.00    -0.270 OA
BRANCH  14  16
ATOM     16  C   LIG    1      -33.828  73.480  28.363  0.00  0.00    +0.056 A 
ATOM     17  C   LIG    1      -32.740  73.098  29.149  0.00  0.00    +0.056 A 
ATOM     18 CL   LIG    1      -32.487  71.496  29.720  0.00  0.00    -0.083 Cl
ATOM     19  C   LIG    1      -31.800  74.042  29.553  0.00  0.00    +0.059 A 
ATOM     20  C   LIG    1      -31.953  75.379  29.203  0.00  0.00    +0.134 A 
ATOM     21  F   LIG    1      -30.976  76.214  29.584  0.00  0.00    -0.205 F 
ATOM     22  C   LIG    1      -33.052  75.836  28.465  0.00  0.00    +0.039 A 
ATOM     23  C   LIG    1      -33.979  74.854  28.040  0.00  0.00    +0.027 A 
BRANCH  22  24
ATOM     24  C   LIG    1      -33.229  77.264  28.121  0.00  0.00    +0.109 A 
ATOM     25  C   LIG    1      -32.550  77.910  27.081  0.00  0.00    +0.149 A 
ATOM     26  F   LIG    1      -31.628  77.282  26.339  0.00  0.00    -0.203 F 
ATOM     27  C   LIG    1      -32.796  79.251  26.814  0.00  0.00    +0.042 A 
ATOM     28  C   LIG    1      -33.705  79.942  27.601  0.00  0.00    +0.023 A 
ATOM     29  C   LIG    1      -34.330  79.253  28.628  0.00  0.00    +0.111 A 
ATOM     30  N   LIG    1      -34.114  77.942  28.906  0.00  0.00    -0.252 NA
ENDBRANCH  22  24
ENDBRANCH  14  16
ENDBRANCH   4  12
BRANCH   1  32
ATOM     31  N   LIG    1      -38.925  69.244  23.737  0.00  0.00    -0.208 NA
ATOM     32  C   LIG    1      -37.685  69.540  23.531  0.00  0.00    +0.241 C 
BRANCH  31  35
ATOM     33  C   LIG    1      -39.319  66.577  21.889  0.00  0.00    +0.070 C 
ATOM     34  C   LIG    1      -39.942  67.921  21.810  0.00  0.00    +0.085 A 
ATOM     35  C   LIG    1      -39.781  69.044  22.658  0.00  0.00    +0.108 A 
ATOM     36  C   LIG    1      -40.509  70.051  22.082  0.00  0.00    +0.133 A 
ATOM     37  N   LIG    1      -41.051  69.512  20.954  0.00  0.00    -0.282 N 
ATOM     38  H   LIG    1      -41.592  69.978  20.232  0.00  0.00    +0.188 HD
ATOM     39  N   LIG    1      -40.785  68.201  20.804  0.00  0.00    -0.177 NA
ENDBRANCH  31  35
BRANCH  32  40
ATOM     40  O   LIG    1      -37.077  69.631  22.324  0.00  0.00    -0.491 OA
ATOM     41  H   LIG    1      -36.186  69.252  22.354  0.00  0.00    +0.294 HD
ENDBRANCH  32  40
ENDBRANCH   1  32
TORSDOF 7
ENDMDL
MODEL 2
REMARK VINA RESULT:      -6.5     11.504     12.528
REMARK  Name = pdb/CHEMBL3906935.pdb
REMARK                            x       y       z     vdW  Elec       q    Type
REMARK                         _______ _______ _______ _____ _____    ______ ____
ROOT
ATOM      1  C   LIG    1      -30.715  66.294  19.248  0.00  0.00    +0.149 A 
ATOM      2  N   LIG    1      -29.730  65.398  19.086  0.00  0.00    -0.160 NA
ATOM      3  N   LIG    1      -28.641  66.113  18.722  0.00  0.00    -0.218 N 
ATOM      4  C   LIG    1      -28.966  67.450  18.460  0.00  0.00    +0.129 A 
ATOM      5  C   LIG    1      -30.277  67.585  18.860  0.00  0.00    +0.078 A 
ENDROOT
BRANCH   3   6
ATOM      6  C   LIG    1      -27.383  65.459  18.620  0.00  0.00    +0.067 A 
ATOM      7  C   LIG    1      -26.458  65.491  19.669  0.00  0.00    +0.028 A 
ATOM      8  C   LIG    1      -25.232  64.827  19.545  0.00  0.00    +0.002 A 
ATOM      9  C   LIG    1      -24.933  64.118  18.384  0.00  0.00    +0.000 A 
ATOM     10  C   LIG    1      -25.862  64.057  17.347  0.00  0.00    +0.002 A 
ATOM     11  C   LIG    1      -27.089  64.714  17.468  0.00  0.00    +0.028 A 
ENDBRANCH   3   6
BRANCH   4  12
ATOM     12  N   LIG    1      -28.162  68.421  17.843  0.00  0.00    -0.266 N 
ATOM     13  H   LIG    1      -28.080  68.374  16.833  0.00  0.00    +0.157 HD
ATOM     14  C   LIG    1      -27.514  69.508  18.539  0.00  0.00    +0.251 C 
ATOM     15  O   LIG    1      -27.626  69.641  19.741  0.00  0.00    -0.270 OA
BRANCH  14  16
ATOM     16  C   LIG    1      -26.746  70.496  17.733  0.00  0.00    +0.056 A 
ATOM     17  C   LIG    1      -27.303  71.296  16.735  0.00  0.00    +0.056 A 
ATOM     18 CL   LIG    1      -28.945  71.195  16.233  0.00  0.00    -0.083 Cl
ATOM     19  C   LIG    1      -26.515  72.216  16.050  0.00  0.00    +0.059 A 
ATOM     20  C   LIG    1      -25.158  72.325  16.331  0.00  0.00    +0.134 A 
ATOM     21  F   LIG    1      -24.481  73.272  15.667  0.00  0.00    -0.205 F 
ATOM     22  C   LIG    1      -24.525  71.511  17.280  0.00  0.00    +0.039 A 
ATOM     23  C   LIG    1      -25.353  70.604  17.986  0.00  0.00    +0.027 A 
BRANCH  22  24
ATOM     24  C   LIG    1      -23.074  71.606  17.556  0.00  0.00    +0.109 A 
ATOM     25  C   LIG    1      -22.470  72.689  18.204  0.00  0.00    +0.149 A 
ATOM     26  F   LIG    1      -23.167  73.770  18.581  0.00  0.00    -0.203 F 
ATOM     27  C   LIG    1      -21.100  72.684  18.441  0.00  0.00    +0.042 A 
ATOM     28  C   LIG    1      -20.344  71.604  18.012  0.00  0.00    +0.023 A 
ATOM     29  C   LIG    1      -20.998  70.572  17.360  0.00  0.00    +0.111 A 
ATOM     30  N   LIG    1      -22.334  70.548  17.121  0.00  0.00    -0.252 NA
ENDBRANCH  22  24
ENDBRANCH  14  16
ENDBRANCH   4  12
BRANCH   1  32
ATOM     31  N   LIG    1      -32.775  66.769  20.374  0.00  0.00    -0.208 NA
ATOM     32  C   LIG    1      -32.057  65.922  19.714  0.00  0.00    +0.241 C 
BRANCH  31  35
ATOM     33  C   LIG    1      -35.573  66.949  18.695  0.00  0.00    +0.070 C 
ATOM     34  C   LIG    1      -35.298  66.533  20.092  0.00  0.00    +0.085 A 
ATOM     35  C   LIG    1      -34.062  66.424  20.776  0.00  0.00    +0.108 A 
ATOM     36  C   LIG    1      -34.381  66.091  22.065  0.00  0.00    +0.133 A 
ATOM     37  N   LIG    1      -35.741  66.021  22.100  0.00  0.00    -0.282 N 
ATOM     38  H   LIG    1      -36.342  65.871  22.905  0.00  0.00    +0.188 HD
ATOM     39  N   LIG    1      -36.319  66.211  20.900  0.00  0.00    -0.177 NA
ENDBRANCH  31  35
BRANCH  32  40
ATOM     40  O   LIG    1      -32.409  64.653  19.397  0.00  0.00    -0.491 OA
ATOM     41  H   LIG    1      -32.456  64.098  20.189  0.00  0.00    +0.294 HD
ENDBRANCH  32  40
ENDBRANCH   1  32
TORSDOF 7
ENDMDL
MODEL 3
REMARK VINA RESULT:      -6.5     18.122     20.582
REMARK  Name = pdb/CHEMBL3906935.pdb
REMARK                            x       y       z     vdW  Elec       q    Type
REMARK                         _______ _______ _______ _____ _____    ______ ____
ROOT
ATOM      1  C   LIG    1      -24.842  79.107  14.322  0.00  0.00    +0.149 A 
ATOM      2  N   LIG    1      -23.696  78.481  14.628  0.00  0.00    -0.160 NA
ATOM      3  N   LIG    1      -22.790  79.461  14.848  0.00  0.00    -0.218 N 
ATOM      4  C   LIG    1      -23.297  80.719  14.498  0.00  0.00    +0.129 A 
ATOM      5  C   LIG    1      -24.629  80.506  14.225  0.00  0.00    +0.078 A 
ENDROOT
BRANCH   3   6
ATOM      6  C   LIG    1      -21.502  79.118  15.344  0.00  0.00    +0.067 A 
ATOM      7  C   LIG    1      -20.821  79.948  16.239  0.00  0.00    +0.028 A 
ATOM      8  C   LIG    1      -19.559  79.578  16.720  0.00  0.00    +0.002 A 
ATOM      9  C   LIG    1      -18.982  78.374  16.321  0.00  0.00    +0.000 A 
ATOM     10  C   LIG    1      -19.669  77.528  15.453  0.00  0.00    +0.002 A 
ATOM     11  C   LIG    1      -20.931  77.891  14.974  0.00  0.00    +0.028 A 
ENDBRANCH   3   6
BRANCH   4  12
ATOM     12  N   LIG    1      -22.584  81.922  14.367  0.00  0.00    -0.266 N 
ATOM     13  H   LIG    1      -22.607  82.557  15.158  0.00  0.00    +0.157 HD
ATOM     14  C   LIG    1      -21.775  82.271  13.223  0.00  0.00    +0.251 C 
ATOM     15  O   LIG    1      -21.670  81.520  12.273  0.00  0.00    -0.270 OA
BRANCH  14  16
ATOM     16  C   LIG    1      -21.028  83.557  13.261  0.00  0.00    +0.056 A 
ATOM     17  C   LIG    1      -19.716  83.688  13.720  0.00  0.00    +0.056 A 
ATOM     18 CL   LIG    1      -18.803  82.392  14.388  0.00  0.00    -0.083 Cl
ATOM     19  C   LIG    1      -19.082  84.926  13.693  0.00  0.00    +0.059 A 
ATOM     20  C   LIG    1      -19.759  86.052  13.237  0.00  0.00    +0.134 A 
ATOM     21  F   LIG    1      -19.061  87.194  13.191  0.00  0.00    -0.205 F 
ATOM     22  C   LIG    1      -21.094  86.000  12.817  0.00  0.00    +0.039 A 
ATOM     23  C   LIG    1      -21.709  84.724  12.825  0.00  0.00    +0.027 A 
BRANCH  22  24
ATOM     24  C   LIG    1      -21.824  87.204  12.362  0.00  0.00    +0.109 A 
ATOM     25  C   LIG    1      -22.623  87.997  13.194  0.00  0.00    +0.149 A 
ATOM     26  F   LIG    1      -22.835  87.686  14.480  0.00  0.00    -0.203 F 
ATOM     27  C   LIG    1      -23.255  89.125  12.685  0.00  0.00    +0.042 A 
ATOM     28  C   LIG    1      -23.098  89.441  11.344  0.00  0.00    +0.023 A 
ATOM     29  C   LIG    1      -22.311  88.607  10.568  0.00  0.00    +0.111 A 
ATOM     30  N   LIG    1      -21.677  87.503  11.040  0.00  0.00    -0.252 NA
ENDBRANCH  22  24
ENDBRANCH  14  16
ENDBRANCH   4  12
BRANCH   1  32
ATOM     31  N   LIG    1      -26.539  78.235  12.875  0.00  0.00    -0.208 NA
ATOM     32  C   LIG    1      -26.098  78.388  14.080  0.00  0.00    +0.241 C 
BRANCH  31  35
ATOM     33  C   LIG    1      -27.011  75.002  12.931  0.00  0.00    +0.070 C 
ATOM     34  C   LIG    1      -27.936  76.119  12.620  0.00  0.00    +0.085 A 
ATOM     35  C   LIG    1      -27.709  77.516  12.649  0.00  0.00    +0.108 A 
ATOM     36  C   LIG    1      -28.863  78.089  12.185  0.00  0.00    +0.133 A 
ATOM     37  N   LIG    1      -29.699  77.051  11.904  0.00  0.00    -0.282 N 
ATOM     38  H   LIG    1      -30.618  77.084  11.472  0.00  0.00    +0.188 HD
ATOM     39  N   LIG    1      -29.191  75.849  12.228  0.00  0.00    -0.177 NA
ENDBRANCH  31  35
BRANCH  32  40
ATOM     40  O   LIG    1      -26.702  77.953  15.211  0.00  0.00    -0.491 OA
ATOM     41  H   LIG    1      -26.496  78.532  15.960  0.00  0.00    +0.294 HD
ENDBRANCH  32  40
ENDBRANCH   1  32
TORSDOF 7
ENDMDL
MODEL 4
REMARK VINA RESULT:      -6.4      4.316     10.738
REMARK  Name = pdb/CHEMBL3906935.pdb
REMARK                            x       y       z     vdW  Elec       q    Type
REMARK                         _______ _______ _______ _____ _____    ______ ____
ROOT
ATOM      1  C   LIG    1      -37.260  77.226  26.805  0.00  0.00    +0.149 A 
ATOM      2  N   LIG    1      -38.292  77.318  25.954  0.00  0.00    -0.160 NA
ATOM      3  N   LIG    1      -38.504  76.062  25.497  0.00  0.00    -0.218 N 
ATOM      4  C   LIG    1      -37.488  75.188  25.904  0.00  0.00    +0.129 A 
ATOM      5  C   LIG    1      -36.727  75.911  26.795  0.00  0.00    +0.078 A 
ENDROOT
BRANCH   3   6
ATOM      6  C   LIG    1      -39.640  75.803  24.682  0.00  0.00    +0.067 A 
ATOM      7  C   LIG    1      -40.138  74.507  24.519  0.00  0.00    +0.028 A 
ATOM      8  C   LIG    1      -41.265  74.283  23.720  0.00  0.00    +0.002 A 
ATOM      9  C   LIG    1      -41.906  75.352  23.096  0.00  0.00    +0.000 A 
ATOM     10  C   LIG    1      -41.432  76.649  23.279  0.00  0.00    +0.002 A 
ATOM     11  C   LIG    1      -40.310  76.878  24.079  0.00  0.00    +0.028 A 
ENDBRANCH   3   6
BRANCH   4  12
ATOM     12  N   LIG    1      -37.243  73.886  25.439  0.00  0.00    -0.266 N 
ATOM     13  H   LIG    1      -36.715  73.799  24.577  0.00  0.00    +0.157 HD
ATOM     14  C   LIG    1      -37.628  72.683  26.139  0.00  0.00    +0.251 C 
ATOM     15  O   LIG    1      -38.213  72.734  27.203  0.00  0.00    -0.270 OA
BRANCH  14  16
ATOM     16  C   LIG    1      -37.239  71.374  25.547  0.00  0.00    +0.056 A 
ATOM     17  C   LIG    1      -36.094  70.662  25.905  0.00  0.00    +0.056 A 
ATOM     18 CL   LIG    1      -34.920  71.236  27.023  0.00  0.00    -0.083 Cl
ATOM     19  C   LIG    1      -35.822  69.428  25.320  0.00  0.00    +0.059 A 
ATOM     20  C   LIG    1      -36.673  68.909  24.350  0.00  0.00    +0.134 A 
ATOM     21  F   LIG    1      -36.370  67.692  23.878  0.00  0.00    -0.205 F 
ATOM     22  C   LIG    1      -37.807  69.599  23.905  0.00  0.00    +0.039 A 
ATOM     23  C   LIG    1      -38.079  70.838  24.536  0.00  0.00    +0.027 A 
BRANCH  22  24
ATOM     24  C   LIG    1      -38.694  69.059  22.851  0.00  0.00    +0.109 A 
ATOM     25  C   LIG    1      -38.321  68.919  21.509  0.00  0.00    +0.149 A 
ATOM     26  F   LIG    1      -37.125  69.325  21.060  0.00  0.00    -0.203 F 
ATOM     27  C   LIG    1      -39.213  68.381  20.590  0.00  0.00    +0.042 A 
ATOM     28  C   LIG    1      -40.477  68.004  21.016  0.00  0.00    +0.023 A 
ATOM     29  C   LIG    1      -40.794  68.185  22.352  0.00  0.00    +0.111 A 
ATOM     30  N   LIG    1      -39.940  68.702  23.272  0.00  0.00    -0.252 NA
ENDBRANCH  22  24
ENDBRANCH  14  16
ENDBRANCH   4  12
BRANCH   1  32
ATOM     31  N   LIG    1      -35.497  78.642  27.595  0.00  0.00    -0.208 NA
ATOM     32  C   LIG    1      -36.760  78.372  27.574  0.00  0.00    +0.241 C 
BRANCH  31  35
ATOM     33  C   LIG    1      -34.931  78.978  30.796  0.00  0.00    +0.070 C 
ATOM     34  C   LIG    1      -34.824  79.948  29.678  0.00  0.00    +0.085 A 
ATOM     35  C   LIG    1      -35.035  79.755  28.291  0.00  0.00    +0.108 A 
ATOM     36  C   LIG    1      -34.897  80.992  27.719  0.00  0.00    +0.133 A 
ATOM     37  N   LIG    1      -34.624  81.842  28.748  0.00  0.00    -0.282 N 
ATOM     38  H   LIG    1      -34.531  82.853  28.721  0.00  0.00    +0.188 HD
ATOM     39  N   LIG    1      -34.500  81.224  29.937  0.00  0.00    -0.177 NA
ENDBRANCH  31  35
BRANCH  32  40
ATOM     40  O   LIG    1      -37.732  79.052  28.228  0.00  0.00    -0.491 OA
ATOM     41  H   LIG    1      -38.606  78.839  27.871  0.00  0.00    +0.294 HD
ENDBRANCH  32  40
ENDBRANCH   1  32
TORSDOF 7
ENDMDL
MODEL 5
REMARK VINA RESULT:      -6.4      4.902      9.824
REMARK  Name = pdb/CHEMBL3906935.pdb
REMARK                            x       y       z     vdW  Elec       q    Type
REMARK                         _______ _______ _______ _____ _____    ______ ____
ROOT
ATOM      1  C   LIG    1      -32.136  73.817  29.755  0.00  0.00    +0.149 A 
ATOM      2  N   LIG    1      -31.870  75.072  29.362  0.00  0.00    -0.160 NA
ATOM      3  N   LIG    1      -32.923  75.449  28.602  0.00  0.00    -0.218 N 
ATOM      4  C   LIG    1      -33.783  74.374  28.343  0.00  0.00    +0.129 A 
ATOM      5  C   LIG    1      -33.320  73.346  29.133  0.00  0.00    +0.078 A 
ENDROOT
BRANCH   3   6
ATOM      6  C   LIG    1      -33.010  76.796  28.156  0.00  0.00    +0.067 A 
ATOM      7  C   LIG    1      -32.253  77.256  27.073  0.00  0.00    +0.028 A 
ATOM      8  C   LIG    1      -32.368  78.585  26.649  0.00  0.00    +0.002 A 
ATOM      9  C   LIG    1      -33.248  79.453  27.293  0.00  0.00    +0.000 A 
ATOM     10  C   LIG    1      -34.027  78.993  28.353  0.00  0.00    +0.002 A 
ATOM     11  C   LIG    1      -33.919  77.666  28.777  0.00  0.00    +0.028 A 
ENDBRANCH   3   6
BRANCH   4  12
ATOM     12  N   LIG    1      -34.834  74.325  27.414  0.00  0.00    -0.266 N 
ATOM     13  H   LIG    1      -34.581  74.356  26.432  0.00  0.00    +0.157 HD
ATOM     14  C   LIG    1      -36.226  74.163  27.763  0.00  0.00    +0.251 C 
ATOM     15  O   LIG    1      -36.577  74.065  28.923  0.00  0.00    -0.270 OA
BRANCH  14  16
ATOM     16  C   LIG    1      -37.218  74.064  26.659  0.00  0.00    +0.056 A 
ATOM     17  C   LIG    1      -37.525  72.881  25.985  0.00  0.00    +0.056 A 
ATOM     18 CL   LIG    1      -36.736  71.380  26.278  0.00  0.00    -0.083 Cl
ATOM     19  C   LIG    1      -38.489  72.873  24.981  0.00  0.00    +0.059 A 
ATOM     20  C   LIG    1      -39.134  74.051  24.619  0.00  0.00    +0.134 A 
ATOM     21  F   LIG    1      -40.088  73.948  23.683  0.00  0.00    -0.205 F 
ATOM     22  C   LIG    1      -38.832  75.281  25.216  0.00  0.00    +0.039 A 
ATOM     23  C   LIG    1      -37.869  75.259  26.254  0.00  0.00    +0.027 A 
BRANCH  22  24
ATOM     24  C   LIG    1      -39.497  76.538  24.808  0.00  0.00    +0.109 A 
ATOM     25  C   LIG    1      -38.928  77.481  23.944  0.00  0.00    +0.149 A 
ATOM     26  F   LIG    1      -37.689  77.338  23.455  0.00  0.00    -0.203 F 
ATOM     27  C   LIG    1      -39.635  78.626  23.597  0.00  0.00    +0.042 A 
ATOM     28  C   LIG    1      -40.898  78.828  24.131  0.00  0.00    +0.023 A 
ATOM     29  C   LIG    1      -41.399  77.868  24.996  0.00  0.00    +0.111 A 
ATOM     30  N   LIG    1      -40.733  76.739  25.346  0.00  0.00    -0.252 NA
ENDBRANCH  22  24
ENDBRANCH  14  16
ENDBRANCH   4  12
BRANCH   1  32
ATOM     31  N   LIG    1      -30.129  72.605  30.242  0.00  0.00    -0.208 NA
ATOM     32  C   LIG    1      -31.260  73.067  30.662  0.00  0.00    +0.241 C 
BRANCH  31  35
ATOM     33  C   LIG    1      -27.855  73.820  32.250  0.00  0.00    +0.070 C 
ATOM     34  C   LIG    1      -28.259  72.421  31.965  0.00  0.00    +0.085 A 
ATOM     35  C   LIG    1      -29.284  71.931  31.118  0.00  0.00    +0.108 A 
ATOM     36  C   LIG    1      -29.168  70.567  31.148  0.00  0.00    +0.133 A 
ATOM     37  N   LIG    1      -28.117  70.307  31.975  0.00  0.00    -0.282 N 
ATOM     38  H   LIG    1      -27.687  69.410  32.183  0.00  0.00    +0.188 HD
ATOM     39  N   LIG    1      -27.595  71.409  32.543  0.00  0.00    -0.177 NA
ENDBRANCH  31  35
BRANCH  32  40
ATOM     40  O   LIG    1      -31.768  72.917  31.909  0.00  0.00    -0.491 OA
ATOM     41  H   LIG    1      -31.063  72.792  32.559  0.00  0.00    +0.294 HD
ENDBRANCH  32  40
ENDBRANCH   1  32
TORSDOF 7
ENDMDL
MODEL 6
REMARK VINA RESULT:      -6.4      6.180     11.980
REMARK  Name = pdb/CHEMBL3906935.pdb
REMARK                            x       y       z     vdW  Elec       q    Type
REMARK                         _______ _______ _______ _____ _____    ______ ____
ROOT
ATOM      1  C   LIG    1      -37.081  76.324  26.163  0.00  0.00    +0.149 A 
ATOM      2  N   LIG    1      -37.741  77.455  25.872  0.00  0.00    -0.160 NA
ATOM      3  N   LIG    1      -38.866  77.067  25.228  0.00  0.00    -0.218 N 
ATOM      4  C   LIG    1      -38.844  75.699  24.932  0.00  0.00    +0.129 A 
ATOM      5  C   LIG    1      -37.737  75.207  25.586  0.00  0.00    +0.078 A 
ENDROOT
BRANCH   3   6
ATOM      6  C   LIG    1      -39.857  78.038  24.918  0.00  0.00    +0.067 A 
ATOM      7  C   LIG    1      -41.145  77.962  25.457  0.00  0.00    +0.028 A 
ATOM      8  C   LIG    1      -42.097  78.939  25.144  0.00  0.00    +0.002 A 
ATOM      9  C   LIG    1      -41.763  80.001  24.306  0.00  0.00    +0.000 A 
ATOM     10  C   LIG    1      -40.472  80.099  23.789  0.00  0.00    +0.002 A 
ATOM     11  C   LIG    1      -39.517  79.129  24.104  0.00  0.00    +0.028 A 
ENDBRANCH   3   6
BRANCH   4  12
ATOM     12  N   LIG    1      -39.711  74.994  24.081  0.00  0.00    -0.266 N 
ATOM     13  H   LIG    1      -39.497  75.016  23.089  0.00  0.00    +0.157 HD
ATOM     14  C   LIG    1      -40.826  74.195  24.531  0.00  0.00    +0.251 C 
ATOM     15  O   LIG    1      -41.091  74.091  25.712  0.00  0.00    -0.270 OA
BRANCH  14  16
ATOM     16  C   LIG    1      -41.614  73.455  23.508  0.00  0.00    +0.056 A 
ATOM     17  C   LIG    1      -42.691  73.996  22.806  0.00  0.00    +0.056 A 
ATOM     18 CL   LIG    1      -43.318  75.574  23.082  0.00  0.00    -0.083 Cl
ATOM     19  C   LIG    1      -43.355  73.240  21.844  0.00  0.00    +0.059 A 
ATOM     20  C   LIG    1      -42.971  71.927  21.596  0.00  0.00    +0.134 A 
ATOM     21  F   LIG    1      -43.623  71.286  20.617  0.00  0.00    -0.205 F 
ATOM     22  C   LIG    1      -41.936  71.305  22.306  0.00  0.00    +0.039 A 
ATOM     23  C   LIG    1      -41.256  72.103  23.258  0.00  0.00    +0.027 A 
BRANCH  22  24
ATOM     24  C   LIG    1      -41.549  69.898  22.063  0.00  0.00    +0.109 A 
ATOM     25  C   LIG    1      -42.297  68.795  22.490  0.00  0.00    +0.149 A 
ATOM     26  F   LIG    1      -43.416  68.934  23.215  0.00  0.00    -0.203 F 
ATOM     27  C   LIG    1      -41.868  67.505  22.198  0.00  0.00    +0.042 A 
ATOM     28  C   LIG    1      -40.685  67.329  21.497  0.00  0.00    +0.023 A 
ATOM     29  C   LIG    1      -39.979  68.460  21.119  0.00  0.00    +0.111 A 
ATOM     30  N   LIG    1      -40.378  69.730  21.385  0.00  0.00    -0.252 NA
ENDBRANCH  22  24
ENDBRANCH  14  16
ENDBRANCH   4  12
BRANCH   1  32
ATOM     31  N   LIG    1      -35.311  77.417  27.350  0.00  0.00    -0.208 NA
ATOM     32  C   LIG    1      -35.830  76.311  26.930  0.00  0.00    +0.241 C 
BRANCH  31  35
ATOM     33  C   LIG    1      -32.202  77.650  26.368  0.00  0.00    +0.070 C 
ATOM     34  C   LIG    1      -32.788  77.446  27.715  0.00  0.00    +0.085 A 
ATOM     35  C   LIG    1      -34.147  77.394  28.112  0.00  0.00    +0.108 A 
ATOM     36  C   LIG    1      -34.132  77.091  29.448  0.00  0.00    +0.133 A 
ATOM     37  N   LIG    1      -32.816  76.974  29.781  0.00  0.00    -0.282 N 
ATOM     38  H   LIG    1      -32.416  76.685  30.669  0.00  0.00    +0.188 HD
ATOM     39  N   LIG    1      -31.978  77.258  28.768  0.00  0.00    -0.177 NA
ENDBRANCH  31  35
BRANCH  32  40
ATOM     40  O   LIG    1      -35.316  75.070  27.112  0.00  0.00    -0.491 OA
ATOM     41  H   LIG    1      -35.996  74.392  26.990  0.00  0.00    +0.294 HD
ENDBRANCH  32  40
ENDBRANCH   1  32
TORSDOF 7
ENDMDL
MODEL 7
REMARK VINA RESULT:      -6.4     16.763     18.671
REMARK  Name = pdb/CHEMBL3906935.pdb
REMARK                            x       y       z     vdW  Elec       q    Type
REMARK                         _______ _______ _______ _____ _____    ______ ____
ROOT
ATOM      1  C   LIG    1      -33.314  81.006  10.584  0.00  0.00    +0.149 A 
ATOM      2  N   LIG    1      -33.448  80.023   9.681  0.00  0.00    -0.160 NA
ATOM      3  N   LIG    1      -32.699  78.996  10.143  0.00  0.00    -0.218 N 
ATOM      4  C   LIG    1      -31.925  79.378  11.246  0.00  0.00    +0.129 A 
ATOM      5  C   LIG    1      -32.364  80.642  11.572  0.00  0.00    +0.078 A 
ENDROOT
BRANCH   3   6
ATOM      6  C   LIG    1      -32.755  77.741   9.477  0.00  0.00    +0.067 A 
ATOM      7  C   LIG    1      -31.809  77.385   8.511  0.00  0.00    +0.028 A 
ATOM      8  C   LIG    1      -31.883  76.138   7.880  0.00  0.00    +0.002 A 
ATOM      9  C   LIG    1      -32.891  75.238   8.222  0.00  0.00    +0.000 A 
ATOM     10  C   LIG    1      -33.819  75.575   9.206  0.00  0.00    +0.002 A 
ATOM     11  C   LIG    1      -33.746  76.816   9.841  0.00  0.00    +0.028 A 
ENDBRANCH   3   6
BRANCH   4  12
ATOM     12  N   LIG    1      -30.869  78.667  11.837  0.00  0.00    -0.266 N 
ATOM     13  H   LIG    1      -31.084  78.140  12.677  0.00  0.00    +0.157 HD
ATOM     14  C   LIG    1      -29.535  78.582  11.292  0.00  0.00    +0.251 C 
ATOM     15  O   LIG    1      -29.240  79.150  10.258  0.00  0.00    -0.270 OA
BRANCH  14  16
ATOM     16  C   LIG    1      -28.540  77.734  12.003  0.00  0.00    +0.056 A 
ATOM     17  C   LIG    1      -28.642  76.348  12.132  0.00  0.00    +0.056 A 
ATOM     18 CL   LIG    1      -29.978  75.429  11.559  0.00  0.00    -0.083 Cl
ATOM     19  C   LIG    1      -27.648  75.629  12.790  0.00  0.00    +0.059 A 
ATOM     20  C   LIG    1      -26.561  76.288  13.353  0.00  0.00    +0.134 A 
ATOM     21  F   LIG    1      -25.622  75.518  13.920  0.00  0.00    -0.205 F 
ATOM     22  C   LIG    1      -26.428  77.681  13.309  0.00  0.00    +0.039 A 
ATOM     23  C   LIG    1      -27.435  78.389  12.608  0.00  0.00    +0.027 A 
BRANCH  22  24
ATOM     24  C   LIG    1      -25.286  78.383  13.935  0.00  0.00    +0.109 A 
ATOM     25  C   LIG    1      -25.325  78.963  15.208  0.00  0.00    +0.149 A 
ATOM     26  F   LIG    1      -26.442  78.973  15.948  0.00  0.00    -0.203 F 
ATOM     27  C   LIG    1      -24.196  79.585  15.727  0.00  0.00    +0.042 A 
ATOM     28  C   LIG    1      -23.041  79.637  14.961  0.00  0.00    +0.023 A 
ATOM     29  C   LIG    1      -23.071  79.063  13.701  0.00  0.00    +0.111 A 
ATOM     30  N   LIG    1      -24.157  78.444  13.172  0.00  0.00    -0.252 NA
ENDBRANCH  22  24
ENDBRANCH  14  16
ENDBRANCH   4  12
BRANCH   1  32
ATOM     31  N   LIG    1      -34.493  82.857  11.543  0.00  0.00    -0.208 NA
ATOM     32  C   LIG    1      -34.034  82.281  10.482  0.00  0.00    +0.241 C 
BRANCH  31  35
ATOM     33  C   LIG    1      -33.196  85.846  11.290  0.00  0.00    +0.070 C 
ATOM     34  C   LIG    1      -34.607  85.398  11.380  0.00  0.00    +0.085 A 
ATOM     35  C   LIG    1      -35.137  84.086  11.444  0.00  0.00    +0.108 A 
ATOM     36  C   LIG    1      -36.488  84.240  11.609  0.00  0.00    +0.133 A 
ATOM     37  N   LIG    1      -36.702  85.585  11.641  0.00  0.00    -0.282 N 
ATOM     38  H   LIG    1      -37.571  86.079  11.822  0.00  0.00    +0.188 HD
ATOM     39  N   LIG    1      -35.589  86.311  11.429  0.00  0.00    -0.177 NA
ENDBRANCH  31  35
BRANCH  32  40
ATOM     40  O   LIG    1      -34.161  82.733   9.211  0.00  0.00    -0.491 OA
ATOM     41  H   LIG    1      -33.896  82.054   8.573  0.00  0.00    +0.294 HD
ENDBRANCH  32  40
ENDBRANCH   1  32
TORSDOF 7
ENDMDL
MODEL 8
REMARK VINA RESULT:      -6.4     17.210     19.661
REMARK  Name = pdb/CHEMBL3906935.pdb
REMARK                            x       y       z     vdW  Elec       q    Type
REMARK                         _______ _______ _______ _____ _____    ______ ____
ROOT
ATOM      1  C   LIG    1      -26.180  77.727  14.025  0.00  0.00    +0.149 A 
ATOM      2  N   LIG    1      -24.932  77.722  14.516  0.00  0.00    -0.160 NA
ATOM      3  N   LIG    1      -24.542  79.018  14.538  0.00  0.00    -0.218 N 
ATOM      4  C   LIG    1      -25.463  79.844  13.883  0.00  0.00    +0.129 A 
ATOM      5  C   LIG    1      -26.543  79.034  13.613  0.00  0.00    +0.078 A 
ENDROOT
BRANCH   3   6
ATOM      6  C   LIG    1      -23.307  79.360  15.154  0.00  0.00    +0.067 A 
ATOM      7  C   LIG    1      -22.119  78.701  14.821  0.00  0.00    +0.028 A 
ATOM      8  C   LIG    1      -20.916  79.068  15.435  0.00  0.00    +0.002 A 
ATOM      9  C   LIG    1      -20.892  80.102  16.369  0.00  0.00    +0.000 A 
ATOM     10  C   LIG    1      -22.067  80.783  16.682  0.00  0.00    +0.002 A 
ATOM     11  C   LIG    1      -23.269  80.424  16.068  0.00  0.00    +0.028 A 
ENDBRANCH   3   6
BRANCH   4  12
ATOM     12  N   LIG    1      -25.291  81.184  13.503  0.00  0.00    -0.266 N 
ATOM     13  H   LIG    1      -25.701  81.889  14.108  0.00  0.00    +0.157 HD
ATOM     14  C   LIG    1      -24.516  81.618  12.365  0.00  0.00    +0.251 C 
ATOM     15  O   LIG    1      -23.958  80.817  11.641  0.00  0.00    -0.270 OA
BRANCH  14  16
ATOM     16  C   LIG    1      -24.374  83.080  12.130  0.00  0.00    +0.056 A 
ATOM     17  C   LIG    1      -25.298  83.855  11.429  0.00  0.00    +0.056 A 
ATOM     18 CL   LIG    1      -26.697  83.214  10.660  0.00  0.00    -0.083 Cl
ATOM     19  C   LIG    1      -25.100  85.225  11.281  0.00  0.00    +0.059 A 
ATOM     20  C   LIG    1      -23.962  85.829  11.805  0.00  0.00    +0.134 A 
ATOM     21  F   LIG    1      -23.873  87.159  11.668  0.00  0.00    -0.205 F 
ATOM     22  C   LIG    1      -22.968  85.100  12.469  0.00  0.00    +0.039 A 
ATOM     23  C   LIG    1      -23.206  83.713  12.633  0.00  0.00    +0.027 A 
BRANCH  22  24
ATOM     24  C   LIG    1      -21.743  85.739  12.998  0.00  0.00    +0.109 A 
ATOM     25  C   LIG    1      -21.727  86.623  14.083  0.00  0.00    +0.149 A 
ATOM     26  F   LIG    1      -22.852  87.007  14.702  0.00  0.00    -0.203 F 
ATOM     27  C   LIG    1      -20.525  87.161  14.527  0.00  0.00    +0.042 A 
ATOM     28  C   LIG    1      -19.351  86.825  13.870  0.00  0.00    +0.023 A 
ATOM     29  C   LIG    1      -19.435  85.961  12.791  0.00  0.00    +0.111 A 
ATOM     30  N   LIG    1      -20.593  85.416  12.341  0.00  0.00    -0.252 NA
ENDBRANCH  22  24
ENDBRANCH  14  16
ENDBRANCH   4  12
BRANCH   1  32
ATOM     31  N   LIG    1      -26.729  75.641  12.985  0.00  0.00    -0.208 NA
ATOM     32  C   LIG    1      -26.990  76.508  13.906  0.00  0.00    +0.241 C 
BRANCH  31  35
ATOM     33  C   LIG    1      -29.604  75.126  11.518  0.00  0.00    +0.070 C 
ATOM     34  C   LIG    1      -28.740  74.223  12.318  0.00  0.00    +0.085 A 
ATOM     35  C   LIG    1      -27.474  74.468  12.903  0.00  0.00    +0.108 A 
ATOM     36  C   LIG    1      -27.166  73.334  13.607  0.00  0.00    +0.133 A 
ATOM     37  N   LIG    1      -28.221  72.492  13.424  0.00  0.00    -0.282 N 
ATOM     38  H   LIG    1      -28.383  71.585  13.852  0.00  0.00    +0.188 HD
ATOM     39  N   LIG    1      -29.156  72.976  12.586  0.00  0.00    -0.177 NA
ENDBRANCH  31  35
BRANCH  32  40
ATOM     40  O   LIG    1      -27.990  76.429  14.816  0.00  0.00    -0.491 OA
ATOM     41  H   LIG    1      -28.251  75.510  14.966  0.00  0.00    +0.294 HD
ENDBRANCH  32  40
ENDBRANCH   1  32
TORSDOF 7
ENDMDL
MODEL 9
REMARK VINA RESULT:      -6.3      8.993     16.736
REMARK  Name = pdb/CHEMBL3906935.pdb
REMARK                            x       y       z     vdW  Elec       q    Type
REMARK                         _______ _______ _______ _____ _____    ______ ____
ROOT
ATOM      1  C   LIG    1      -31.422  86.797  31.179  0.00  0.00    +0.149 A 
ATOM      2  N   LIG    1      -32.230  87.658  30.542  0.00  0.00    -0.160 NA
ATOM      3  N   LIG    1      -33.243  86.910  30.045  0.00  0.00    -0.218 N 
ATOM      4  C   LIG    1      -32.993  85.540  30.196  0.00  0.00    +0.129 A 
ATOM      5  C   LIG    1      -31.864  85.465  30.979  0.00  0.00    +0.078 A 
ENDROOT
BRANCH   3   6
ATOM      6  C   LIG    1      -34.352  87.561  29.439  0.00  0.00    +0.067 A 
ATOM      7  C   LIG    1      -34.176  88.527  28.444  0.00  0.00    +0.028 A 
ATOM      8  C   LIG    1      -35.287  89.142  27.856  0.00  0.00    +0.002 A 
ATOM      9  C   LIG    1      -36.576  88.783  28.249  0.00  0.00    +0.000 A 
ATOM     10  C   LIG    1      -36.759  87.799  29.218  0.00  0.00    +0.002 A 
ATOM     11  C   LIG    1      -35.653  87.179  29.804  0.00  0.00    +0.028 A 
ENDBRANCH   3   6
BRANCH   4  12
ATOM     12  N   LIG    1      -33.690  84.475  29.604  0.00  0.00    -0.266 N 
ATOM     13  H   LIG    1      -33.473  84.267  28.634  0.00  0.00    +0.157 HD
ATOM     14  C   LIG    1      -34.626  83.624  30.300  0.00  0.00    +0.251 C 
ATOM     15  O   LIG    1      -34.879  83.796  31.476  0.00  0.00    -0.270 OA
BRANCH  14  16
ATOM     16  C   LIG    1      -35.237  82.493  29.549  0.00  0.00    +0.056 A 
ATOM     17  C   LIG    1      -36.604  82.364  29.302  0.00  0.00    +0.056 A 
ATOM     18 CL   LIG    1      -37.792  83.453  29.903  0.00  0.00    -0.083 Cl
ATOM     19  C   LIG    1      -37.086  81.287  28.565  0.00  0.00    +0.059 A 
ATOM     20  C   LIG    1      -36.214  80.312  28.094  0.00  0.00    +0.134 A 
ATOM     21  F   LIG    1      -36.750  79.338  27.346  0.00  0.00    -0.205 F 
ATOM     22  C   LIG    1      -34.839  80.352  28.356  0.00  0.00    +0.039 A 
ATOM     23  C   LIG    1      -34.367  81.473  29.082  0.00  0.00    +0.027 A 
BRANCH  22  24
ATOM     24  C   LIG    1      -33.916  79.297  27.881  0.00  0.00    +0.109 A 
ATOM     25  C   LIG    1      -33.752  78.058  28.511  0.00  0.00    +0.149 A 
ATOM     26  F   LIG    1      -34.392  77.750  29.647  0.00  0.00    -0.203 F 
ATOM     27  C   LIG    1      -32.877  77.117  27.982  0.00  0.00    +0.042 A 
ATOM     28  C   LIG    1      -32.159  77.430  26.837  0.00  0.00    +0.023 A 
ATOM     29  C   LIG    1      -32.351  78.680  26.272  0.00  0.00    +0.111 A 
ATOM     30  N   LIG    1      -33.203  79.615  26.763  0.00  0.00    -0.252 NA
ENDBRANCH  22  24
ENDBRANCH  14  16
ENDBRANCH   4  12
BRANCH   1  32
ATOM     31  N   LIG    1      -30.263  87.326  33.208  0.00  0.00    -0.208 NA
ATOM     32  C   LIG    1      -30.230  87.228  31.920  0.00  0.00    +0.241 C 
BRANCH  31  35
ATOM     33  C   LIG    1      -28.188  85.447  34.894  0.00  0.00    +0.070 C 
ATOM     34  C   LIG    1      -28.226  86.915  34.684  0.00  0.00    +0.085 A 
ATOM     35  C   LIG    1      -29.118  87.694  33.907  0.00  0.00    +0.108 A 
ATOM     36  C   LIG    1      -28.766  88.998  34.135  0.00  0.00    +0.133 A 
ATOM     37  N   LIG    1      -27.722  88.948  35.008  0.00  0.00    -0.282 N 
ATOM     38  H   LIG    1      -27.244  89.721  35.462  0.00  0.00    +0.188 HD
ATOM     39  N   LIG    1      -27.325  87.695  35.299  0.00  0.00    -0.177 NA
ENDBRANCH  31  35
BRANCH  32  40
ATOM     40  O   LIG    1      -29.169  87.509  31.126  0.00  0.00    -0.491 OA
ATOM     41  H   LIG    1      -28.927  86.744  30.586  0.00  0.00    +0.294 HD
ENDBRANCH  32  40
ENDBRANCH   1  32
TORSDOF 7
ENDMDL
