MODEL 1
REMARK VINA RESULT:      -6.8      0.000      0.000
REMARK  Name = pdb/CHEMBL3959200.pdb
REMARK                            x       y       z     vdW  Elec       q    Type
REMARK                         _______ _______ _______ _____ _____    ______ ____
ROOT
ATOM      1  C   LIG    1      -34.605  80.047  27.960  0.00  0.00    +0.133 A 
ATOM      2  C   LIG    1      -35.700  79.320  28.376  0.00  0.00    +0.183 A 
ATOM      3  N   LIG    1      -36.395  78.318  27.776  0.00  0.00    -0.211 NA
ATOM      4  C   LIG    1      -37.474  77.854  28.379  0.00  0.00    +0.126 A 
ATOM      5  C   LIG    1      -37.944  78.428  29.692  0.00  0.00    +0.063 A 
ATOM      6  C   LIG    1      -37.234  79.420  30.231  0.00  0.00    +0.118 A 
ATOM      7  N   LIG    1      -36.099  79.903  29.581  0.00  0.00    -0.220 N 
ATOM      8  N   LIG    1      -35.263  80.893  29.980  0.00  0.00    -0.171 NA
ATOM      9  C   LIG    1      -34.347  80.960  29.008  0.00  0.00    +0.165 A 
ENDROOT
BRANCH   4  10
ATOM     10  N   LIG    1      -38.171  76.844  27.733  0.00  0.00    -0.308 N 
ATOM     11  C   LIG    1      -37.701  76.400  26.402  0.00  0.00    +0.108 C 
ATOM     12  C   LIG    1      -37.189  74.982  26.693  0.00  0.00    +0.029 C 
ATOM     13  C   LIG    1      -38.142  74.436  27.748  0.00  0.00    +0.021 C 
ATOM     14  C   LIG    1      -38.597  75.669  28.516  0.00  0.00    +0.107 C 
BRANCH  11  15
ATOM     15  C   LIG    1      -38.793  76.539  25.342  0.00  0.00    +0.011 A 
ATOM     16  C   LIG    1      -39.258  77.766  24.843  0.00  0.00    +0.129 A 
ATOM     17  F   LIG    1      -38.872  78.933  25.355  0.00  0.00    -0.205 F 
ATOM     18  C   LIG    1      -40.201  77.873  23.824  0.00  0.00    +0.041 A 
ATOM     19  C   LIG    1      -40.773  76.732  23.298  0.00  0.00    +0.041 A 
ATOM     20  C   LIG    1      -40.382  75.498  23.802  0.00  0.00    +0.124 A 
ATOM     21  F   LIG    1      -40.966  74.393  23.321  0.00  0.00    -0.205 F 
ATOM     22  C   LIG    1      -39.401  75.388  24.800  0.00  0.00    +0.046 A 
ENDBRANCH  11  15
ENDBRANCH   4  10
BRANCH   1  24
ATOM     23  C   LIG    1      -32.792  79.066  26.921  0.00  0.00    +0.285 C 
ATOM     24  N   LIG    1      -33.808  79.883  26.833  0.00  0.00    -0.194 NA
BRANCH  23  25
ATOM     25  N   LIG    1      -32.314  78.286  27.929  0.00  0.00    -0.269 N 
ATOM     26  H   LIG    1      -31.426  78.621  28.325  0.00  0.00    +0.157 HD
BRANCH  25  30
ATOM     27  C   LIG    1      -32.879  74.241  29.020  0.00  0.00    +0.120 A 
ATOM     28  C   LIG    1      -33.710  74.825  28.066  0.00  0.00    +0.047 A 
ATOM     29  C   LIG    1      -33.506  76.148  27.664  0.00  0.00    +0.027 A 
ATOM     30  C   LIG    1      -32.492  76.920  28.211  0.00  0.00    +0.035 A 
ATOM     31  C   LIG    1      -31.648  76.322  29.160  0.00  0.00    +0.027 A 
ATOM     32  C   LIG    1      -31.842  74.995  29.565  0.00  0.00    +0.047 A 
BRANCH  27  34
ATOM     33  C   LIG    1      -32.721  72.766  30.865  0.00  0.00    +0.277 C 
ATOM     34  O   LIG    1      -32.985  72.956  29.479  0.00  0.00    -0.495 OA
ENDBRANCH  27  34
ENDBRANCH  25  30
ENDBRANCH  23  25
BRANCH  23  35
ATOM     35  O   LIG    1      -32.135  78.962  25.752  0.00  0.00    -0.481 OA
ATOM     36  H   LIG    1      -32.793  78.751  25.085  0.00  0.00    +0.295 HD
ENDBRANCH  23  35
ENDBRANCH   1  24
TORSDOF 7
ENDMDL
MODEL 2
REMARK VINA RESULT:      -6.5     12.448     16.711
REMARK  Name = pdb/CHEMBL3959200.pdb
REMARK                            x       y       z     vdW  Elec       q    Type
REMARK                         _______ _______ _______ _____ _____    ______ ____
ROOT
ATOM      1  C   LIG    1      -25.117  77.640  31.846  0.00  0.00    +0.133 A 
ATOM      2  C   LIG    1      -24.674  77.756  33.146  0.00  0.00    +0.183 A 
ATOM      3  N   LIG    1      -23.559  78.332  33.669  0.00  0.00    -0.211 NA
ATOM      4  C   LIG    1      -23.343  78.218  34.966  0.00  0.00    +0.126 A 
ATOM      5  C   LIG    1      -24.294  77.453  35.853  0.00  0.00    +0.063 A 
ATOM      6  C   LIG    1      -25.365  76.895  35.288  0.00  0.00    +0.118 A 
ATOM      7  N   LIG    1      -25.578  77.020  33.915  0.00  0.00    -0.220 N 
ATOM      8  N   LIG    1      -26.604  76.527  33.180  0.00  0.00    -0.171 NA
ATOM      9  C   LIG    1      -26.333  76.925  31.932  0.00  0.00    +0.165 A 
ENDROOT
BRANCH   4  10
ATOM     10  N   LIG    1      -22.189  78.802  35.466  0.00  0.00    -0.308 N 
ATOM     11  C   LIG    1      -21.439  79.740  34.602  0.00  0.00    +0.108 C 
ATOM     12  C   LIG    1      -21.657  81.083  35.314  0.00  0.00    +0.029 C 
ATOM     13  C   LIG    1      -21.662  80.738  36.797  0.00  0.00    +0.021 C 
ATOM     14  C   LIG    1      -22.199  79.315  36.849  0.00  0.00    +0.107 C 
BRANCH  11  15
ATOM     15  C   LIG    1      -19.993  79.290  34.399  0.00  0.00    +0.011 A 
ATOM     16  C   LIG    1      -19.420  79.013  33.147  0.00  0.00    +0.129 A 
ATOM     17  F   LIG    1      -20.139  78.993  32.027  0.00  0.00    -0.205 F 
ATOM     18  C   LIG    1      -18.081  78.676  32.974  0.00  0.00    +0.041 A 
ATOM     19  C   LIG    1      -17.260  78.538  34.075  0.00  0.00    +0.041 A 
ATOM     20  C   LIG    1      -17.801  78.749  35.338  0.00  0.00    +0.124 A 
ATOM     21  F   LIG    1      -17.016  78.577  36.409  0.00  0.00    -0.205 F 
ATOM     22  C   LIG    1      -19.141  79.130  35.511  0.00  0.00    +0.046 A 
ENDBRANCH  11  15
ENDBRANCH   4  10
BRANCH   1  24
ATOM     23  C   LIG    1      -23.630  77.550  30.082  0.00  0.00    +0.285 C 
ATOM     24  N   LIG    1      -24.598  78.192  30.680  0.00  0.00    -0.194 NA
BRANCH  23  25
ATOM     25  N   LIG    1      -22.980  76.387  30.359  0.00  0.00    -0.269 N 
ATOM     26  H   LIG    1      -23.609  75.590  30.524  0.00  0.00    +0.157 HD
BRANCH  25  30
ATOM     27  C   LIG    1      -19.263  75.411  32.121  0.00  0.00    +0.120 A 
ATOM     28  C   LIG    1      -19.307  75.877  30.809  0.00  0.00    +0.047 A 
ATOM     29  C   LIG    1      -20.525  76.246  30.230  0.00  0.00    +0.027 A 
ATOM     30  C   LIG    1      -21.718  76.140  30.929  0.00  0.00    +0.035 A 
ATOM     31  C   LIG    1      -21.665  75.685  32.255  0.00  0.00    +0.027 A 
ATOM     32  C   LIG    1      -20.449  75.318  32.846  0.00  0.00    +0.047 A 
BRANCH  27  34
ATOM     33  C   LIG    1      -18.329  74.288  33.985  0.00  0.00    +0.277 C 
ATOM     34  O   LIG    1      -18.129  75.031  32.786  0.00  0.00    -0.495 OA
ENDBRANCH  27  34
ENDBRANCH  25  30
ENDBRANCH  23  25
BRANCH  23  35
ATOM     35  O   LIG    1      -23.254  78.164  28.946  0.00  0.00    -0.481 OA
ATOM     36  H   LIG    1      -22.299  78.250  28.984  0.00  0.00    +0.295 HD
ENDBRANCH  23  35
ENDBRANCH   1  24
TORSDOF 7
ENDMDL
MODEL 3
REMARK VINA RESULT:      -6.5      1.819      2.765
REMARK  Name = pdb/CHEMBL3959200.pdb
REMARK                            x       y       z     vdW  Elec       q    Type
REMARK                         _______ _______ _______ _____ _____    ______ ____
ROOT
ATOM      1  C   LIG    1      -35.120  79.108  28.158  0.00  0.00    +0.133 A 
ATOM      2  C   LIG    1      -36.226  78.316  27.935  0.00  0.00    +0.183 A 
ATOM      3  N   LIG    1      -36.681  77.704  26.810  0.00  0.00    -0.211 NA
ATOM      4  C   LIG    1      -37.835  77.066  26.866  0.00  0.00    +0.126 A 
ATOM      5  C   LIG    1      -38.648  77.029  28.136  0.00  0.00    +0.063 A 
ATOM      6  C   LIG    1      -38.163  77.658  29.207  0.00  0.00    +0.118 A 
ATOM      7  N   LIG    1      -36.943  78.331  29.132  0.00  0.00    -0.220 N 
ATOM      8  N   LIG    1      -36.304  79.014  30.113  0.00  0.00    -0.171 NA
ATOM      9  C   LIG    1      -35.188  79.463  29.525  0.00  0.00    +0.165 A 
ENDROOT
BRANCH   4  10
ATOM     10  N   LIG    1      -38.281  76.467  25.697  0.00  0.00    -0.308 N 
ATOM     11  C   LIG    1      -39.484  75.607  25.758  0.00  0.00    +0.108 C 
ATOM     12  C   LIG    1      -40.513  76.429  24.969  0.00  0.00    +0.029 C 
ATOM     13  C   LIG    1      -39.707  77.096  23.862  0.00  0.00    +0.021 C 
ATOM     14  C   LIG    1      -38.320  77.271  24.462  0.00  0.00    +0.107 C 
BRANCH  11  15
ATOM     15  C   LIG    1      -39.194  74.193  25.255  0.00  0.00    +0.011 A 
ATOM     16  C   LIG    1      -38.081  73.429  25.643  0.00  0.00    +0.129 A 
ATOM     17  F   LIG    1      -37.102  73.931  26.393  0.00  0.00    -0.205 F 
ATOM     18  C   LIG    1      -37.871  72.116  25.234  0.00  0.00    +0.041 A 
ATOM     19  C   LIG    1      -38.752  71.524  24.350  0.00  0.00    +0.041 A 
ATOM     20  C   LIG    1      -39.837  72.264  23.897  0.00  0.00    +0.124 A 
ATOM     21  F   LIG    1      -40.670  71.705  23.009  0.00  0.00    -0.205 F 
ATOM     22  C   LIG    1      -40.073  73.574  24.342  0.00  0.00    +0.046 A 
ENDBRANCH  11  15
ENDBRANCH   4  10
BRANCH   1  24
ATOM     23  C   LIG    1      -32.916  78.840  27.525  0.00  0.00    +0.285 C 
ATOM     24  N   LIG    1      -34.066  79.420  27.307  0.00  0.00    -0.194 NA
BRANCH  23  25
ATOM     25  N   LIG    1      -32.495  77.937  28.452  0.00  0.00    -0.269 N 
ATOM     26  H   LIG    1      -31.665  78.240  28.977  0.00  0.00    +0.157 HD
BRANCH  25  30
ATOM     27  C   LIG    1      -32.932  73.755  28.891  0.00  0.00    +0.120 A 
ATOM     28  C   LIG    1      -33.785  74.456  28.041  0.00  0.00    +0.047 A 
ATOM     29  C   LIG    1      -33.622  75.831  27.852  0.00  0.00    +0.027 A 
ATOM     30  C   LIG    1      -32.630  76.538  28.515  0.00  0.00    +0.035 A 
ATOM     31  C   LIG    1      -31.764  75.824  29.358  0.00  0.00    +0.027 A 
ATOM     32  C   LIG    1      -31.916  74.445  29.549  0.00  0.00    +0.047 A 
BRANCH  27  34
ATOM     33  C   LIG    1      -33.992  71.690  28.421  0.00  0.00    +0.277 C 
ATOM     34  O   LIG    1      -32.997  72.411  29.142  0.00  0.00    -0.495 OA
ENDBRANCH  27  34
ENDBRANCH  25  30
ENDBRANCH  23  25
BRANCH  23  35
ATOM     35  O   LIG    1      -32.000  79.191  26.605  0.00  0.00    -0.481 OA
ATOM     36  H   LIG    1      -31.298  78.537  26.653  0.00  0.00    +0.295 HD
ENDBRANCH  23  35
ENDBRANCH   1  24
TORSDOF 7
ENDMDL
MODEL 4
REMARK VINA RESULT:      -6.3     11.460     15.471
REMARK  Name = pdb/CHEMBL3959200.pdb
REMARK                            x       y       z     vdW  Elec       q    Type
REMARK                         _______ _______ _______ _____ _____    ______ ____
ROOT
ATOM      1  C   LIG    1      -26.575  76.909  32.210  0.00  0.00    +0.133 A 
ATOM      2  C   LIG    1      -26.369  76.954  33.572  0.00  0.00    +0.183 A 
ATOM      3  N   LIG    1      -25.664  77.820  34.347  0.00  0.00    -0.211 NA
ATOM      4  C   LIG    1      -25.566  77.568  35.639  0.00  0.00    +0.126 A 
ATOM      5  C   LIG    1      -26.199  76.342  36.248  0.00  0.00    +0.063 A 
ATOM      6  C   LIG    1      -26.867  75.517  35.441  0.00  0.00    +0.118 A 
ATOM      7  N   LIG    1      -26.960  75.794  34.077  0.00  0.00    -0.220 N 
ATOM      8  N   LIG    1      -27.596  75.075  33.119  0.00  0.00    -0.171 NA
ATOM      9  C   LIG    1      -27.381  75.768  31.994  0.00  0.00    +0.165 A 
ENDROOT
BRANCH   4  10
ATOM     10  N   LIG    1      -24.826  78.461  36.400  0.00  0.00    -0.308 N 
ATOM     11  C   LIG    1      -24.496  79.782  35.819  0.00  0.00    +0.108 C 
ATOM     12  C   LIG    1      -25.335  80.735  36.683  0.00  0.00    +0.029 C 
ATOM     13  C   LIG    1      -25.305  80.121  38.077  0.00  0.00    +0.021 C 
ATOM     14  C   LIG    1      -25.169  78.627  37.825  0.00  0.00    +0.107 C 
BRANCH  11  15
ATOM     15  C   LIG    1      -22.988  80.024  35.785  0.00  0.00    +0.011 A 
ATOM     16  C   LIG    1      -22.393  81.294  35.731  0.00  0.00    +0.129 A 
ATOM     17  F   LIG    1      -23.107  82.406  35.571  0.00  0.00    -0.205 F 
ATOM     18  C   LIG    1      -21.017  81.500  35.776  0.00  0.00    +0.041 A 
ATOM     19  C   LIG    1      -20.162  80.415  35.812  0.00  0.00    +0.041 A 
ATOM     20  C   LIG    1      -20.709  79.138  35.809  0.00  0.00    +0.124 A 
ATOM     21  F   LIG    1      -19.881  78.085  35.803  0.00  0.00    -0.205 F 
ATOM     22  C   LIG    1      -22.097  78.931  35.807  0.00  0.00    +0.046 A 
ENDBRANCH  11  15
ENDBRANCH   4  10
BRANCH   1  24
ATOM     23  C   LIG    1      -24.981  77.782  30.786  0.00  0.00    +0.285 C 
ATOM     24  N   LIG    1      -26.210  77.822  31.228  0.00  0.00    -0.194 NA
BRANCH  23  25
ATOM     25  N   LIG    1      -23.914  76.993  31.087  0.00  0.00    -0.269 N 
ATOM     26  H   LIG    1      -24.133  76.234  31.746  0.00  0.00    +0.157 HD
BRANCH  25  30
ATOM     27  C   LIG    1      -19.739  77.629  31.279  0.00  0.00    +0.120 A 
ATOM     28  C   LIG    1      -20.320  77.190  30.091  0.00  0.00    +0.047 A 
ATOM     29  C   LIG    1      -21.704  77.018  30.001  0.00  0.00    +0.027 A 
ATOM     30  C   LIG    1      -22.533  77.258  31.087  0.00  0.00    +0.035 A 
ATOM     31  C   LIG    1      -21.944  77.716  32.276  0.00  0.00    +0.027 A 
ATOM     32  C   LIG    1      -20.558  77.895  32.374  0.00  0.00    +0.047 A 
BRANCH  27  34
ATOM     33  C   LIG    1      -18.041  78.487  32.689  0.00  0.00    +0.277 C 
ATOM     34  O   LIG    1      -18.400  77.836  31.474  0.00  0.00    -0.495 OA
ENDBRANCH  27  34
ENDBRANCH  25  30
ENDBRANCH  23  25
BRANCH  23  35
ATOM     35  O   LIG    1      -24.774  78.683  29.809  0.00  0.00    -0.481 OA
ATOM     36  H   LIG    1      -24.900  78.219  28.977  0.00  0.00    +0.295 HD
ENDBRANCH  23  35
ENDBRANCH   1  24
TORSDOF 7
ENDMDL
MODEL 5
REMARK VINA RESULT:      -6.2      8.441     13.342
REMARK  Name = pdb/CHEMBL3959200.pdb
REMARK                            x       y       z     vdW  Elec       q    Type
REMARK                         _______ _______ _______ _____ _____    ______ ____
ROOT
ATOM      1  C   LIG    1      -28.115  74.807  32.404  0.00  0.00    +0.133 A 
ATOM      2  C   LIG    1      -26.790  74.824  32.025  0.00  0.00    +0.183 A 
ATOM      3  N   LIG    1      -25.896  75.843  31.923  0.00  0.00    -0.211 NA
ATOM      4  C   LIG    1      -24.695  75.578  31.445  0.00  0.00    +0.126 A 
ATOM      5  C   LIG    1      -24.318  74.187  31.000  0.00  0.00    +0.063 A 
ATOM      6  C   LIG    1      -25.237  73.226  31.108  0.00  0.00    +0.118 A 
ATOM      7  N   LIG    1      -26.504  73.522  31.612  0.00  0.00    -0.220 N 
ATOM      8  N   LIG    1      -27.549  72.677  31.793  0.00  0.00    -0.171 NA
ATOM      9  C   LIG    1      -28.514  73.456  32.296  0.00  0.00    +0.165 A 
ENDROOT
BRANCH   4  10
ATOM     10  N   LIG    1      -23.811  76.642  31.337  0.00  0.00    -0.308 N 
ATOM     11  C   LIG    1      -22.584  76.629  32.165  0.00  0.00    +0.108 C 
ATOM     12  C   LIG    1      -21.483  76.443  31.111  0.00  0.00    +0.029 C 
ATOM     13  C   LIG    1      -21.970  77.226  29.899  0.00  0.00    +0.021 C 
ATOM     14  C   LIG    1      -23.487  77.156  29.993  0.00  0.00    +0.107 C 
BRANCH  11  15
ATOM     15  C   LIG    1      -22.490  77.869  33.054  0.00  0.00    +0.011 A 
ATOM     16  C   LIG    1      -23.588  78.661  33.425  0.00  0.00    +0.129 A 
ATOM     17  F   LIG    1      -24.804  78.470  32.917  0.00  0.00    -0.205 F 
ATOM     18  C   LIG    1      -23.496  79.742  34.295  0.00  0.00    +0.041 A 
ATOM     19  C   LIG    1      -22.263  80.121  34.790  0.00  0.00    +0.041 A 
ATOM     20  C   LIG    1      -21.142  79.398  34.403  0.00  0.00    +0.124 A 
ATOM     21  F   LIG    1      -19.941  79.789  34.850  0.00  0.00    -0.205 F 
ATOM     22  C   LIG    1      -21.239  78.281  33.559  0.00  0.00    +0.046 A 
ENDBRANCH  11  15
ENDBRANCH   4  10
BRANCH   1  24
ATOM     23  C   LIG    1      -29.639  76.510  32.071  0.00  0.00    +0.285 C 
ATOM     24  N   LIG    1      -28.905  75.832  32.913  0.00  0.00    -0.194 NA
BRANCH  23  25
ATOM     25  N   LIG    1      -29.821  76.427  30.725  0.00  0.00    -0.269 N 
ATOM     26  H   LIG    1      -29.314  77.147  30.194  0.00  0.00    +0.157 HD
BRANCH  25  30
ATOM     27  C   LIG    1      -33.124  74.809  28.641  0.00  0.00    +0.120 A 
ATOM     28  C   LIG    1      -32.775  76.145  28.457  0.00  0.00    +0.047 A 
ATOM     29  C   LIG    1      -31.658  76.681  29.105  0.00  0.00    +0.027 A 
ATOM     30  C   LIG    1      -30.883  75.912  29.960  0.00  0.00    +0.035 A 
ATOM     31  C   LIG    1      -31.230  74.562  30.130  0.00  0.00    +0.027 A 
ATOM     32  C   LIG    1      -32.345  74.016  29.480  0.00  0.00    +0.047 A 
BRANCH  27  34
ATOM     33  C   LIG    1      -34.125  72.762  27.999  0.00  0.00    +0.277 C 
ATOM     34  O   LIG    1      -34.190  74.184  28.053  0.00  0.00    -0.495 OA
ENDBRANCH  27  34
ENDBRANCH  25  30
ENDBRANCH  23  25
BRANCH  23  35
ATOM     35  O   LIG    1      -30.387  77.435  32.697  0.00  0.00    -0.481 OA
ATOM     36  H   LIG    1      -31.299  77.266  32.447  0.00  0.00    +0.295 HD
ENDBRANCH  23  35
ENDBRANCH   1  24
TORSDOF 7
ENDMDL
MODEL 6
REMARK VINA RESULT:      -6.1     11.869     15.779
REMARK  Name = pdb/CHEMBL3959200.pdb
REMARK                            x       y       z     vdW  Elec       q    Type
REMARK                         _______ _______ _______ _____ _____    ______ ____
ROOT
ATOM      1  C   LIG    1      -25.628  76.980  31.598  0.00  0.00    +0.133 A 
ATOM      2  C   LIG    1      -25.484  77.467  32.879  0.00  0.00    +0.183 A 
ATOM      3  N   LIG    1      -24.751  78.499  33.372  0.00  0.00    -0.211 NA
ATOM      4  C   LIG    1      -24.735  78.691  34.678  0.00  0.00    +0.126 A 
ATOM      5  C   LIG    1      -25.492  77.779  35.612  0.00  0.00    +0.063 A 
ATOM      6  C   LIG    1      -26.184  76.772  35.078  0.00  0.00    +0.118 A 
ATOM      7  N   LIG    1      -26.189  76.580  33.696  0.00  0.00    -0.220 N 
ATOM      8  N   LIG    1      -26.833  75.621  32.988  0.00  0.00    -0.171 NA
ATOM      9  C   LIG    1      -26.510  75.882  31.716  0.00  0.00    +0.165 A 
ENDROOT
BRANCH   4  10
ATOM     10  N   LIG    1      -23.963  79.741  35.152  0.00  0.00    -0.308 N 
ATOM     11  C   LIG    1      -23.586  79.753  36.583  0.00  0.00    +0.108 C 
ATOM     12  C   LIG    1      -22.071  79.512  36.523  0.00  0.00    +0.029 C 
ATOM     13  C   LIG    1      -21.612  80.248  35.270  0.00  0.00    +0.021 C 
ATOM     14  C   LIG    1      -22.817  80.195  34.342  0.00  0.00    +0.107 C 
BRANCH  11  15
ATOM     15  C   LIG    1      -24.058  81.028  37.281  0.00  0.00    +0.011 A 
ATOM     16  C   LIG    1      -23.723  81.377  38.599  0.00  0.00    +0.129 A 
ATOM     17  F   LIG    1      -23.065  80.549  39.407  0.00  0.00    -0.205 F 
ATOM     18  C   LIG    1      -24.100  82.577  39.194  0.00  0.00    +0.041 A 
ATOM     19  C   LIG    1      -24.896  83.467  38.501  0.00  0.00    +0.041 A 
ATOM     20  C   LIG    1      -25.297  83.135  37.212  0.00  0.00    +0.124 A 
ATOM     21  F   LIG    1      -26.102  83.978  36.553  0.00  0.00    -0.205 F 
ATOM     22  C   LIG    1      -24.883  81.944  36.596  0.00  0.00    +0.046 A 
ENDBRANCH  11  15
ENDBRANCH   4  10
BRANCH   1  24
ATOM     23  C   LIG    1      -23.885  77.288  30.116  0.00  0.00    +0.285 C 
ATOM     24  N   LIG    1      -25.145  77.487  30.397  0.00  0.00    -0.194 NA
BRANCH  23  25
ATOM     25  N   LIG    1      -22.879  76.649  30.773  0.00  0.00    -0.269 N 
ATOM     26  H   LIG    1      -23.202  76.047  31.540  0.00  0.00    +0.157 HD
BRANCH  25  30
ATOM     27  C   LIG    1      -18.827  77.575  31.549  0.00  0.00    +0.120 A 
ATOM     28  C   LIG    1      -19.157  76.750  30.476  0.00  0.00    +0.047 A 
ATOM     29  C   LIG    1      -20.495  76.473  30.181  0.00  0.00    +0.027 A 
ATOM     30  C   LIG    1      -21.526  76.987  30.953  0.00  0.00    +0.035 A 
ATOM     31  C   LIG    1      -21.188  77.830  32.024  0.00  0.00    +0.027 A 
ATOM     32  C   LIG    1      -19.850  78.118  32.323  0.00  0.00    +0.047 A 
BRANCH  27  34
ATOM     33  C   LIG    1      -17.441  78.696  33.107  0.00  0.00    +0.277 C 
ATOM     34  O   LIG    1      -17.555  77.916  31.921  0.00  0.00    -0.495 OA
ENDBRANCH  27  34
ENDBRANCH  25  30
ENDBRANCH  23  25
BRANCH  23  35
ATOM     35  O   LIG    1      -23.560  77.786  28.910  0.00  0.00    -0.481 OA
ATOM     36  H   LIG    1      -24.387  77.971  28.457  0.00  0.00    +0.295 HD
ENDBRANCH  23  35
ENDBRANCH   1  24
TORSDOF 7
ENDMDL
MODEL 7
REMARK VINA RESULT:      -6.1     12.526     16.924
REMARK  Name = pdb/CHEMBL3959200.pdb
REMARK                            x       y       z     vdW  Elec       q    Type
REMARK                         _______ _______ _______ _____ _____    ______ ____
ROOT
ATOM      1  C   LIG    1      -25.549  77.028  32.921  0.00  0.00    +0.133 A 
ATOM      2  C   LIG    1      -24.640  77.339  33.909  0.00  0.00    +0.183 A 
ATOM      3  N   LIG    1      -23.547  78.148  33.904  0.00  0.00    -0.211 NA
ATOM      4  C   LIG    1      -22.796  78.194  34.989  0.00  0.00    +0.126 A 
ATOM      5  C   LIG    1      -23.122  77.359  36.202  0.00  0.00    +0.063 A 
ATOM      6  C   LIG    1      -24.197  76.571  36.149  0.00  0.00    +0.118 A 
ATOM      7  N   LIG    1      -24.979  76.530  34.996  0.00  0.00    -0.220 N 
ATOM      8  N   LIG    1      -26.097  75.798  34.769  0.00  0.00    -0.171 NA
ATOM      9  C   LIG    1      -26.452  76.121  33.520  0.00  0.00    +0.165 A 
ENDROOT
BRANCH   4  10
ATOM     10  N   LIG    1      -21.679  79.014  34.946  0.00  0.00    -0.308 N 
ATOM     11  C   LIG    1      -20.801  79.075  36.136  0.00  0.00    +0.108 C 
ATOM     12  C   LIG    1      -19.522  78.390  35.633  0.00  0.00    +0.029 C 
ATOM     13  C   LIG    1      -19.408  78.810  34.174  0.00  0.00    +0.021 C 
ATOM     14  C   LIG    1      -20.848  79.013  33.728  0.00  0.00    +0.107 C 
BRANCH  11  15
ATOM     15  C   LIG    1      -20.661  80.504  36.663  0.00  0.00    +0.011 A 
ATOM     16  C   LIG    1      -21.420  81.592  36.204  0.00  0.00    +0.129 A 
ATOM     17  F   LIG    1      -22.245  81.494  35.164  0.00  0.00    -0.205 F 
ATOM     18  C   LIG    1      -21.332  82.871  36.745  0.00  0.00    +0.041 A 
ATOM     19  C   LIG    1      -20.417  83.131  37.746  0.00  0.00    +0.041 A 
ATOM     20  C   LIG    1      -19.607  82.094  38.191  0.00  0.00    +0.124 A 
ATOM     21  F   LIG    1      -18.691  82.354  39.134  0.00  0.00    -0.205 F 
ATOM     22  C   LIG    1      -19.723  80.794  37.675  0.00  0.00    +0.046 A 
ENDBRANCH  11  15
ENDBRANCH   4  10
BRANCH   1  24
ATOM     23  C   LIG    1      -24.931  77.047  30.696  0.00  0.00    +0.285 C 
ATOM     24  N   LIG    1      -25.680  77.552  31.640  0.00  0.00    -0.194 NA
BRANCH  23  25
ATOM     25  N   LIG    1      -23.998  76.056  30.685  0.00  0.00    -0.269 N 
ATOM     26  H   LIG    1      -24.302  75.196  31.157  0.00  0.00    +0.157 HD
BRANCH  25  30
ATOM     27  C   LIG    1      -19.797  76.442  30.409  0.00  0.00    +0.120 A 
ATOM     28  C   LIG    1      -20.371  75.931  31.571  0.00  0.00    +0.047 A 
ATOM     29  C   LIG    1      -21.756  75.757  31.658  0.00  0.00    +0.027 A 
ATOM     30  C   LIG    1      -22.594  76.103  30.609  0.00  0.00    +0.035 A 
ATOM     31  C   LIG    1      -22.008  76.602  29.435  0.00  0.00    +0.027 A 
ATOM     32  C   LIG    1      -20.621  76.776  29.337  0.00  0.00    +0.047 A 
BRANCH  27  34
ATOM     33  C   LIG    1      -17.760  77.269  31.289  0.00  0.00    +0.277 C 
ATOM     34  O   LIG    1      -18.457  76.647  30.215  0.00  0.00    -0.495 OA
ENDBRANCH  27  34
ENDBRANCH  25  30
ENDBRANCH  23  25
BRANCH  23  35
ATOM     35  O   LIG    1      -25.190  77.608  29.502  0.00  0.00    -0.481 OA
ATOM     36  H   LIG    1      -24.479  78.230  29.331  0.00  0.00    +0.295 HD
ENDBRANCH  23  35
ENDBRANCH   1  24
TORSDOF 7
ENDMDL
MODEL 8
REMARK VINA RESULT:      -6.0     18.568     21.719
REMARK  Name = pdb/CHEMBL3959200.pdb
REMARK                            x       y       z     vdW  Elec       q    Type
REMARK                         _______ _______ _______ _____ _____    ______ ____
ROOT
ATOM      1  C   LIG    1      -19.007  86.466  13.344  0.00  0.00    +0.133 A 
ATOM      2  C   LIG    1      -19.612  85.231  13.440  0.00  0.00    +0.183 A 
ATOM      3  N   LIG    1      -20.719  84.822  14.114  0.00  0.00    -0.211 NA
ATOM      4  C   LIG    1      -21.026  83.538  14.097  0.00  0.00    +0.126 A 
ATOM      5  C   LIG    1      -20.164  82.538  13.367  0.00  0.00    +0.063 A 
ATOM      6  C   LIG    1      -19.080  82.990  12.735  0.00  0.00    +0.118 A 
ATOM      7  N   LIG    1      -18.767  84.348  12.765  0.00  0.00    -0.220 N 
ATOM      8  N   LIG    1      -17.718  84.978  12.180  0.00  0.00    -0.171 NA
ATOM      9  C   LIG    1      -17.881  86.263  12.514  0.00  0.00    +0.165 A 
ENDROOT
BRANCH   4  10
ATOM     10  N   LIG    1      -22.151  83.150  14.808  0.00  0.00    -0.308 N 
ATOM     11  C   LIG    1      -22.245  81.747  15.272  0.00  0.00    +0.108 C 
ATOM     12  C   LIG    1      -22.124  81.900  16.795  0.00  0.00    +0.029 C 
ATOM     13  C   LIG    1      -22.849  83.202  17.112  0.00  0.00    +0.021 C 
ATOM     14  C   LIG    1      -22.666  84.046  15.859  0.00  0.00    +0.107 C 
BRANCH  11  15
ATOM     15  C   LIG    1      -23.503  81.059  14.743  0.00  0.00    +0.011 A 
ATOM     16  C   LIG    1      -24.134  79.974  15.372  0.00  0.00    +0.129 A 
ATOM     17  F   LIG    1      -23.605  79.361  16.428  0.00  0.00    -0.205 F 
ATOM     18  C   LIG    1      -25.320  79.407  14.916  0.00  0.00    +0.041 A 
ATOM     19  C   LIG    1      -25.900  79.873  13.753  0.00  0.00    +0.041 A 
ATOM     20  C   LIG    1      -25.278  80.910  13.069  0.00  0.00    +0.124 A 
ATOM     21  F   LIG    1      -25.818  81.335  11.919  0.00  0.00    -0.205 F 
ATOM     22  C   LIG    1      -24.104  81.510  13.550  0.00  0.00    +0.046 A 
ENDBRANCH  11  15
ENDBRANCH   4  10
BRANCH   1  24
ATOM     23  C   LIG    1      -20.268  88.384  13.090  0.00  0.00    +0.285 C 
ATOM     24  N   LIG    1      -19.430  87.700  13.823  0.00  0.00    -0.194 NA
BRANCH  23  25
ATOM     25  N   LIG    1      -20.861  88.140  11.889  0.00  0.00    -0.269 N 
ATOM     26  H   LIG    1      -20.421  88.634  11.102  0.00  0.00    +0.157 HD
BRANCH  25  30
ATOM     27  C   LIG    1      -24.833  86.913  11.124  0.00  0.00    +0.120 A 
ATOM     28  C   LIG    1      -24.510  88.268  11.106  0.00  0.00    +0.047 A 
ATOM     29  C   LIG    1      -23.192  88.684  11.313  0.00  0.00    +0.027 A 
ATOM     30  C   LIG    1      -22.178  87.771  11.561  0.00  0.00    +0.035 A 
ATOM     31  C   LIG    1      -22.506  86.407  11.562  0.00  0.00    +0.027 A 
ATOM     32  C   LIG    1      -23.824  85.980  11.351  0.00  0.00    +0.047 A 
BRANCH  27  34
ATOM     33  C   LIG    1      -26.266  85.037  11.306  0.00  0.00    +0.277 C 
ATOM     34  O   LIG    1      -26.086  86.397  10.927  0.00  0.00    -0.495 OA
ENDBRANCH  27  34
ENDBRANCH  25  30
ENDBRANCH  23  25
BRANCH  23  35
ATOM     35  O   LIG    1      -20.632  89.531  13.689  0.00  0.00    -0.481 OA
ATOM     36  H   LIG    1      -19.953  89.729  14.339  0.00  0.00    +0.295 HD
ENDBRANCH  23  35
ENDBRANCH   1  24
TORSDOF 7
ENDMDL
MODEL 9
REMARK VINA RESULT:      -6.0      3.092      4.786
REMARK  Name = pdb/CHEMBL3959200.pdb
REMARK                            x       y       z     vdW  Elec       q    Type
REMARK                         _______ _______ _______ _____ _____    ______ ____
ROOT
ATOM      1  C   LIG    1      -39.077  82.200  26.240  0.00  0.00    +0.133 A 
ATOM      2  C   LIG    1      -39.316  81.029  25.552  0.00  0.00    +0.183 A 
ATOM      3  N   LIG    1      -39.414  79.741  25.975  0.00  0.00    -0.211 NA
ATOM      4  C   LIG    1      -39.568  78.793  25.070  0.00  0.00    +0.126 A 
ATOM      5  C   LIG    1      -39.614  79.118  23.597  0.00  0.00    +0.063 A 
ATOM      6  C   LIG    1      -39.498  80.396  23.235  0.00  0.00    +0.118 A 
ATOM      7  N   LIG    1      -39.333  81.386  24.203  0.00  0.00    -0.220 N 
ATOM      8  N   LIG    1      -39.204  82.723  24.018  0.00  0.00    -0.171 NA
ATOM      9  C   LIG    1      -39.074  83.214  25.256  0.00  0.00    +0.165 A 
ENDROOT
BRANCH   4  10
ATOM     10  N   LIG    1      -39.647  77.488  25.532  0.00  0.00    -0.308 N 
ATOM     11  C   LIG    1      -38.842  76.448  24.853  0.00  0.00    +0.108 C 
ATOM     12  C   LIG    1      -37.806  76.085  25.927  0.00  0.00    +0.029 C 
ATOM     13  C   LIG    1      -38.564  76.187  27.244  0.00  0.00    +0.021 C 
ATOM     14  C   LIG    1      -39.620  77.251  26.987  0.00  0.00    +0.107 C 
BRANCH  11  15
ATOM     15  C   LIG    1      -39.717  75.312  24.322  0.00  0.00    +0.011 A 
ATOM     16  C   LIG    1      -39.356  73.956  24.354  0.00  0.00    +0.129 A 
ATOM     17  F   LIG    1      -38.146  73.552  24.735  0.00  0.00    -0.205 F 
ATOM     18  C   LIG    1      -40.196  72.928  23.935  0.00  0.00    +0.041 A 
ATOM     19  C   LIG    1      -41.432  73.229  23.398  0.00  0.00    +0.041 A 
ATOM     20  C   LIG    1      -41.806  74.563  23.297  0.00  0.00    +0.124 A 
ATOM     21  F   LIG    1      -42.987  74.858  22.739  0.00  0.00    -0.205 F 
ATOM     22  C   LIG    1      -40.977  75.598  23.758  0.00  0.00    +0.046 A 
ENDBRANCH  11  15
ENDBRANCH   4  10
BRANCH   1  24
ATOM     23  C   LIG    1      -37.822  82.212  28.178  0.00  0.00    +0.285 C 
ATOM     24  N   LIG    1      -38.980  82.419  27.609  0.00  0.00    -0.194 NA
BRANCH  23  25
ATOM     25  N   LIG    1      -36.613  81.811  27.699  0.00  0.00    -0.269 N 
ATOM     26  H   LIG    1      -36.333  82.287  26.831  0.00  0.00    +0.157 HD
BRANCH  25  30
ATOM     27  C   LIG    1      -34.379  78.276  28.317  0.00  0.00    +0.120 A 
ATOM     28  C   LIG    1      -35.770  78.236  28.374  0.00  0.00    +0.047 A 
ATOM     29  C   LIG    1      -36.522  79.388  28.127  0.00  0.00    +0.027 A 
ATOM     30  C   LIG    1      -35.912  80.600  27.841  0.00  0.00    +0.035 A 
ATOM     31  C   LIG    1      -34.510  80.631  27.770  0.00  0.00    +0.027 A 
ATOM     32  C   LIG    1      -33.749  79.480  28.010  0.00  0.00    +0.047 A 
BRANCH  27  34
ATOM     33  C   LIG    1      -32.271  77.277  27.908  0.00  0.00    +0.277 C 
ATOM     34  O   LIG    1      -33.549  77.209  28.533  0.00  0.00    -0.495 OA
ENDBRANCH  27  34
ENDBRANCH  25  30
ENDBRANCH  23  25
BRANCH  23  35
ATOM     35  O   LIG    1      -37.853  82.507  29.490  0.00  0.00    -0.481 OA
ATOM     36  H   LIG    1      -38.660  83.004  29.641  0.00  0.00    +0.295 HD
ENDBRANCH  23  35
ENDBRANCH   1  24
TORSDOF 7
ENDMDL
