MODEL 1
REMARK VINA RESULT:      -7.6      0.000      0.000
REMARK  Name = modded_pdb/CHEMBL2037209_nitrogen_modded_with_ethanol_version_2.pdb
REMARK                            x       y       z     vdW  Elec       q    Type
REMARK                         _______ _______ _______ _____ _____    ______ ____
ROOT
ATOM      1  C   LIG    1      -38.274  74.874  25.053  0.00  0.00    +0.035 A 
ATOM      2  C   LIG    1      -38.567  73.500  24.946  0.00  0.00    +0.046 A 
ATOM      3  C   LIG    1      -39.737  73.014  24.333  0.00  0.00    +0.036 A 
ATOM      4  C   LIG    1      -40.612  73.980  23.814  0.00  0.00    +0.023 A 
ATOM      5  C   LIG    1      -40.340  75.350  23.919  0.00  0.00    +0.004 A 
ATOM      6  C   LIG    1      -39.177  75.798  24.546  0.00  0.00    +0.023 A 
ENDROOT
BRANCH   1   8
ATOM      7  C   LIG    1      -36.831  75.714  26.944  0.00  0.00    +0.248 C 
ATOM      8  N   LIG    1      -37.049  75.206  25.672  0.00  0.00    -0.281 N 
ATOM      9  H   LIG    1      -36.257  75.075  25.067  0.00  0.00    +0.155 HD
ATOM     10  O   LIG    1      -37.700  75.941  27.778  0.00  0.00    -0.270 OA
BRANCH   7  15
ATOM     11  C   LIG    1      -33.324  75.268  28.375  0.00  0.00    +0.049 A 
ATOM     12  C   LIG    1      -32.731  76.509  28.105  0.00  0.00    +0.038 A 
ATOM     13  C   LIG    1      -33.446  77.498  27.418  0.00  0.00    +0.057 A 
ATOM     14  C   LIG    1      -34.773  77.240  27.034  0.00  0.00    +0.025 A 
ATOM     15  C   LIG    1      -35.395  76.014  27.313  0.00  0.00    +0.040 A 
ATOM     16  C   LIG    1      -34.649  75.021  27.977  0.00  0.00    +0.039 A 
BRANCH  11  21
ATOM     17  C   LIG    1      -31.611  70.915  30.138  0.00  0.00    +0.067 C 
ATOM     18  C   LIG    1      -31.843  72.344  29.829  0.00  0.00    +0.056 A 
ATOM     19  N   LIG    1      -30.988  73.308  30.296  0.00  0.00    -0.241 NA
ATOM     20  C   LIG    1      -31.441  74.442  29.808  0.00  0.00    +0.204 A 
ATOM     21  N   LIG    1      -32.572  74.269  29.045  0.00  0.00    -0.306 N 
ATOM     22  C   LIG    1      -32.841  72.919  29.071  0.00  0.00    +0.115 A 
ENDBRANCH  11  21
BRANCH  13  23
ATOM     23  C   LIG    1      -32.795  78.819  27.074  0.00  0.00    +0.418 C 
ATOM     24  F   LIG    1      -31.734  79.098  27.876  0.00  0.00    -0.166 F 
ATOM     25  F   LIG    1      -33.651  79.868  27.192  0.00  0.00    -0.166 F 
ATOM     26  F   LIG    1      -32.320  78.863  25.798  0.00  0.00    -0.166 F 
ENDBRANCH  13  23
ENDBRANCH   7  15
ENDBRANCH   1   8
BRANCH   3  27
ATOM     27  N   LIG    1      -40.048  71.625  24.259  0.00  0.00    -0.298 N 
BRANCH  27  28
ATOM     28  C   LIG    1      -39.281  70.612  23.618  0.00  0.00    +0.036 A 
ATOM     29  C   LIG    1      -37.992  70.297  24.086  0.00  0.00    +0.047 A 
ATOM     30  C   LIG    1      -37.269  69.303  23.453  0.00  0.00    +0.043 A 
ATOM     31  N   LIG    1      -35.986  68.896  23.795  0.00  0.00    -0.281 N 
ATOM     32  H   LIG    1      -35.427  69.285  24.540  0.00  0.00    +0.155 HD
ATOM     33  C   LIG    1      -35.549  67.881  22.972  0.00  0.00    +0.249 C 
ATOM     34  O   LIG    1      -34.458  67.338  23.043  0.00  0.00    -0.270 OA
ATOM     35  C   LIG    1      -36.686  67.607  22.008  0.00  0.00    +0.048 C 
ATOM     36  C   LIG    1      -36.782  66.700  21.015  0.00  0.00    +0.039 C 
ATOM     37  C   LIG    1      -37.753  68.567  22.371  0.00  0.00    +0.008 A 
ATOM     38  C   LIG    1      -39.019  68.844  21.888  0.00  0.00    +0.012 A 
ATOM     39  C   LIG    1      -39.766  69.871  22.506  0.00  0.00    +0.024 A 
BRANCH  36  40
ATOM     40  C   LIG    1      -35.831  65.722  20.592  0.00  0.00    +0.040 A 
ATOM     41  N   LIG    1      -34.572  66.044  20.140  0.00  0.00    -0.361 N 
ATOM     42  H   LIG    1      -34.201  66.985  20.050  0.00  0.00    +0.165 HD
ATOM     43  C   LIG    1      -33.870  64.914  19.816  0.00  0.00    +0.083 A 
ATOM     44  C   LIG    1      -34.681  63.832  20.052  0.00  0.00    +0.019 A 
ATOM     45  C   LIG    1      -35.913  64.337  20.539  0.00  0.00    +0.027 A 
ENDBRANCH  36  40
ENDBRANCH  27  28
BRANCH  27  46
ATOM     46  C   LIG    1      -41.251  71.172  25.000  0.00  0.00    +0.138 C 
BRANCH  46  47
ATOM     47  C   LIG    1      -40.921  70.793  26.450  0.00  0.00    +0.175 C 
BRANCH  47  48
ATOM     48  O   LIG    1      -41.121  71.918  27.304  0.00  0.00    -0.393 OA
ATOM     49  H   LIG    1      -40.238  72.223  27.577  0.00  0.00    +0.209 HD
ENDBRANCH  47  48
ENDBRANCH  46  47
ENDBRANCH  27  46
ENDBRANCH   3  27
TORSDOF 10
ENDMDL
MODEL 2
REMARK VINA RESULT:      -7.4      5.297     10.027
REMARK  Name = modded_pdb/CHEMBL2037209_nitrogen_modded_with_ethanol_version_2.pdb
REMARK                            x       y       z     vdW  Elec       q    Type
REMARK                         _______ _______ _______ _____ _____    ______ ____
ROOT
ATOM      1  C   LIG    1      -37.455  77.663  26.888  0.00  0.00    +0.035 A 
ATOM      2  C   LIG    1      -36.209  77.067  27.169  0.00  0.00    +0.046 A 
ATOM      3  C   LIG    1      -35.205  77.711  27.916  0.00  0.00    +0.036 A 
ATOM      4  C   LIG    1      -35.511  78.997  28.387  0.00  0.00    +0.023 A 
ATOM      5  C   LIG    1      -36.741  79.607  28.110  0.00  0.00    +0.004 A 
ATOM      6  C   LIG    1      -37.709  78.946  27.353  0.00  0.00    +0.023 A 
ENDROOT
BRANCH   1   8
ATOM      7  C   LIG    1      -38.422  76.678  24.777  0.00  0.00    +0.248 C 
ATOM      8  N   LIG    1      -38.369  76.882  26.148  0.00  0.00    -0.281 N 
ATOM      9  H   LIG    1      -39.079  76.462  26.722  0.00  0.00    +0.155 HD
ATOM     10  O   LIG    1      -37.637  77.140  23.957  0.00  0.00    -0.270 OA
BRANCH   7  15
ATOM     11  C   LIG    1      -41.801  75.690  23.310  0.00  0.00    +0.049 A 
ATOM     12  C   LIG    1      -41.752  74.290  23.363  0.00  0.00    +0.038 A 
ATOM     13  C   LIG    1      -40.606  73.641  23.839  0.00  0.00    +0.057 A 
ATOM     14  C   LIG    1      -39.522  74.414  24.291  0.00  0.00    +0.025 A 
ATOM     15  C   LIG    1      -39.556  75.815  24.268  0.00  0.00    +0.040 A 
ATOM     16  C   LIG    1      -40.706  76.448  23.757  0.00  0.00    +0.039 A 
BRANCH  11  21
ATOM     17  C   LIG    1      -45.374  79.009  22.214  0.00  0.00    +0.067 C 
ATOM     18  C   LIG    1      -44.536  77.796  22.339  0.00  0.00    +0.056 A 
ATOM     19  N   LIG    1      -44.859  76.649  21.661  0.00  0.00    -0.241 NA
ATOM     20  C   LIG    1      -43.900  75.795  21.945  0.00  0.00    +0.204 A 
ATOM     21  N   LIG    1      -42.960  76.327  22.796  0.00  0.00    -0.306 N 
ATOM     22  C   LIG    1      -43.377  77.610  23.063  0.00  0.00    +0.115 A 
ENDBRANCH  11  21
BRANCH  13  23
ATOM     23  C   LIG    1      -40.524  72.131  23.848  0.00  0.00    +0.418 C 
ATOM     24  F   LIG    1      -41.156  71.585  24.919  0.00  0.00    -0.166 F 
ATOM     25  F   LIG    1      -39.243  71.679  23.886  0.00  0.00    -0.166 F 
ATOM     26  F   LIG    1      -41.091  71.560  22.749  0.00  0.00    -0.166 F 
ENDBRANCH  13  23
ENDBRANCH   7  15
ENDBRANCH   1   8
BRANCH   3  27
ATOM     27  N   LIG    1      -33.933  77.120  28.167  0.00  0.00    -0.298 N 
BRANCH  27  28
ATOM     28  C   LIG    1      -33.680  75.779  28.575  0.00  0.00    +0.036 A 
ATOM     29  C   LIG    1      -34.152  74.704  27.801  0.00  0.00    +0.047 A 
ATOM     30  C   LIG    1      -33.887  73.410  28.212  0.00  0.00    +0.043 A 
ATOM     31  N   LIG    1      -34.300  72.256  27.559  0.00  0.00    -0.281 N 
ATOM     32  H   LIG    1      -34.849  72.225  26.713  0.00  0.00    +0.155 HD
ATOM     33  C   LIG    1      -33.869  71.127  28.222  0.00  0.00    +0.249 C 
ATOM     34  O   LIG    1      -34.092  69.979  27.875  0.00  0.00    -0.270 OA
ATOM     35  C   LIG    1      -33.087  71.622  29.423  0.00  0.00    +0.048 C 
ATOM     36  C   LIG    1      -32.441  70.930  30.383  0.00  0.00    +0.039 C 
ATOM     37  C   LIG    1      -33.152  73.100  29.356  0.00  0.00    +0.008 A 
ATOM     38  C   LIG    1      -32.666  74.131  30.138  0.00  0.00    +0.012 A 
ATOM     39  C   LIG    1      -32.944  75.461  29.748  0.00  0.00    +0.024 A 
BRANCH  36  40
ATOM     40  C   LIG    1      -32.300  69.517  30.535  0.00  0.00    +0.040 A 
ATOM     41  N   LIG    1      -33.371  68.656  30.587  0.00  0.00    -0.361 N 
ATOM     42  H   LIG    1      -34.348  68.927  30.538  0.00  0.00    +0.165 HD
ATOM     43  C   LIG    1      -32.946  67.361  30.723  0.00  0.00    +0.083 A 
ATOM     44  C   LIG    1      -31.574  67.370  30.767  0.00  0.00    +0.019 A 
ATOM     45  C   LIG    1      -31.166  68.723  30.650  0.00  0.00    +0.027 A 
ENDBRANCH  36  40
ENDBRANCH  27  28
BRANCH  27  46
ATOM     46  C   LIG    1      -32.742  77.961  27.893  0.00  0.00    +0.138 C 
BRANCH  46  47
ATOM     47  C   LIG    1      -32.152  77.683  26.505  0.00  0.00    +0.175 C 
BRANCH  47  48
ATOM     48  O   LIG    1      -32.347  78.814  25.658  0.00  0.00    -0.393 OA
ATOM     49  H   LIG    1      -32.789  79.494  26.196  0.00  0.00    +0.209 HD
ENDBRANCH  47  48
ENDBRANCH  46  47
ENDBRANCH  27  46
ENDBRANCH   3  27
TORSDOF 10
ENDMDL
MODEL 3
REMARK VINA RESULT:      -7.3      5.345     11.636
REMARK  Name = modded_pdb/CHEMBL2037209_nitrogen_modded_with_ethanol_version_2.pdb
REMARK                            x       y       z     vdW  Elec       q    Type
REMARK                         _______ _______ _______ _____ _____    ______ ____
ROOT
ATOM      1  C   LIG    1      -36.084  71.820  27.171  0.00  0.00    +0.035 A 
ATOM      2  C   LIG    1      -35.339  72.789  27.872  0.00  0.00    +0.046 A 
ATOM      3  C   LIG    1      -34.195  72.472  28.629  0.00  0.00    +0.036 A 
ATOM      4  C   LIG    1      -33.817  71.121  28.646  0.00  0.00    +0.023 A 
ATOM      5  C   LIG    1      -34.552  70.144  27.961  0.00  0.00    +0.004 A 
ATOM      6  C   LIG    1      -35.689  70.491  27.232  0.00  0.00    +0.023 A 
ENDROOT
BRANCH   1   8
ATOM      7  C   LIG    1      -37.481  72.112  25.091  0.00  0.00    +0.248 C 
ATOM      8  N   LIG    1      -37.191  72.295  26.435  0.00  0.00    -0.281 N 
ATOM      9  H   LIG    1      -37.810  72.865  26.984  0.00  0.00    +0.155 HD
ATOM     10  O   LIG    1      -36.808  71.460  24.300  0.00  0.00    -0.270 OA
BRANCH   7  15
ATOM     11  C   LIG    1      -39.998  74.854  24.260  0.00  0.00    +0.049 A 
ATOM     12  C   LIG    1      -41.058  74.128  23.701  0.00  0.00    +0.038 A 
ATOM     13  C   LIG    1      -40.958  72.739  23.547  0.00  0.00    +0.057 A 
ATOM     14  C   LIG    1      -39.796  72.084  23.990  0.00  0.00    +0.025 A 
ATOM     15  C   LIG    1      -38.731  72.787  24.573  0.00  0.00    +0.040 A 
ATOM     16  C   LIG    1      -38.838  74.187  24.690  0.00  0.00    +0.039 A 
BRANCH  11  21
ATOM     17  C   LIG    1      -40.038  79.542  25.995  0.00  0.00    +0.067 C 
ATOM     18  C   LIG    1      -40.139  78.321  25.164  0.00  0.00    +0.056 A 
ATOM     19  N   LIG    1      -40.420  78.407  23.826  0.00  0.00    -0.241 NA
ATOM     20  C   LIG    1      -40.386  77.169  23.383  0.00  0.00    +0.204 A 
ATOM     21  N   LIG    1      -40.106  76.264  24.379  0.00  0.00    -0.306 N 
ATOM     22  C   LIG    1      -39.962  77.003  25.530  0.00  0.00    +0.115 A 
ENDBRANCH  11  21
BRANCH  13  23
ATOM     23  C   LIG    1      -42.074  71.955  22.894  0.00  0.00    +0.418 C 
ATOM     24  F   LIG    1      -41.867  70.613  22.952  0.00  0.00    -0.166 F 
ATOM     25  F   LIG    1      -42.229  72.263  21.580  0.00  0.00    -0.166 F 
ATOM     26  F   LIG    1      -43.287  72.171  23.476  0.00  0.00    -0.166 F 
ENDBRANCH  13  23
ENDBRANCH   7  15
ENDBRANCH   1   8
BRANCH   3  27
ATOM     27  N   LIG    1      -33.465  73.448  29.367  0.00  0.00    -0.298 N 
BRANCH  27  28
ATOM     28  C   LIG    1      -33.698  74.852  29.388  0.00  0.00    +0.036 A 
ATOM     29  C   LIG    1      -33.465  75.625  28.237  0.00  0.00    +0.047 A 
ATOM     30  C   LIG    1      -33.706  76.987  28.277  0.00  0.00    +0.043 A 
ATOM     31  N   LIG    1      -33.509  77.873  27.226  0.00  0.00    -0.281 N 
ATOM     32  H   LIG    1      -33.159  77.628  26.311  0.00  0.00    +0.155 HD
ATOM     33  C   LIG    1      -33.848  79.158  27.589  0.00  0.00    +0.249 C 
ATOM     34  O   LIG    1      -33.769  80.137  26.864  0.00  0.00    -0.270 OA
ATOM     35  C   LIG    1      -34.321  79.076  29.027  0.00  0.00    +0.048 C 
ATOM     36  C   LIG    1      -34.781  80.043  29.845  0.00  0.00    +0.039 C 
ATOM     37  C   LIG    1      -34.191  77.650  29.404  0.00  0.00    +0.008 A 
ATOM     38  C   LIG    1      -34.438  76.922  30.553  0.00  0.00    +0.012 A 
ATOM     39  C   LIG    1      -34.178  75.533  30.540  0.00  0.00    +0.024 A 
BRANCH  36  40
ATOM     40  C   LIG    1      -34.963  81.434  29.583  0.00  0.00    +0.040 A 
ATOM     41  N   LIG    1      -35.776  81.911  28.581  0.00  0.00    -0.361 N 
ATOM     42  H   LIG    1      -36.307  81.340  27.932  0.00  0.00    +0.165 HD
ATOM     43  C   LIG    1      -35.775  83.281  28.566  0.00  0.00    +0.083 A 
ATOM     44  C   LIG    1      -34.944  83.712  29.568  0.00  0.00    +0.019 A 
ATOM     45  C   LIG    1      -34.432  82.555  30.208  0.00  0.00    +0.027 A 
ENDBRANCH  36  40
ENDBRANCH  27  28
BRANCH  27  46
ATOM     46  C   LIG    1      -32.408  72.942  30.276  0.00  0.00    +0.138 C 
BRANCH  46  47
ATOM     47  C   LIG    1      -31.003  73.296  29.773  0.00  0.00    +0.175 C 
BRANCH  47  48
ATOM     48  O   LIG    1      -30.324  72.114  29.353  0.00  0.00    -0.393 OA
ATOM     49  H   LIG    1      -29.642  71.928  30.023  0.00  0.00    +0.209 HD
ENDBRANCH  47  48
ENDBRANCH  46  47
ENDBRANCH  27  46
ENDBRANCH   3  27
TORSDOF 10
ENDMDL
MODEL 4
REMARK VINA RESULT:      -7.3      4.388      9.497
REMARK  Name = modded_pdb/CHEMBL2037209_nitrogen_modded_with_ethanol_version_2.pdb
REMARK                            x       y       z     vdW  Elec       q    Type
REMARK                         _______ _______ _______ _____ _____    ______ ____
ROOT
ATOM      1  C   LIG    1      -37.085  76.551  26.969  0.00  0.00    +0.035 A 
ATOM      2  C   LIG    1      -35.724  76.312  27.247  0.00  0.00    +0.046 A 
ATOM      3  C   LIG    1      -34.914  77.228  27.943  0.00  0.00    +0.036 A 
ATOM      4  C   LIG    1      -35.539  78.412  28.366  0.00  0.00    +0.023 A 
ATOM      5  C   LIG    1      -36.888  78.669  28.090  0.00  0.00    +0.004 A 
ATOM      6  C   LIG    1      -37.659  77.744  27.385  0.00  0.00    +0.023 A 
ENDROOT
BRANCH   1   8
ATOM      7  C   LIG    1      -38.421  75.586  25.060  0.00  0.00    +0.248 C 
ATOM      8  N   LIG    1      -37.773  75.526  26.285  0.00  0.00    -0.281 N 
ATOM      9  H   LIG    1      -37.803  74.663  26.800  0.00  0.00    +0.155 HD
ATOM     10  O   LIG    1      -38.482  76.573  24.335  0.00  0.00    -0.270 OA
BRANCH   7  15
ATOM     11  C   LIG    1      -39.035  71.895  24.324  0.00  0.00    +0.049 A 
ATOM     12  C   LIG    1      -40.294  71.918  23.709  0.00  0.00    +0.038 A 
ATOM     13  C   LIG    1      -40.985  73.128  23.560  0.00  0.00    +0.057 A 
ATOM     14  C   LIG    1      -40.382  74.318  24.004  0.00  0.00    +0.025 A 
ATOM     15  C   LIG    1      -39.113  74.322  24.601  0.00  0.00    +0.040 A 
ATOM     16  C   LIG    1      -38.450  73.092  24.771  0.00  0.00    +0.039 A 
BRANCH  11  21
ATOM     17  C   LIG    1      -35.801  68.321  25.646  0.00  0.00    +0.067 C 
ATOM     18  C   LIG    1      -36.921  69.096  25.069  0.00  0.00    +0.056 A 
ATOM     19  N   LIG    1      -37.914  68.470  24.362  0.00  0.00    -0.241 NA
ATOM     20  C   LIG    1      -38.764  69.420  24.039  0.00  0.00    +0.204 A 
ATOM     21  N   LIG    1      -38.366  70.656  24.494  0.00  0.00    -0.306 N 
ATOM     22  C   LIG    1      -37.171  70.450  25.144  0.00  0.00    +0.115 A 
ENDBRANCH  11  21
BRANCH  13  23
ATOM     23  C   LIG    1      -42.367  73.154  22.948  0.00  0.00    +0.418 C 
ATOM     24  F   LIG    1      -42.671  74.363  22.405  0.00  0.00    -0.166 F 
ATOM     25  F   LIG    1      -43.343  72.884  23.854  0.00  0.00    -0.166 F 
ATOM     26  F   LIG    1      -42.524  72.245  21.945  0.00  0.00    -0.166 F 
ENDBRANCH  13  23
ENDBRANCH   7  15
ENDBRANCH   1   8
BRANCH   3  27
ATOM     27  N   LIG    1      -33.530  77.000  28.191  0.00  0.00    -0.298 N 
BRANCH  27  28
ATOM     28  C   LIG    1      -32.942  75.819  28.725  0.00  0.00    +0.036 A 
ATOM     29  C   LIG    1      -33.499  74.560  28.439  0.00  0.00    +0.047 A 
ATOM     30  C   LIG    1      -32.906  73.425  28.962  0.00  0.00    +0.043 A 
ATOM     31  N   LIG    1      -33.351  72.123  28.776  0.00  0.00    -0.281 N 
ATOM     32  H   LIG    1      -34.166  71.852  28.245  0.00  0.00    +0.155 HD
ATOM     33  C   LIG    1      -32.537  71.220  29.425  0.00  0.00    +0.249 C 
ATOM     34  O   LIG    1      -32.696  70.010  29.436  0.00  0.00    -0.270 OA
ATOM     35  C   LIG    1      -31.448  72.041  30.087  0.00  0.00    +0.048 C 
ATOM     36  C   LIG    1      -30.392  71.647  30.827  0.00  0.00    +0.039 C 
ATOM     37  C   LIG    1      -31.758  73.450  29.754  0.00  0.00    +0.008 A 
ATOM     38  C   LIG    1      -31.178  74.670  30.050  0.00  0.00    +0.012 A 
ATOM     39  C   LIG    1      -31.780  75.843  29.545  0.00  0.00    +0.024 A 
BRANCH  36  40
ATOM     40  C   LIG    1      -29.991  70.326  31.192  0.00  0.00    +0.040 A 
ATOM     41  N   LIG    1      -30.786  69.474  31.923  0.00  0.00    -0.361 N 
ATOM     42  H   LIG    1      -31.711  69.692  32.281  0.00  0.00    +0.165 HD
ATOM     43  C   LIG    1      -30.159  68.271  32.116  0.00  0.00    +0.083 A 
ATOM     44  C   LIG    1      -28.930  68.335  31.508  0.00  0.00    +0.019 A 
ATOM     45  C   LIG    1      -28.822  69.624  30.928  0.00  0.00    +0.027 A 
ENDBRANCH  36  40
ENDBRANCH  27  28
BRANCH  27  46
ATOM     46  C   LIG    1      -32.592  78.070  27.768  0.00  0.00    +0.138 C 
BRANCH  46  47
ATOM     47  C   LIG    1      -32.087  77.855  26.336  0.00  0.00    +0.175 C 
BRANCH  47  48
ATOM     48  O   LIG    1      -32.384  79.000  25.539  0.00  0.00    -0.393 OA
ATOM     49  H   LIG    1      -31.675  79.072  24.876  0.00  0.00    +0.209 HD
ENDBRANCH  47  48
ENDBRANCH  46  47
ENDBRANCH  27  46
ENDBRANCH   3  27
TORSDOF 10
ENDMDL
MODEL 5
REMARK VINA RESULT:      -7.2      9.026     17.009
REMARK  Name = modded_pdb/CHEMBL2037209_nitrogen_modded_with_ethanol_version_2.pdb
REMARK                            x       y       z     vdW  Elec       q    Type
REMARK                         _______ _______ _______ _____ _____    ______ ____
ROOT
ATOM      1  C   LIG    1      -27.915  74.689  32.423  0.00  0.00    +0.035 A 
ATOM      2  C   LIG    1      -26.808  75.454  32.004  0.00  0.00    +0.046 A 
ATOM      3  C   LIG    1      -25.584  75.470  32.698  0.00  0.00    +0.036 A 
ATOM      4  C   LIG    1      -25.511  74.666  33.845  0.00  0.00    +0.023 A 
ATOM      5  C   LIG    1      -26.604  73.905  34.280  0.00  0.00    +0.004 A 
ATOM      6  C   LIG    1      -27.808  73.924  33.575  0.00  0.00    +0.023 A 
ENDROOT
BRANCH   1   8
ATOM      7  C   LIG    1      -29.688  75.877  31.079  0.00  0.00    +0.248 C 
ATOM      8  N   LIG    1      -29.065  74.756  31.608  0.00  0.00    -0.281 N 
ATOM      9  H   LIG    1      -29.478  73.855  31.438  0.00  0.00    +0.155 HD
ATOM     10  O   LIG    1      -29.309  77.034  31.219  0.00  0.00    -0.270 OA
BRANCH   7  15
ATOM     11  C   LIG    1      -32.820  76.567  29.015  0.00  0.00    +0.049 A 
ATOM     12  C   LIG    1      -33.334  75.280  28.812  0.00  0.00    +0.038 A 
ATOM     13  C   LIG    1      -32.652  74.161  29.307  0.00  0.00    +0.057 A 
ATOM     14  C   LIG    1      -31.465  74.352  30.036  0.00  0.00    +0.025 A 
ATOM     15  C   LIG    1      -30.943  75.632  30.271  0.00  0.00    +0.040 A 
ATOM     16  C   LIG    1      -31.628  76.741  29.738  0.00  0.00    +0.039 A 
BRANCH  11  21
ATOM     17  C   LIG    1      -36.296  79.969  27.864  0.00  0.00    +0.067 C 
ATOM     18  C   LIG    1      -35.059  79.164  27.966  0.00  0.00    +0.056 A 
ATOM     19  N   LIG    1      -33.908  79.568  27.341  0.00  0.00    -0.241 NA
ATOM     20  C   LIG    1      -33.001  78.674  27.670  0.00  0.00    +0.204 A 
ATOM     21  N   LIG    1      -33.510  77.685  28.479  0.00  0.00    -0.306 N 
ATOM     22  C   LIG    1      -34.839  77.991  28.657  0.00  0.00    +0.115 A 
ENDBRANCH  11  21
BRANCH  13  23
ATOM     23  C   LIG    1      -33.171  72.765  29.045  0.00  0.00    +0.418 C 
ATOM     24  F   LIG    1      -32.187  71.828  29.094  0.00  0.00    -0.166 F 
ATOM     25  F   LIG    1      -33.753  72.646  27.824  0.00  0.00    -0.166 F 
ATOM     26  F   LIG    1      -34.109  72.367  29.949  0.00  0.00    -0.166 F 
ENDBRANCH  13  23
ENDBRANCH   7  15
ENDBRANCH   1   8
BRANCH   3  27
ATOM     27  N   LIG    1      -24.479  76.273  32.293  0.00  0.00    -0.298 N 
BRANCH  27  28
ATOM     28  C   LIG    1      -23.814  77.265  33.068  0.00  0.00    +0.036 A 
ATOM     29  C   LIG    1      -24.558  78.189  33.823  0.00  0.00    +0.047 A 
ATOM     30  C   LIG    1      -23.890  79.138  34.576  0.00  0.00    +0.043 A 
ATOM     31  N   LIG    1      -24.491  80.118  35.356  0.00  0.00    -0.281 N 
ATOM     32  H   LIG    1      -25.485  80.258  35.458  0.00  0.00    +0.155 HD
ATOM     33  C   LIG    1      -23.547  80.902  35.983  0.00  0.00    +0.249 C 
ATOM     34  O   LIG    1      -23.793  81.841  36.724  0.00  0.00    -0.270 OA
ATOM     35  C   LIG    1      -22.199  80.352  35.562  0.00  0.00    +0.048 C 
ATOM     36  C   LIG    1      -20.956  80.743  35.907  0.00  0.00    +0.039 C 
ATOM     37  C   LIG    1      -22.500  79.226  34.649  0.00  0.00    +0.008 A 
ATOM     38  C   LIG    1      -21.735  78.329  33.925  0.00  0.00    +0.012 A 
ATOM     39  C   LIG    1      -22.397  77.365  33.132  0.00  0.00    +0.024 A 
BRANCH  36  40
ATOM     40  C   LIG    1      -20.553  81.794  36.784  0.00  0.00    +0.040 A 
ATOM     41  N   LIG    1      -20.858  83.118  36.563  0.00  0.00    -0.361 N 
ATOM     42  H   LIG    1      -21.375  83.478  35.767  0.00  0.00    +0.165 HD
ATOM     43  C   LIG    1      -20.360  83.905  37.568  0.00  0.00    +0.083 A 
ATOM     44  C   LIG    1      -19.713  83.088  38.461  0.00  0.00    +0.019 A 
ATOM     45  C   LIG    1      -19.832  81.763  37.971  0.00  0.00    +0.027 A 
ENDBRANCH  36  40
ENDBRANCH  27  28
BRANCH  27  46
ATOM     46  C   LIG    1      -23.904  75.989  30.955  0.00  0.00    +0.138 C 
BRANCH  46  47
ATOM     47  C   LIG    1      -23.949  77.218  30.039  0.00  0.00    +0.175 C 
BRANCH  47  48
ATOM     48  O   LIG    1      -25.249  77.352  29.467  0.00  0.00    -0.393 OA
ATOM     49  H   LIG    1      -25.254  76.819  28.653  0.00  0.00    +0.209 HD
ENDBRANCH  47  48
ENDBRANCH  46  47
ENDBRANCH  27  46
ENDBRANCH   3  27
TORSDOF 10
ENDMDL
MODEL 6
REMARK VINA RESULT:      -7.2     16.090     19.054
REMARK  Name = modded_pdb/CHEMBL2037209_nitrogen_modded_with_ethanol_version_2.pdb
REMARK                            x       y       z     vdW  Elec       q    Type
REMARK                         _______ _______ _______ _____ _____    ______ ____
ROOT
ATOM      1  C   LIG    1      -32.595  78.941  10.702  0.00  0.00    +0.035 A 
ATOM      2  C   LIG    1      -31.195  78.817  10.595  0.00  0.00    +0.046 A 
ATOM      3  C   LIG    1      -30.552  77.584  10.378  0.00  0.00    +0.036 A 
ATOM      4  C   LIG    1      -31.386  76.462  10.262  0.00  0.00    +0.023 A 
ATOM      5  C   LIG    1      -32.778  76.566  10.374  0.00  0.00    +0.004 A 
ATOM      6  C   LIG    1      -33.382  77.803  10.604  0.00  0.00    +0.023 A 
ENDROOT
BRANCH   1   8
ATOM      7  C   LIG    1      -33.558  81.145   9.944  0.00  0.00    +0.248 C 
ATOM      8  N   LIG    1      -33.093  80.248  10.894  0.00  0.00    -0.281 N 
ATOM      9  H   LIG    1      -33.060  80.543  11.854  0.00  0.00    +0.155 HD
ATOM     10  O   LIG    1      -33.638  80.930   8.740  0.00  0.00    -0.270 OA
BRANCH   7  15
ATOM     11  C   LIG    1      -35.813  83.972  11.158  0.00  0.00    +0.049 A 
ATOM     12  C   LIG    1      -34.904  85.022  11.338  0.00  0.00    +0.038 A 
ATOM     13  C   LIG    1      -33.537  84.821  11.108  0.00  0.00    +0.057 A 
ATOM     14  C   LIG    1      -33.097  83.562  10.663  0.00  0.00    +0.025 A 
ATOM     15  C   LIG    1      -33.991  82.502  10.453  0.00  0.00    +0.040 A 
ATOM     16  C   LIG    1      -35.357  82.716  10.721  0.00  0.00    +0.039 A 
BRANCH  11  21
ATOM     17  C   LIG    1      -40.803  84.083  10.886  0.00  0.00    +0.067 C 
ATOM     18  C   LIG    1      -39.386  84.246  11.282  0.00  0.00    +0.056 A 
ATOM     19  N   LIG    1      -39.056  84.823  12.480  0.00  0.00    -0.241 NA
ATOM     20  C   LIG    1      -37.744  84.767  12.544  0.00  0.00    +0.204 A 
ATOM     21  N   LIG    1      -37.189  84.188  11.426  0.00  0.00    -0.306 N 
ATOM     22  C   LIG    1      -38.246  83.866  10.606  0.00  0.00    +0.115 A 
ENDBRANCH  11  21
BRANCH  13  23
ATOM     23  C   LIG    1      -32.543  85.934  11.354  0.00  0.00    +0.418 C 
ATOM     24  F   LIG    1      -33.066  86.940  12.103  0.00  0.00    -0.166 F 
ATOM     25  F   LIG    1      -32.103  86.503  10.201  0.00  0.00    -0.166 F 
ATOM     26  F   LIG    1      -31.429  85.516  12.016  0.00  0.00    -0.166 F 
ENDBRANCH  13  23
ENDBRANCH   7  15
ENDBRANCH   1   8
BRANCH   3  27
ATOM     27  N   LIG    1      -29.134  77.457  10.307  0.00  0.00    -0.298 N 
BRANCH  27  28
ATOM     28  C   LIG    1      -28.178  78.065  11.168  0.00  0.00    +0.036 A 
ATOM     29  C   LIG    1      -28.053  77.637  12.501  0.00  0.00    +0.047 A 
ATOM     30  C   LIG    1      -27.111  78.236  13.317  0.00  0.00    +0.043 A 
ATOM     31  N   LIG    1      -26.886  77.927  14.652  0.00  0.00    -0.281 N 
ATOM     32  H   LIG    1      -27.390  77.234  15.186  0.00  0.00    +0.155 HD
ATOM     33  C   LIG    1      -25.876  78.702  15.179  0.00  0.00    +0.249 C 
ATOM     34  O   LIG    1      -25.473  78.646  16.331  0.00  0.00    -0.270 OA
ATOM     35  C   LIG    1      -25.401  79.594  14.050  0.00  0.00    +0.048 C 
ATOM     36  C   LIG    1      -24.422  80.521  14.028  0.00  0.00    +0.039 C 
ATOM     37  C   LIG    1      -26.249  79.245  12.887  0.00  0.00    +0.008 A 
ATOM     38  C   LIG    1      -26.338  79.688  11.580  0.00  0.00    +0.012 A 
ATOM     39  C   LIG    1      -27.309  79.104  10.736  0.00  0.00    +0.024 A 
BRANCH  36  40
ATOM     40  C   LIG    1      -23.538  80.922  15.076  0.00  0.00    +0.040 A 
ATOM     41  N   LIG    1      -22.806  80.031  15.825  0.00  0.00    -0.361 N 
ATOM     42  H   LIG    1      -22.825  79.021  15.724  0.00  0.00    +0.165 HD
ATOM     43  C   LIG    1      -22.035  80.690  16.746  0.00  0.00    +0.083 A 
ATOM     44  C   LIG    1      -22.269  82.035  16.606  0.00  0.00    +0.019 A 
ATOM     45  C   LIG    1      -23.213  82.184  15.558  0.00  0.00    +0.027 A 
ENDBRANCH  36  40
ENDBRANCH  27  28
BRANCH  27  46
ATOM     46  C   LIG    1      -28.601  76.525   9.283  0.00  0.00    +0.138 C 
BRANCH  46  47
ATOM     47  C   LIG    1      -27.783  75.390   9.913  0.00  0.00    +0.175 C 
BRANCH  47  48
ATOM     48  O   LIG    1      -26.424  75.477   9.488  0.00  0.00    -0.393 OA
ATOM     49  H   LIG    1      -25.928  75.888  10.218  0.00  0.00    +0.209 HD
ENDBRANCH  47  48
ENDBRANCH  46  47
ENDBRANCH  27  46
ENDBRANCH   3  27
TORSDOF 10
ENDMDL
MODEL 7
REMARK VINA RESULT:      -7.1      8.748     16.648
REMARK  Name = modded_pdb/CHEMBL2037209_nitrogen_modded_with_ethanol_version_2.pdb
REMARK                            x       y       z     vdW  Elec       q    Type
REMARK                         _______ _______ _______ _____ _____    ______ ____
ROOT
ATOM      1  C   LIG    1      -28.762  75.707  32.291  0.00  0.00    +0.035 A 
ATOM      2  C   LIG    1      -27.532  76.287  31.919  0.00  0.00    +0.046 A 
ATOM      3  C   LIG    1      -26.399  76.276  32.754  0.00  0.00    +0.036 A 
ATOM      4  C   LIG    1      -26.550  75.638  33.995  0.00  0.00    +0.023 A 
ATOM      5  C   LIG    1      -27.768  75.064  34.383  0.00  0.00    +0.004 A 
ATOM      6  C   LIG    1      -28.876  75.107  33.536  0.00  0.00    +0.023 A 
ENDROOT
BRANCH   1   8
ATOM      7  C   LIG    1      -30.513  74.739  30.755  0.00  0.00    +0.248 C 
ATOM      8  N   LIG    1      -29.799  75.777  31.335  0.00  0.00    -0.281 N 
ATOM      9  H   LIG    1      -29.994  76.716  31.036  0.00  0.00    +0.155 HD
ATOM     10  O   LIG    1      -30.369  73.548  31.008  0.00  0.00    -0.270 OA
BRANCH   7  15
ATOM     11  C   LIG    1      -33.524  74.507  28.426  0.00  0.00    +0.049 A 
ATOM     12  C   LIG    1      -33.473  75.733  27.749  0.00  0.00    +0.038 A 
ATOM     13  C   LIG    1      -32.484  76.673  28.065  0.00  0.00    +0.057 A 
ATOM     14  C   LIG    1      -31.527  76.356  29.045  0.00  0.00    +0.025 A 
ATOM     15  C   LIG    1      -31.545  75.127  29.720  0.00  0.00    +0.040 A 
ATOM     16  C   LIG    1      -32.567  74.208  29.410  0.00  0.00    +0.039 A 
BRANCH  11  21
ATOM     17  C   LIG    1      -36.090  70.348  27.375  0.00  0.00    +0.067 C 
ATOM     18  C   LIG    1      -35.664  71.742  27.632  0.00  0.00    +0.056 A 
ATOM     19  N   LIG    1      -36.583  72.759  27.669  0.00  0.00    -0.241 NA
ATOM     20  C   LIG    1      -35.895  73.839  27.966  0.00  0.00    +0.204 A 
ATOM     21  N   LIG    1      -34.552  73.581  28.113  0.00  0.00    -0.306 N 
ATOM     22  C   LIG    1      -34.400  72.233  27.883  0.00  0.00    +0.115 A 
ENDBRANCH  11  21
BRANCH  13  23
ATOM     23  C   LIG    1      -32.455  78.020  27.377  0.00  0.00    +0.418 C 
ATOM     24  F   LIG    1      -33.686  78.592  27.306  0.00  0.00    -0.166 F 
ATOM     25  F   LIG    1      -31.992  77.944  26.102  0.00  0.00    -0.166 F 
ATOM     26  F   LIG    1      -31.659  78.925  28.012  0.00  0.00    -0.166 F 
ENDBRANCH  13  23
ENDBRANCH   7  15
ENDBRANCH   1   8
BRANCH   3  27
ATOM     27  N   LIG    1      -25.168  76.895  32.392  0.00  0.00    -0.298 N 
BRANCH  27  28
ATOM     28  C   LIG    1      -24.399  77.794  33.183  0.00  0.00    +0.036 A 
ATOM     29  C   LIG    1      -25.026  78.600  34.149  0.00  0.00    +0.047 A 
ATOM     30  C   LIG    1      -24.257  79.460  34.913  0.00  0.00    +0.043 A 
ATOM     31  N   LIG    1      -24.739  80.320  35.891  0.00  0.00    -0.281 N 
ATOM     32  H   LIG    1      -25.708  80.426  36.153  0.00  0.00    +0.155 HD
ATOM     33  C   LIG    1      -23.716  81.039  36.470  0.00  0.00    +0.249 C 
ATOM     34  O   LIG    1      -23.852  81.871  37.352  0.00  0.00    -0.270 OA
ATOM     35  C   LIG    1      -22.443  80.574  35.791  0.00  0.00    +0.048 C 
ATOM     36  C   LIG    1      -21.163  80.944  35.999  0.00  0.00    +0.039 C 
ATOM     37  C   LIG    1      -22.872  79.566  34.794  0.00  0.00    +0.008 A 
ATOM     38  C   LIG    1      -22.219  78.784  33.859  0.00  0.00    +0.012 A 
ATOM     39  C   LIG    1      -22.988  77.915  33.053  0.00  0.00    +0.024 A 
BRANCH  36  40
ATOM     40  C   LIG    1      -20.638  81.885  36.936  0.00  0.00    +0.040 A 
ATOM     41  N   LIG    1      -19.883  81.519  38.026  0.00  0.00    -0.361 N 
ATOM     42  H   LIG    1      -19.636  80.567  38.279  0.00  0.00    +0.165 HD
ATOM     43  C   LIG    1      -19.501  82.621  38.744  0.00  0.00    +0.083 A 
ATOM     44  C   LIG    1      -20.019  83.729  38.121  0.00  0.00    +0.019 A 
ATOM     45  C   LIG    1      -20.734  83.269  36.986  0.00  0.00    +0.027 A 
ENDBRANCH  36  40
ENDBRANCH  27  28
BRANCH  27  46
ATOM     46  C   LIG    1      -24.581  76.495  31.089  0.00  0.00    +0.138 C 
BRANCH  46  47
ATOM     47  C   LIG    1      -24.387  77.698  30.156  0.00  0.00    +0.175 C 
BRANCH  47  48
ATOM     48  O   LIG    1      -25.630  78.372  29.967  0.00  0.00    -0.393 OA
ATOM     49  H   LIG    1      -25.747  78.964  30.730  0.00  0.00    +0.209 HD
ENDBRANCH  47  48
ENDBRANCH  46  47
ENDBRANCH  27  46
ENDBRANCH   3  27
TORSDOF 10
ENDMDL
MODEL 8
REMARK VINA RESULT:      -7.1      5.835     13.450
REMARK  Name = modded_pdb/CHEMBL2037209_nitrogen_modded_with_ethanol_version_2.pdb
REMARK                            x       y       z     vdW  Elec       q    Type
REMARK                         _______ _______ _______ _____ _____    ______ ____
ROOT
ATOM      1  C   LIG    1      -36.129  75.151  27.430  0.00  0.00    +0.035 A 
ATOM      2  C   LIG    1      -35.492  76.408  27.435  0.00  0.00    +0.046 A 
ATOM      3  C   LIG    1      -34.328  76.672  28.181  0.00  0.00    +0.036 A 
ATOM      4  C   LIG    1      -33.814  75.600  28.927  0.00  0.00    +0.023 A 
ATOM      5  C   LIG    1      -34.439  74.346  28.939  0.00  0.00    +0.004 A 
ATOM      6  C   LIG    1      -35.601  74.124  28.199  0.00  0.00    +0.023 A 
ENDROOT
BRANCH   1   8
ATOM      7  C   LIG    1      -37.566  75.699  25.431  0.00  0.00    +0.248 C 
ATOM      8  N   LIG    1      -37.273  75.034  26.612  0.00  0.00    -0.281 N 
ATOM      9  H   LIG    1      -37.958  74.400  26.986  0.00  0.00    +0.155 HD
ATOM     10  O   LIG    1      -36.836  76.510  24.871  0.00  0.00    -0.270 OA
BRANCH   7  15
ATOM     11  C   LIG    1      -41.060  76.219  23.994  0.00  0.00    +0.049 A 
ATOM     12  C   LIG    1      -41.455  74.911  23.687  0.00  0.00    +0.038 A 
ATOM     13  C   LIG    1      -40.578  73.840  23.903  0.00  0.00    +0.057 A 
ATOM     14  C   LIG    1      -39.313  74.094  24.462  0.00  0.00    +0.025 A 
ATOM     15  C   LIG    1      -38.905  75.393  24.798  0.00  0.00    +0.040 A 
ATOM     16  C   LIG    1      -39.789  76.459  24.543  0.00  0.00    +0.039 A 
BRANCH  11  21
ATOM     17  C   LIG    1      -43.175  80.737  23.673  0.00  0.00    +0.067 C 
ATOM     18  C   LIG    1      -42.877  79.289  23.623  0.00  0.00    +0.056 A 
ATOM     19  N   LIG    1      -43.757  78.413  23.042  0.00  0.00    -0.241 NA
ATOM     20  C   LIG    1      -43.177  77.235  23.117  0.00  0.00    +0.204 A 
ATOM     21  N   LIG    1      -41.952  77.293  23.739  0.00  0.00    -0.306 N 
ATOM     22  C   LIG    1      -41.765  78.613  24.080  0.00  0.00    +0.115 A 
ENDBRANCH  11  21
BRANCH  13  23
ATOM     23  C   LIG    1      -40.975  72.431  23.523  0.00  0.00    +0.418 C 
ATOM     24  F   LIG    1      -39.902  71.606  23.396  0.00  0.00    -0.166 F 
ATOM     25  F   LIG    1      -41.641  72.379  22.340  0.00  0.00    -0.166 F 
ATOM     26  F   LIG    1      -41.792  71.842  24.440  0.00  0.00    -0.166 F 
ENDBRANCH  13  23
ENDBRANCH   7  15
ENDBRANCH   1   8
BRANCH   3  27
ATOM     27  N   LIG    1      -33.707  77.954  28.213  0.00  0.00    -0.298 N 
BRANCH  27  28
ATOM     28  C   LIG    1      -34.296  79.177  28.640  0.00  0.00    +0.036 A 
ATOM     29  C   LIG    1      -34.563  80.196  27.709  0.00  0.00    +0.047 A 
ATOM     30  C   LIG    1      -35.144  81.374  28.145  0.00  0.00    +0.043 A 
ATOM     31  N   LIG    1      -35.452  82.466  27.345  0.00  0.00    -0.281 N 
ATOM     32  H   LIG    1      -35.279  82.533  26.352  0.00  0.00    +0.155 HD
ATOM     33  C   LIG    1      -36.026  83.478  28.083  0.00  0.00    +0.249 C 
ATOM     34  O   LIG    1      -36.390  84.555  27.638  0.00  0.00    -0.270 OA
ATOM     35  C   LIG    1      -36.100  82.965  29.508  0.00  0.00    +0.048 C 
ATOM     36  C   LIG    1      -36.593  83.552  30.617  0.00  0.00    +0.039 C 
ATOM     37  C   LIG    1      -35.504  81.610  29.471  0.00  0.00    +0.008 A 
ATOM     38  C   LIG    1      -35.264  80.628  30.414  0.00  0.00    +0.012 A 
ATOM     39  C   LIG    1      -34.650  79.426  29.994  0.00  0.00    +0.024 A 
BRANCH  36  40
ATOM     40  C   LIG    1      -37.200  84.836  30.763  0.00  0.00    +0.040 A 
ATOM     41  N   LIG    1      -38.285  85.244  30.022  0.00  0.00    -0.361 N 
ATOM     42  H   LIG    1      -38.748  84.695  29.304  0.00  0.00    +0.165 HD
ATOM     43  C   LIG    1      -38.667  86.510  30.378  0.00  0.00    +0.083 A 
ATOM     44  C   LIG    1      -37.817  86.945  31.363  0.00  0.00    +0.019 A 
ATOM     45  C   LIG    1      -36.894  85.897  31.607  0.00  0.00    +0.027 A 
ENDBRANCH  36  40
ENDBRANCH  27  28
BRANCH  27  46
ATOM     46  C   LIG    1      -32.270  78.007  27.846  0.00  0.00    +0.138 C 
BRANCH  46  47
ATOM     47  C   LIG    1      -32.044  77.666  26.368  0.00  0.00    +0.175 C 
BRANCH  47  48
ATOM     48  O   LIG    1      -32.339  78.801  25.556  0.00  0.00    -0.393 OA
ATOM     49  H   LIG    1      -33.297  78.958  25.631  0.00  0.00    +0.209 HD
ENDBRANCH  47  48
ENDBRANCH  46  47
ENDBRANCH  27  46
ENDBRANCH   3  27
TORSDOF 10
ENDMDL
MODEL 9
REMARK VINA RESULT:      -7.1      6.196     12.725
REMARK  Name = modded_pdb/CHEMBL2037209_nitrogen_modded_with_ethanol_version_2.pdb
REMARK                            x       y       z     vdW  Elec       q    Type
REMARK                         _______ _______ _______ _____ _____    ______ ____
ROOT
ATOM      1  C   LIG    1      -35.833  76.497  27.042  0.00  0.00    +0.035 A 
ATOM      2  C   LIG    1      -36.390  77.695  27.533  0.00  0.00    +0.046 A 
ATOM      3  C   LIG    1      -35.623  78.692  28.165  0.00  0.00    +0.036 A 
ATOM      4  C   LIG    1      -34.248  78.438  28.277  0.00  0.00    +0.023 A 
ATOM      5  C   LIG    1      -33.679  77.250  27.801  0.00  0.00    +0.004 A 
ATOM      6  C   LIG    1      -34.472  76.275  27.193  0.00  0.00    +0.023 A 
ENDROOT
BRANCH   1   8
ATOM      7  C   LIG    1      -37.415  75.769  25.218  0.00  0.00    +0.248 C 
ATOM      8  N   LIG    1      -36.726  75.605  26.411  0.00  0.00    -0.281 N 
ATOM      9  H   LIG    1      -36.883  74.767  26.942  0.00  0.00    +0.155 HD
ATOM     10  O   LIG    1      -37.335  76.743  24.478  0.00  0.00    -0.270 OA
BRANCH   7  15
ATOM     11  C   LIG    1      -38.704  72.241  24.558  0.00  0.00    +0.049 A 
ATOM     12  C   LIG    1      -39.977  72.483  24.025  0.00  0.00    +0.038 A 
ATOM     13  C   LIG    1      -40.456  73.794  23.908  0.00  0.00    +0.057 A 
ATOM     14  C   LIG    1      -39.629  74.861  24.301  0.00  0.00    +0.025 A 
ATOM     15  C   LIG    1      -38.343  74.644  24.816  0.00  0.00    +0.040 A 
ATOM     16  C   LIG    1      -37.893  73.317  24.955  0.00  0.00    +0.039 A 
BRANCH  11  21
ATOM     17  C   LIG    1      -36.585  67.780  23.786  0.00  0.00    +0.067 C 
ATOM     18  C   LIG    1      -37.327  68.937  24.333  0.00  0.00    +0.056 A 
ATOM     19  N   LIG    1      -37.871  68.890  25.590  0.00  0.00    -0.241 NA
ATOM     20  C   LIG    1      -38.406  70.076  25.783  0.00  0.00    +0.204 A 
ATOM     21  N   LIG    1      -38.250  70.904  24.697  0.00  0.00    -0.306 N 
ATOM     22  C   LIG    1      -37.570  70.166  23.756  0.00  0.00    +0.115 A 
ENDBRANCH  11  21
BRANCH  13  23
ATOM     23  C   LIG    1      -41.850  74.061  23.385  0.00  0.00    +0.418 C 
ATOM     24  F   LIG    1      -42.800  73.920  24.347  0.00  0.00    -0.166 F 
ATOM     25  F   LIG    1      -42.198  73.220  22.376  0.00  0.00    -0.166 F 
ATOM     26  F   LIG    1      -42.002  75.322  22.893  0.00  0.00    -0.166 F 
ENDBRANCH  13  23
ENDBRANCH   7  15
ENDBRANCH   1   8
BRANCH   3  27
ATOM     27  N   LIG    1      -36.196  79.885  28.693  0.00  0.00    -0.298 N 
BRANCH  27  28
ATOM     28  C   LIG    1      -36.675  81.002  27.953  0.00  0.00    +0.036 A 
ATOM     29  C   LIG    1      -35.769  81.919  27.390  0.00  0.00    +0.047 A 
ATOM     30  C   LIG    1      -36.257  82.993  26.667  0.00  0.00    +0.043 A 
ATOM     31  N   LIG    1      -35.485  83.980  26.069  0.00  0.00    -0.281 N 
ATOM     32  H   LIG    1      -34.478  84.035  26.099  0.00  0.00    +0.155 HD
ATOM     33  C   LIG    1      -36.275  84.905  25.421  0.00  0.00    +0.249 C 
ATOM     34  O   LIG    1      -35.862  85.881  24.816  0.00  0.00    -0.270 OA
ATOM     35  C   LIG    1      -37.706  84.447  25.623  0.00  0.00    +0.048 C 
ATOM     36  C   LIG    1      -38.860  84.983  25.178  0.00  0.00    +0.039 C 
ATOM     37  C   LIG    1      -37.615  83.217  26.443  0.00  0.00    +0.008 A 
ATOM     38  C   LIG    1      -38.535  82.333  26.974  0.00  0.00    +0.012 A 
ATOM     39  C   LIG    1      -38.059  81.241  27.735  0.00  0.00    +0.024 A 
BRANCH  36  40
ATOM     40  C   LIG    1      -39.062  86.145  24.373  0.00  0.00    +0.040 A 
ATOM     41  N   LIG    1      -39.332  86.090  23.025  0.00  0.00    -0.361 N 
ATOM     42  H   LIG    1      -39.401  85.241  22.473  0.00  0.00    +0.165 HD
ATOM     43  C   LIG    1      -39.494  87.349  22.511  0.00  0.00    +0.083 A 
ATOM     44  C   LIG    1      -39.321  88.247  23.534  0.00  0.00    +0.019 A 
ATOM     45  C   LIG    1      -39.050  87.495  24.704  0.00  0.00    +0.027 A 
ENDBRANCH  36  40
ENDBRANCH  27  28
BRANCH  27  46
ATOM     46  C   LIG    1      -36.393  79.935  30.163  0.00  0.00    +0.138 C 
BRANCH  46  47
ATOM     47  C   LIG    1      -35.259  80.690  30.868  0.00  0.00    +0.175 C 
BRANCH  47  48
ATOM     48  O   LIG    1      -34.428  79.770  31.574  0.00  0.00    -0.393 OA
ATOM     49  H   LIG    1      -34.781  79.711  32.479  0.00  0.00    +0.209 HD
ENDBRANCH  47  48
ENDBRANCH  46  47
ENDBRANCH  27  46
ENDBRANCH   3  27
TORSDOF 10
ENDMDL
