MODEL 1
REMARK VINA RESULT:      -6.2      0.000      0.000
REMARK  Name = pdb/CHEMBL3671136.pdb
REMARK                            x       y       z     vdW  Elec       q    Type
REMARK                         _______ _______ _______ _____ _____    ______ ____
ROOT
ATOM      1  C   LIG    1      -22.916  76.818  30.700  0.00  0.00    +0.100 A 
ATOM      2  C   LIG    1      -21.949  77.304  31.560  0.00  0.00    +0.170 A 
ATOM      3  N   LIG    1      -21.999  77.689  32.879  0.00  0.00    -0.212 NA
ATOM      4  C   LIG    1      -20.924  78.231  33.410  0.00  0.00    +0.126 A 
ATOM      5  C   LIG    1      -19.637  78.382  32.621  0.00  0.00    +0.063 A 
ATOM      6  C   LIG    1      -19.633  77.959  31.353  0.00  0.00    +0.118 A 
ATOM      7  N   LIG    1      -20.780  77.417  30.802  0.00  0.00    -0.221 N 
ATOM      8  N   LIG    1      -20.947  76.976  29.534  0.00  0.00    -0.173 NA
ATOM      9  C   LIG    1      -22.237  76.639  29.477  0.00  0.00    +0.150 A 
ENDROOT
BRANCH   4  10
ATOM     10  N   LIG    1      -20.953  78.698  34.721  0.00  0.00    -0.308 N 
ATOM     11  C   LIG    1      -20.696  80.114  35.072  0.00  0.00    +0.108 C 
ATOM     12  C   LIG    1      -19.570  79.984  36.111  0.00  0.00    +0.029 C 
ATOM     13  C   LIG    1      -19.954  78.740  36.897  0.00  0.00    +0.021 C 
ATOM     14  C   LIG    1      -20.549  77.822  35.836  0.00  0.00    +0.107 C 
BRANCH  11  15
ATOM     15  C   LIG    1      -21.953  80.788  35.616  0.00  0.00    +0.011 A 
ATOM     16  C   LIG    1      -21.891  82.062  36.205  0.00  0.00    +0.129 A 
ATOM     17  F   LIG    1      -20.717  82.701  36.300  0.00  0.00    -0.205 F 
ATOM     18  C   LIG    1      -23.035  82.702  36.705  0.00  0.00    +0.041 A 
ATOM     19  C   LIG    1      -24.274  82.068  36.638  0.00  0.00    +0.041 A 
ATOM     20  C   LIG    1      -24.351  80.806  36.072  0.00  0.00    +0.124 A 
ATOM     21  F   LIG    1      -25.531  80.177  36.005  0.00  0.00    -0.205 F 
ATOM     22  C   LIG    1      -23.217  80.175  35.567  0.00  0.00    +0.046 A 
ENDBRANCH  11  15
ENDBRANCH   4  10
BRANCH   1  25
ATOM     23  N   LIG    1      -24.619  76.032  32.191  0.00  0.00    -0.304 N 
ATOM     24  H   LIG    1      -23.840  75.950  32.841  0.00  0.00    +0.150 HD
ATOM     25  C   LIG    1      -24.323  76.546  30.944  0.00  0.00    +0.250 C 
ATOM     26  O   LIG    1      -25.165  76.753  30.090  0.00  0.00    -0.270 OA
BRANCH  23  28
ATOM     27  C   LIG    1      -25.960  75.269  34.138  0.00  0.00    +0.033 C 
ATOM     28  C   LIG    1      -25.975  75.675  32.652  0.00  0.00    +0.052 C 
ATOM     29  C   LIG    1      -26.465  74.463  31.835  0.00  0.00    +0.033 C 
BRANCH  28  30
ATOM     30  C   LIG    1      -26.971  76.852  32.461  0.00  0.00    +0.181 C 
BRANCH  30  31
ATOM     31  O   LIG    1      -27.844  76.624  31.354  0.00  0.00    -0.393 OA
ATOM     32  H   LIG    1      -27.266  76.501  30.579  0.00  0.00    +0.209 HD
ENDBRANCH  30  31
ENDBRANCH  28  30
ENDBRANCH  23  28
ENDBRANCH   1  25
TORSDOF 6
ENDMDL
MODEL 2
REMARK VINA RESULT:      -6.1      1.930      2.603
REMARK  Name = pdb/CHEMBL3671136.pdb
REMARK                            x       y       z     vdW  Elec       q    Type
REMARK                         _______ _______ _______ _____ _____    ______ ____
ROOT
ATOM      1  C   LIG    1      -20.543  77.362  31.244  0.00  0.00    +0.100 A 
ATOM      2  C   LIG    1      -20.036  77.946  32.390  0.00  0.00    +0.170 A 
ATOM      3  N   LIG    1      -20.647  78.531  33.473  0.00  0.00    -0.212 NA
ATOM      4  C   LIG    1      -19.888  79.116  34.375  0.00  0.00    +0.126 A 
ATOM      5  C   LIG    1      -18.375  79.103  34.269  0.00  0.00    +0.063 A 
ATOM      6  C   LIG    1      -17.832  78.489  33.214  0.00  0.00    +0.118 A 
ATOM      7  N   LIG    1      -18.645  77.904  32.261  0.00  0.00    -0.221 N 
ATOM      8  N   LIG    1      -18.254  77.277  31.128  0.00  0.00    -0.173 NA
ATOM      9  C   LIG    1      -19.400  76.975  30.514  0.00  0.00    +0.150 A 
ENDROOT
BRANCH   4  10
ATOM     10  N   LIG    1      -20.470  79.781  35.450  0.00  0.00    -0.308 N 
ATOM     11  C   LIG    1      -21.483  80.848  35.278  0.00  0.00    +0.108 C 
ATOM     12  C   LIG    1      -20.863  82.007  36.076  0.00  0.00    +0.029 C 
ATOM     13  C   LIG    1      -20.231  81.316  37.274  0.00  0.00    +0.021 C 
ATOM     14  C   LIG    1      -19.705  80.009  36.691  0.00  0.00    +0.107 C 
BRANCH  11  15
ATOM     15  C   LIG    1      -22.847  80.408  35.804  0.00  0.00    +0.011 A 
ATOM     16  C   LIG    1      -23.807  79.850  34.942  0.00  0.00    +0.129 A 
ATOM     17  F   LIG    1      -23.533  79.703  33.639  0.00  0.00    -0.205 F 
ATOM     18  C   LIG    1      -25.063  79.433  35.406  0.00  0.00    +0.041 A 
ATOM     19  C   LIG    1      -25.394  79.580  36.751  0.00  0.00    +0.041 A 
ATOM     20  C   LIG    1      -24.465  80.140  37.612  0.00  0.00    +0.124 A 
ATOM     21  F   LIG    1      -24.766  80.296  38.907  0.00  0.00    -0.205 F 
ATOM     22  C   LIG    1      -23.213  80.545  37.154  0.00  0.00    +0.046 A 
ENDBRANCH  11  15
ENDBRANCH   4  10
BRANCH   1  25
ATOM     23  N   LIG    1      -22.827  76.975  31.858  0.00  0.00    -0.304 N 
ATOM     24  H   LIG    1      -22.456  77.041  32.803  0.00  0.00    +0.150 HD
ATOM     25  C   LIG    1      -21.924  77.173  30.832  0.00  0.00    +0.250 C 
ATOM     26  O   LIG    1      -22.241  77.182  29.656  0.00  0.00    -0.270 OA
BRANCH  23  28
ATOM     27  C   LIG    1      -25.000  76.699  33.030  0.00  0.00    +0.033 C 
ATOM     28  C   LIG    1      -24.275  76.756  31.672  0.00  0.00    +0.052 C 
ATOM     29  C   LIG    1      -24.477  75.398  30.970  0.00  0.00    +0.033 C 
BRANCH  28  30
ATOM     30  C   LIG    1      -24.915  77.875  30.805  0.00  0.00    +0.181 C 
BRANCH  30  31
ATOM     31  O   LIG    1      -25.213  77.411  29.488  0.00  0.00    -0.393 OA
ATOM     32  H   LIG    1      -25.298  76.443  29.559  0.00  0.00    +0.209 HD
ENDBRANCH  30  31
ENDBRANCH  28  30
ENDBRANCH  23  28
ENDBRANCH   1  25
TORSDOF 6
ENDMDL
MODEL 3
REMARK VINA RESULT:      -6.1      2.474      5.080
REMARK  Name = pdb/CHEMBL3671136.pdb
REMARK                            x       y       z     vdW  Elec       q    Type
REMARK                         _______ _______ _______ _____ _____    ______ ____
ROOT
ATOM      1  C   LIG    1      -25.925  77.929  34.341  0.00  0.00    +0.100 A 
ATOM      2  C   LIG    1      -25.205  78.739  35.199  0.00  0.00    +0.170 A 
ATOM      3  N   LIG    1      -23.999  79.383  35.061  0.00  0.00    -0.212 NA
ATOM      4  C   LIG    1      -23.500  80.000  36.111  0.00  0.00    +0.126 A 
ATOM      5  C   LIG    1      -24.249  80.059  37.428  0.00  0.00    +0.063 A 
ATOM      6  C   LIG    1      -25.434  79.445  37.497  0.00  0.00    +0.118 A 
ATOM      7  N   LIG    1      -25.931  78.778  36.392  0.00  0.00    -0.221 N 
ATOM      8  N   LIG    1      -27.091  78.085  36.310  0.00  0.00    -0.173 NA
ATOM      9  C   LIG    1      -27.067  77.562  35.082  0.00  0.00    +0.150 A 
ENDROOT
BRANCH   4  10
ATOM     10  N   LIG    1      -22.249  80.605  36.035  0.00  0.00    -0.308 N 
ATOM     11  C   LIG    1      -21.043  80.033  36.677  0.00  0.00    +0.108 C 
ATOM     12  C   LIG    1      -20.547  81.212  37.531  0.00  0.00    +0.029 C 
ATOM     13  C   LIG    1      -20.818  82.424  36.654  0.00  0.00    +0.021 C 
ATOM     14  C   LIG    1      -22.131  82.073  35.963  0.00  0.00    +0.107 C 
BRANCH  11  15
ATOM     15  C   LIG    1      -20.028  79.565  35.636  0.00  0.00    +0.011 A 
ATOM     16  C   LIG    1      -18.729  79.187  36.013  0.00  0.00    +0.129 A 
ATOM     17  F   LIG    1      -18.362  79.239  37.301  0.00  0.00    -0.205 F 
ATOM     18  C   LIG    1      -17.784  78.749  35.073  0.00  0.00    +0.041 A 
ATOM     19  C   LIG    1      -18.119  78.693  33.722  0.00  0.00    +0.041 A 
ATOM     20  C   LIG    1      -19.392  79.074  33.331  0.00  0.00    +0.124 A 
ATOM     21  F   LIG    1      -19.732  79.034  32.036  0.00  0.00    -0.205 F 
ATOM     22  C   LIG    1      -20.333  79.500  34.265  0.00  0.00    +0.046 A 
ENDBRANCH  11  15
ENDBRANCH   4  10
BRANCH   1  25
ATOM     23  N   LIG    1      -24.282  77.287  32.719  0.00  0.00    -0.304 N 
ATOM     24  H   LIG    1      -23.647  77.373  33.509  0.00  0.00    +0.150 HD
ATOM     25  C   LIG    1      -25.619  77.511  32.982  0.00  0.00    +0.250 C 
ATOM     26  O   LIG    1      -26.494  77.384  32.146  0.00  0.00    -0.270 OA
BRANCH  23  28
ATOM     27  C   LIG    1      -24.270  75.470  31.025  0.00  0.00    +0.033 C 
ATOM     28  C   LIG    1      -23.742  76.864  31.411  0.00  0.00    +0.052 C 
ATOM     29  C   LIG    1      -22.207  76.776  31.522  0.00  0.00    +0.033 C 
BRANCH  28  30
ATOM     30  C   LIG    1      -24.112  77.873  30.289  0.00  0.00    +0.181 C 
BRANCH  30  31
ATOM     31  O   LIG    1      -25.204  77.401  29.500  0.00  0.00    -0.393 OA
ATOM     32  H   LIG    1      -24.819  76.785  28.850  0.00  0.00    +0.209 HD
ENDBRANCH  30  31
ENDBRANCH  28  30
ENDBRANCH  23  28
ENDBRANCH   1  25
TORSDOF 6
ENDMDL
MODEL 4
REMARK VINA RESULT:      -5.9     18.271     21.265
REMARK  Name = pdb/CHEMBL3671136.pdb
REMARK                            x       y       z     vdW  Elec       q    Type
REMARK                         _______ _______ _______ _____ _____    ______ ____
ROOT
ATOM      1  C   LIG    1      -18.874  85.625  13.363  0.00  0.00    +0.100 A 
ATOM      2  C   LIG    1      -19.060  84.276  13.598  0.00  0.00    +0.170 A 
ATOM      3  N   LIG    1      -20.126  83.567  14.097  0.00  0.00    -0.212 NA
ATOM      4  C   LIG    1      -19.968  82.280  14.321  0.00  0.00    +0.126 A 
ATOM      5  C   LIG    1      -18.670  81.570  13.988  0.00  0.00    +0.063 A 
ATOM      6  C   LIG    1      -17.677  82.300  13.472  0.00  0.00    +0.118 A 
ATOM      7  N   LIG    1      -17.851  83.657  13.269  0.00  0.00    -0.221 N 
ATOM      8  N   LIG    1      -16.940  84.535  12.789  0.00  0.00    -0.173 NA
ATOM      9  C   LIG    1      -17.555  85.715  12.870  0.00  0.00    +0.150 A 
ENDROOT
BRANCH   4  10
ATOM     10  N   LIG    1      -20.999  81.539  14.891  0.00  0.00    -0.308 N 
ATOM     11  C   LIG    1      -22.288  82.144  15.298  0.00  0.00    +0.108 C 
ATOM     12  C   LIG    1      -22.393  81.710  16.770  0.00  0.00    +0.029 C 
ATOM     13  C   LIG    1      -21.829  80.298  16.764  0.00  0.00    +0.021 C 
ATOM     14  C   LIG    1      -20.700  80.373  15.742  0.00  0.00    +0.107 C 
BRANCH  11  15
ATOM     15  C   LIG    1      -23.438  81.637  14.429  0.00  0.00    +0.011 A 
ATOM     16  C   LIG    1      -23.647  82.149  13.139  0.00  0.00    +0.129 A 
ATOM     17  F   LIG    1      -22.836  83.100  12.655  0.00  0.00    -0.205 F 
ATOM     18  C   LIG    1      -24.693  81.693  12.322  0.00  0.00    +0.041 A 
ATOM     19  C   LIG    1      -25.568  80.715  12.791  0.00  0.00    +0.041 A 
ATOM     20  C   LIG    1      -25.383  80.208  14.067  0.00  0.00    +0.124 A 
ATOM     21  F   LIG    1      -26.217  79.272  14.539  0.00  0.00    -0.205 F 
ATOM     22  C   LIG    1      -24.339  80.654  14.874  0.00  0.00    +0.046 A 
ENDBRANCH  11  15
ENDBRANCH   4  10
BRANCH   1  25
ATOM     23  N   LIG    1      -20.999  86.639  12.914  0.00  0.00    -0.304 N 
ATOM     24  H   LIG    1      -21.164  85.775  12.403  0.00  0.00    +0.150 HD
ATOM     25  C   LIG    1      -19.787  86.738  13.569  0.00  0.00    +0.250 C 
ATOM     26  O   LIG    1      -19.480  87.688  14.266  0.00  0.00    -0.270 OA
BRANCH  23  28
ATOM     27  C   LIG    1      -22.422  87.993  14.434  0.00  0.00    +0.033 C 
ATOM     28  C   LIG    1      -22.071  87.652  12.974  0.00  0.00    +0.052 C 
ATOM     29  C   LIG    1      -23.332  87.066  12.308  0.00  0.00    +0.033 C 
BRANCH  28  30
ATOM     30  C   LIG    1      -21.666  88.956  12.234  0.00  0.00    +0.181 C 
BRANCH  30  31
ATOM     31  O   LIG    1      -20.846  89.790  13.053  0.00  0.00    -0.393 OA
ATOM     32  H   LIG    1      -21.428  90.125  13.759  0.00  0.00    +0.209 HD
ENDBRANCH  30  31
ENDBRANCH  28  30
ENDBRANCH  23  28
ENDBRANCH   1  25
TORSDOF 6
ENDMDL
MODEL 5
REMARK VINA RESULT:      -5.7     13.335     17.900
REMARK  Name = pdb/CHEMBL3671136.pdb
REMARK                            x       y       z     vdW  Elec       q    Type
REMARK                         _______ _______ _______ _____ _____    ______ ____
ROOT
ATOM      1  C   LIG    1      -36.232  79.684  28.620  0.00  0.00    +0.100 A 
ATOM      2  C   LIG    1      -37.518  79.338  28.252  0.00  0.00    +0.170 A 
ATOM      3  N   LIG    1      -38.012  78.646  27.172  0.00  0.00    -0.212 NA
ATOM      4  C   LIG    1      -39.318  78.571  27.025  0.00  0.00    +0.126 A 
ATOM      5  C   LIG    1      -40.268  79.174  28.042  0.00  0.00    +0.063 A 
ATOM      6  C   LIG    1      -39.734  79.805  29.092  0.00  0.00    +0.118 A 
ATOM      7  N   LIG    1      -38.359  79.899  29.216  0.00  0.00    -0.221 N 
ATOM      8  N   LIG    1      -37.669  80.528  30.195  0.00  0.00    -0.173 NA
ATOM      9  C   LIG    1      -36.394  80.411  29.817  0.00  0.00    +0.150 A 
ENDROOT
BRANCH   4  10
ATOM     10  N   LIG    1      -39.860  77.941  25.909  0.00  0.00    -0.308 N 
ATOM     11  C   LIG    1      -39.030  77.461  24.779  0.00  0.00    +0.108 C 
ATOM     12  C   LIG    1      -39.698  78.151  23.578  0.00  0.00    +0.029 C 
ATOM     13  C   LIG    1      -41.179  78.094  23.915  0.00  0.00    +0.021 C 
ATOM     14  C   LIG    1      -41.206  78.301  25.426  0.00  0.00    +0.107 C 
BRANCH  11  15
ATOM     15  C   LIG    1      -39.040  75.937  24.691  0.00  0.00    +0.011 A 
ATOM     16  C   LIG    1      -38.007  75.174  25.260  0.00  0.00    +0.129 A 
ATOM     17  F   LIG    1      -36.991  75.782  25.887  0.00  0.00    -0.205 F 
ATOM     18  C   LIG    1      -38.001  73.772  25.196  0.00  0.00    +0.041 A 
ATOM     19  C   LIG    1      -39.031  73.100  24.542  0.00  0.00    +0.041 A 
ATOM     20  C   LIG    1      -40.052  73.838  23.964  0.00  0.00    +0.124 A 
ATOM     21  F   LIG    1      -41.048  73.211  23.325  0.00  0.00    -0.205 F 
ATOM     22  C   LIG    1      -40.063  75.228  24.036  0.00  0.00    +0.046 A 
ENDBRANCH  11  15
ENDBRANCH   4  10
BRANCH   1  25
ATOM     23  N   LIG    1      -34.378  78.198  28.300  0.00  0.00    -0.304 N 
ATOM     24  H   LIG    1      -34.908  77.600  28.930  0.00  0.00    +0.150 HD
ATOM     25  C   LIG    1      -34.969  79.399  27.958  0.00  0.00    +0.250 C 
ATOM     26  O   LIG    1      -34.477  80.184  27.168  0.00  0.00    -0.270 OA
BRANCH  23  28
ATOM     27  C   LIG    1      -33.327  76.616  26.699  0.00  0.00    +0.033 C 
ATOM     28  C   LIG    1      -33.095  77.709  27.759  0.00  0.00    +0.052 C 
ATOM     29  C   LIG    1      -32.285  77.086  28.913  0.00  0.00    +0.033 C 
BRANCH  28  30
ATOM     30  C   LIG    1      -32.268  78.860  27.122  0.00  0.00    +0.181 C 
BRANCH  30  31
ATOM     31  O   LIG    1      -32.312  78.811  25.696  0.00  0.00    -0.393 OA
ATOM     32  H   LIG    1      -32.286  79.737  25.396  0.00  0.00    +0.209 HD
ENDBRANCH  30  31
ENDBRANCH  28  30
ENDBRANCH  23  28
ENDBRANCH   1  25
TORSDOF 6
ENDMDL
MODEL 6
REMARK VINA RESULT:      -5.6     13.640     17.795
REMARK  Name = pdb/CHEMBL3671136.pdb
REMARK                            x       y       z     vdW  Elec       q    Type
REMARK                         _______ _______ _______ _____ _____    ______ ____
ROOT
ATOM      1  C   LIG    1      -37.519  76.021  25.751  0.00  0.00    +0.100 A 
ATOM      2  C   LIG    1      -38.082  74.780  25.519  0.00  0.00    +0.170 A 
ATOM      3  N   LIG    1      -37.780  73.528  25.997  0.00  0.00    -0.212 NA
ATOM      4  C   LIG    1      -38.429  72.498  25.497  0.00  0.00    +0.126 A 
ATOM      5  C   LIG    1      -39.525  72.674  24.465  0.00  0.00    +0.063 A 
ATOM      6  C   LIG    1      -39.803  73.917  24.061  0.00  0.00    +0.118 A 
ATOM      7  N   LIG    1      -39.092  74.986  24.575  0.00  0.00    -0.221 N 
ATOM      8  N   LIG    1      -39.229  76.292  24.248  0.00  0.00    -0.173 NA
ATOM      9  C   LIG    1      -38.267  76.901  24.942  0.00  0.00    +0.150 A 
ENDROOT
BRANCH   4  10
ATOM     10  N   LIG    1      -38.105  71.206  25.903  0.00  0.00    -0.308 N 
ATOM     11  C   LIG    1      -37.092  70.379  25.207  0.00  0.00    +0.108 C 
ATOM     12  C   LIG    1      -37.885  69.100  24.894  0.00  0.00    +0.029 C 
ATOM     13  C   LIG    1      -38.756  68.912  26.126  0.00  0.00    +0.021 C 
ATOM     14  C   LIG    1      -39.125  70.338  26.519  0.00  0.00    +0.107 C 
BRANCH  11  15
ATOM     15  C   LIG    1      -35.870  70.138  26.091  0.00  0.00    +0.011 A 
ATOM     16  C   LIG    1      -34.827  69.297  25.667  0.00  0.00    +0.129 A 
ATOM     17  F   LIG    1      -34.898  68.689  24.475  0.00  0.00    -0.205 F 
ATOM     18  C   LIG    1      -33.694  69.068  26.460  0.00  0.00    +0.041 A 
ATOM     19  C   LIG    1      -33.585  69.669  27.713  0.00  0.00    +0.041 A 
ATOM     20  C   LIG    1      -34.610  70.492  28.152  0.00  0.00    +0.124 A 
ATOM     21  F   LIG    1      -34.529  71.074  29.354  0.00  0.00    -0.205 F 
ATOM     22  C   LIG    1      -35.731  70.727  27.360  0.00  0.00    +0.046 A 
ENDBRANCH  11  15
ENDBRANCH   4  10
BRANCH   1  25
ATOM     23  N   LIG    1      -35.609  75.341  27.030  0.00  0.00    -0.304 N 
ATOM     24  H   LIG    1      -35.834  74.425  26.650  0.00  0.00    +0.150 HD
ATOM     25  C   LIG    1      -36.406  76.389  26.612  0.00  0.00    +0.250 C 
ATOM     26  O   LIG    1      -36.214  77.546  26.939  0.00  0.00    -0.270 OA
BRANCH  23  28
ATOM     27  C   LIG    1      -33.398  76.442  27.296  0.00  0.00    +0.033 C 
ATOM     28  C   LIG    1      -34.432  75.481  27.910  0.00  0.00    +0.052 C 
ATOM     29  C   LIG    1      -33.766  74.098  28.057  0.00  0.00    +0.033 C 
BRANCH  28  30
ATOM     30  C   LIG    1      -34.832  76.003  29.318  0.00  0.00    +0.181 C 
BRANCH  30  31
ATOM     31  O   LIG    1      -34.575  77.401  29.451  0.00  0.00    -0.393 OA
ATOM     32  H   LIG    1      -35.105  77.698  30.213  0.00  0.00    +0.209 HD
ENDBRANCH  30  31
ENDBRANCH  28  30
ENDBRANCH  23  28
ENDBRANCH   1  25
TORSDOF 6
ENDMDL
MODEL 7
REMARK VINA RESULT:      -5.6     18.569     21.454
REMARK  Name = pdb/CHEMBL3671136.pdb
REMARK                            x       y       z     vdW  Elec       q    Type
REMARK                         _______ _______ _______ _____ _____    ______ ____
ROOT
ATOM      1  C   LIG    1      -40.280  69.069  21.476  0.00  0.00    +0.100 A 
ATOM      2  C   LIG    1      -39.554  69.661  22.493  0.00  0.00    +0.170 A 
ATOM      3  N   LIG    1      -39.853  70.683  23.363  0.00  0.00    -0.212 NA
ATOM      4  C   LIG    1      -38.902  71.117  24.162  0.00  0.00    +0.126 A 
ATOM      5  C   LIG    1      -37.526  70.480  24.180  0.00  0.00    +0.063 A 
ATOM      6  C   LIG    1      -37.301  69.467  23.339  0.00  0.00    +0.118 A 
ATOM      7  N   LIG    1      -38.302  69.041  22.486  0.00  0.00    -0.221 N 
ATOM      8  N   LIG    1      -38.223  68.058  21.560  0.00  0.00    -0.173 NA
ATOM      9  C   LIG    1      -39.407  68.097  20.945  0.00  0.00    +0.150 A 
ENDROOT
BRANCH   4  10
ATOM     10  N   LIG    1      -39.142  72.196  25.008  0.00  0.00    -0.308 N 
ATOM     11  C   LIG    1      -38.314  73.424  24.993  0.00  0.00    +0.108 C 
ATOM     12  C   LIG    1      -37.887  73.540  26.466  0.00  0.00    +0.029 C 
ATOM     13  C   LIG    1      -39.125  73.094  27.229  0.00  0.00    +0.021 C 
ATOM     14  C   LIG    1      -39.695  71.980  26.358  0.00  0.00    +0.107 C 
BRANCH  11  15
ATOM     15  C   LIG    1      -39.112  74.627  24.494  0.00  0.00    +0.011 A 
ATOM     16  C   LIG    1      -38.566  75.920  24.526  0.00  0.00    +0.129 A 
ATOM     17  F   LIG    1      -37.329  76.114  25.005  0.00  0.00    -0.205 F 
ATOM     18  C   LIG    1      -39.280  77.036  24.066  0.00  0.00    +0.041 A 
ATOM     19  C   LIG    1      -40.574  76.881  23.573  0.00  0.00    +0.041 A 
ATOM     20  C   LIG    1      -41.133  75.614  23.545  0.00  0.00    +0.124 A 
ATOM     21  F   LIG    1      -42.378  75.445  23.081  0.00  0.00    -0.205 F 
ATOM     22  C   LIG    1      -40.420  74.505  23.993  0.00  0.00    +0.046 A 
ENDBRANCH  11  15
ENDBRANCH   4  10
BRANCH   1  25
ATOM     23  N   LIG    1      -42.047  70.658  21.168  0.00  0.00    -0.304 N 
ATOM     24  H   LIG    1      -41.358  71.311  21.533  0.00  0.00    +0.150 HD
ATOM     25  C   LIG    1      -41.628  69.351  21.012  0.00  0.00    +0.250 C 
ATOM     26  O   LIG    1      -42.328  68.478  20.532  0.00  0.00    -0.270 OA
BRANCH  23  28
ATOM     27  C   LIG    1      -43.535  72.647  21.166  0.00  0.00    +0.033 C 
ATOM     28  C   LIG    1      -43.377  71.166  20.775  0.00  0.00    +0.052 C 
ATOM     29  C   LIG    1      -44.451  70.359  21.532  0.00  0.00    +0.033 C 
BRANCH  28  30
ATOM     30  C   LIG    1      -43.615  71.019  19.247  0.00  0.00    +0.181 C 
BRANCH  30  31
ATOM     31  O   LIG    1      -44.273  69.791  18.936  0.00  0.00    -0.393 OA
ATOM     32  H   LIG    1      -44.430  69.808  17.974  0.00  0.00    +0.209 HD
ENDBRANCH  30  31
ENDBRANCH  28  30
ENDBRANCH  23  28
ENDBRANCH   1  25
TORSDOF 6
ENDMDL
MODEL 8
REMARK VINA RESULT:      -5.5      2.408      4.443
REMARK  Name = pdb/CHEMBL3671136.pdb
REMARK                            x       y       z     vdW  Elec       q    Type
REMARK                         _______ _______ _______ _____ _____    ______ ____
ROOT
ATOM      1  C   LIG    1      -25.030  77.492  32.492  0.00  0.00    +0.100 A 
ATOM      2  C   LIG    1      -23.739  77.333  32.022  0.00  0.00    +0.170 A 
ATOM      3  N   LIG    1      -22.520  77.348  32.656  0.00  0.00    -0.212 NA
ATOM      4  C   LIG    1      -21.433  77.284  31.917  0.00  0.00    +0.126 A 
ATOM      5  C   LIG    1      -21.505  77.139  30.409  0.00  0.00    +0.063 A 
ATOM      6  C   LIG    1      -22.717  77.094  29.847  0.00  0.00    +0.118 A 
ATOM      7  N   LIG    1      -23.849  77.191  30.636  0.00  0.00    -0.221 N 
ATOM      8  N   LIG    1      -25.136  77.195  30.220  0.00  0.00    -0.173 NA
ATOM      9  C   LIG    1      -25.836  77.398  31.338  0.00  0.00    +0.150 A 
ENDROOT
BRANCH   4  10
ATOM     10  N   LIG    1      -20.179  77.366  32.513  0.00  0.00    -0.308 N 
ATOM     11  C   LIG    1      -19.446  78.645  32.664  0.00  0.00    +0.108 C 
ATOM     12  C   LIG    1      -18.098  78.320  31.999  0.00  0.00    +0.029 C 
ATOM     13  C   LIG    1      -17.835  76.881  32.416  0.00  0.00    +0.021 C 
ATOM     14  C   LIG    1      -19.222  76.250  32.400  0.00  0.00    +0.107 C 
BRANCH  11  15
ATOM     15  C   LIG    1      -19.321  79.043  34.133  0.00  0.00    +0.011 A 
ATOM     16  C   LIG    1      -20.405  79.614  34.821  0.00  0.00    +0.129 A 
ATOM     17  F   LIG    1      -21.568  79.820  34.187  0.00  0.00    -0.205 F 
ATOM     18  C   LIG    1      -20.314  79.980  36.171  0.00  0.00    +0.041 A 
ATOM     19  C   LIG    1      -19.119  79.796  36.865  0.00  0.00    +0.041 A 
ATOM     20  C   LIG    1      -18.036  79.246  36.198  0.00  0.00    +0.124 A 
ATOM     21  F   LIG    1      -16.877  79.067  36.844  0.00  0.00    -0.205 F 
ATOM     22  C   LIG    1      -18.130  78.873  34.860  0.00  0.00    +0.046 A 
ENDBRANCH  11  15
ENDBRANCH   4  10
BRANCH   1  25
ATOM     23  N   LIG    1      -24.838  78.704  34.551  0.00  0.00    -0.304 N 
ATOM     24  H   LIG    1      -24.127  79.220  34.038  0.00  0.00    +0.150 HD
ATOM     25  C   LIG    1      -25.502  77.718  33.848  0.00  0.00    +0.250 C 
ATOM     26  O   LIG    1      -26.416  77.063  34.317  0.00  0.00    -0.270 OA
BRANCH  23  28
ATOM     27  C   LIG    1      -24.604  80.506  36.245  0.00  0.00    +0.033 C 
ATOM     28  C   LIG    1      -25.144  79.095  35.941  0.00  0.00    +0.052 C 
ATOM     29  C   LIG    1      -24.444  78.105  36.892  0.00  0.00    +0.033 C 
BRANCH  28  30
ATOM     30  C   LIG    1      -26.673  79.070  36.218  0.00  0.00    +0.181 C 
BRANCH  30  31
ATOM     31  O   LIG    1      -27.035  77.971  37.054  0.00  0.00    -0.393 OA
ATOM     32  H   LIG    1      -27.219  78.352  37.932  0.00  0.00    +0.209 HD
ENDBRANCH  30  31
ENDBRANCH  28  30
ENDBRANCH  23  28
ENDBRANCH   1  25
TORSDOF 6
ENDMDL
MODEL 9
REMARK VINA RESULT:      -5.5     16.628     20.539
REMARK  Name = pdb/CHEMBL3671136.pdb
REMARK                            x       y       z     vdW  Elec       q    Type
REMARK                         _______ _______ _______ _____ _____    ______ ____
ROOT
ATOM      1  C   LIG    1      -35.260  67.502  23.154  0.00  0.00    +0.100 A 
ATOM      2  C   LIG    1      -36.337  67.926  22.398  0.00  0.00    +0.170 A 
ATOM      3  N   LIG    1      -37.436  68.691  22.709  0.00  0.00    -0.212 NA
ATOM      4  C   LIG    1      -38.372  68.834  21.795  0.00  0.00    +0.126 A 
ATOM      5  C   LIG    1      -38.232  68.230  20.412  0.00  0.00    +0.063 A 
ATOM      6  C   LIG    1      -37.127  67.525  20.151  0.00  0.00    +0.118 A 
ATOM      7  N   LIG    1      -36.166  67.360  21.132  0.00  0.00    -0.221 N 
ATOM      8  N   LIG    1      -35.015  66.653  21.038  0.00  0.00    -0.173 NA
ATOM      9  C   LIG    1      -34.490  66.727  22.262  0.00  0.00    +0.150 A 
ENDROOT
BRANCH   4  10
ATOM     10  N   LIG    1      -39.533  69.542  22.092  0.00  0.00    -0.308 N 
ATOM     11  C   LIG    1      -39.954  69.843  23.480  0.00  0.00    +0.108 C 
ATOM     12  C   LIG    1      -41.383  69.278  23.509  0.00  0.00    +0.029 C 
ATOM     13  C   LIG    1      -41.927  69.616  22.130  0.00  0.00    +0.021 C 
ATOM     14  C   LIG    1      -40.717  69.437  21.220  0.00  0.00    +0.107 C 
BRANCH  11  15
ATOM     15  C   LIG    1      -39.885  71.341  23.769  0.00  0.00    +0.011 A 
ATOM     16  C   LIG    1      -38.776  71.899  24.427  0.00  0.00    +0.129 A 
ATOM     17  F   LIG    1      -37.762  71.114  24.816  0.00  0.00    -0.205 F 
ATOM     18  C   LIG    1      -38.690  73.273  24.696  0.00  0.00    +0.041 A 
ATOM     19  C   LIG    1      -39.728  74.123  24.321  0.00  0.00    +0.041 A 
ATOM     20  C   LIG    1      -40.835  73.588  23.682  0.00  0.00    +0.124 A 
ATOM     21  F   LIG    1      -41.846  74.387  23.319  0.00  0.00    -0.205 F 
ATOM     22  C   LIG    1      -40.916  72.225  23.406  0.00  0.00    +0.046 A 
ENDBRANCH  11  15
ENDBRANCH   4  10
BRANCH   1  25
ATOM     23  N   LIG    1      -35.114  69.063  24.966  0.00  0.00    -0.304 N 
ATOM     24  H   LIG    1      -35.495  69.709  24.278  0.00  0.00    +0.150 HD
ATOM     25  C   LIG    1      -34.949  67.757  24.551  0.00  0.00    +0.250 C 
ATOM     26  O   LIG    1      -34.560  66.867  25.286  0.00  0.00    -0.270 OA
BRANCH  23  28
ATOM     27  C   LIG    1      -35.923  69.036  27.315  0.00  0.00    +0.033 C 
ATOM     28  C   LIG    1      -34.852  69.550  26.335  0.00  0.00    +0.052 C 
ATOM     29  C   LIG    1      -34.917  71.090  26.326  0.00  0.00    +0.033 C 
BRANCH  28  30
ATOM     30  C   LIG    1      -33.451  69.105  26.840  0.00  0.00    +0.181 C 
BRANCH  30  31
ATOM     31  O   LIG    1      -33.307  69.323  28.243  0.00  0.00    -0.393 OA
ATOM     32  H   LIG    1      -33.325  70.289  28.367  0.00  0.00    +0.209 HD
ENDBRANCH  30  31
ENDBRANCH  28  30
ENDBRANCH  23  28
ENDBRANCH   1  25
TORSDOF 6
ENDMDL
