MODEL 1
REMARK VINA RESULT:      -7.5      0.000      0.000
REMARK  Name = pdb/CHEMBL3975658.pdb
REMARK                            x       y       z     vdW  Elec       q    Type
REMARK                         _______ _______ _______ _____ _____    ______ ____
ROOT
ATOM      1  C   LIG    1      -25.836  81.604  37.027  0.00  0.00    +0.323 A 
ATOM      2  N   LIG    1      -25.363  82.817  36.702  0.00  0.00    -0.201 NA
ATOM      3  C   LIG    1      -26.292  83.801  36.606  0.00  0.00    +0.145 A 
ATOM      4  C   LIG    1      -27.678  83.630  36.772  0.00  0.00    +0.105 A 
ATOM      5  C   LIG    1      -27.986  82.335  37.158  0.00  0.00    +0.145 A 
ATOM      6  N   LIG    1      -27.113  81.356  37.328  0.00  0.00    -0.201 NA
ENDROOT
BRANCH   4   7
ATOM      7  N   LIG    1      -28.535  84.672  36.582  0.00  0.00    -0.196 NA
ATOM      8  C   LIG    1      -29.130  85.074  35.482  0.00  0.00    +0.285 C 
BRANCH   8   9
ATOM      9  N   LIG    1      -29.960  86.110  35.289  0.00  0.00    -0.269 N 
ATOM     10  H   LIG    1      -30.859  85.672  35.138  0.00  0.00    +0.157 HD
BRANCH   9  11
ATOM     11  C   LIG    1      -29.830  87.283  34.506  0.00  0.00    +0.043 A 
ATOM     12  C   LIG    1      -30.521  87.480  33.264  0.00  0.00    +0.004 A 
ATOM     13  C   LIG    1      -30.198  88.701  32.624  0.00  0.00    +0.011 A 
ATOM     14  C   LIG    1      -29.345  89.686  33.159  0.00  0.00    +0.013 A 
ATOM     15  C   LIG    1      -28.750  89.503  34.391  0.00  0.00    +0.057 A 
ATOM     16  C   LIG    1      -29.024  88.313  35.048  0.00  0.00    +0.036 A 
BRANCH  12  17
ATOM     17  C   LIG    1      -31.488  86.489  32.565  0.00  0.00    -0.013 A 
ATOM     18  C   LIG    1      -32.805  86.141  33.018  0.00  0.00    -0.043 A 
ATOM     19  C   LIG    1      -33.461  86.570  34.313  0.00  0.00    +0.044 C 
ATOM     20  C   LIG    1      -33.646  85.294  32.233  0.00  0.00    +0.004 A 
ATOM     21  C   LIG    1      -33.249  84.766  31.017  0.00  0.00    +0.000 A 
ATOM     22  C   LIG    1      -31.981  85.044  30.573  0.00  0.00    +0.001 A 
ATOM     23  C   LIG    1      -31.147  85.887  31.323  0.00  0.00    +0.009 A 
ENDBRANCH  12  17
BRANCH  15  24
ATOM     24  C   LIG    1      -27.819  90.508  35.017  0.00  0.00    +0.417 C 
ATOM     25  F   LIG    1      -28.341  91.073  36.138  0.00  0.00    -0.166 F 
ATOM     26  F   LIG    1      -27.519  91.535  34.176  0.00  0.00    -0.166 F 
ATOM     27  F   LIG    1      -26.617  89.980  35.393  0.00  0.00    -0.166 F 
ENDBRANCH  15  24
ENDBRANCH   9  11
ENDBRANCH   8   9
BRANCH   8  28
ATOM     28  O   LIG    1      -28.948  84.541  34.276  0.00  0.00    -0.481 OA
ATOM     29  H   LIG    1      -28.178  83.977  34.203  0.00  0.00    +0.295 HD
ENDBRANCH   8  28
ENDBRANCH   4   7
BRANCH   1  30
ATOM     30  O   LIG    1      -24.950  80.547  37.060  0.00  0.00    -0.424 OA
BRANCH  30  34
ATOM     31  C   LIG    1      -24.381  78.497  33.436  0.00  0.00    -0.013 A 
ATOM     32  C   LIG    1      -23.523  79.520  33.868  0.00  0.00    +0.012 A 
ATOM     33  C   LIG    1      -23.723  80.149  35.105  0.00  0.00    +0.047 A 
ATOM     34  C   LIG    1      -24.787  79.772  35.924  0.00  0.00    +0.132 A 
ATOM     35  C   LIG    1      -25.612  78.724  35.499  0.00  0.00    +0.047 A 
ATOM     36  C   LIG    1      -25.403  78.086  34.282  0.00  0.00    +0.012 A 
BRANCH  31  40
ATOM     37  C   LIG    1      -20.719  77.294  31.132  0.00  0.00    +0.125 A 
ATOM     38  N   LIG    1      -21.673  77.691  31.947  0.00  0.00    -0.213 NA
ATOM     39  C   LIG    1      -22.988  77.538  31.554  0.00  0.00    +0.165 A 
ATOM     40  C   LIG    1      -24.204  77.845  32.154  0.00  0.00    +0.046 A 
ATOM     41  C   LIG    1      -25.178  77.433  31.224  0.00  0.00    +0.145 A 
ATOM     42  N   LIG    1      -24.656  76.913  30.116  0.00  0.00    -0.173 NA
ATOM     43  N   LIG    1      -23.318  76.990  30.315  0.00  0.00    -0.221 N 
ATOM     44  C   LIG    1      -22.326  76.617  29.427  0.00  0.00    +0.118 A 
ATOM     45  C   LIG    1      -21.039  76.740  29.763  0.00  0.00    +0.063 A 
BRANCH  37  47
ATOM     46  C   LIG    1      -18.310  76.832  30.724  0.00  0.00    +0.130 C 
ATOM     47  N   LIG    1      -19.385  77.397  31.528  0.00  0.00    -0.321 N 
ATOM     48  C   LIG    1      -18.982  78.435  32.470  0.00  0.00    +0.130 C 
ENDBRANCH  37  47
ENDBRANCH  31  40
ENDBRANCH  30  34
ENDBRANCH   1  30
TORSDOF 10
ENDMDL
MODEL 2
REMARK VINA RESULT:      -7.3     17.693     20.939
REMARK  Name = pdb/CHEMBL3975658.pdb
REMARK                            x       y       z     vdW  Elec       q    Type
REMARK                         _______ _______ _______ _____ _____    ______ ____
ROOT
ATOM      1  C   LIG    1      -36.308  66.854  19.759  0.00  0.00    +0.323 A 
ATOM      2  N   LIG    1      -36.539  66.356  20.982  0.00  0.00    -0.201 NA
ATOM      3  C   LIG    1      -37.327  67.115  21.784  0.00  0.00    +0.145 A 
ATOM      4  C   LIG    1      -37.862  68.371  21.445  0.00  0.00    +0.105 A 
ATOM      5  C   LIG    1      -37.573  68.707  20.133  0.00  0.00    +0.145 A 
ATOM      6  N   LIG    1      -36.864  67.973  19.290  0.00  0.00    -0.201 NA
ENDROOT
BRANCH   4   7
ATOM      7  N   LIG    1      -38.584  69.087  22.353  0.00  0.00    -0.196 NA
ATOM      8  C   LIG    1      -38.172  69.957  23.247  0.00  0.00    +0.285 C 
BRANCH   8   9
ATOM      9  N   LIG    1      -38.879  70.650  24.152  0.00  0.00    -0.269 N 
ATOM     10  H   LIG    1      -39.529  69.971  24.521  0.00  0.00    +0.157 HD
BRANCH   9  11
ATOM     11  C   LIG    1      -39.466  71.937  24.098  0.00  0.00    +0.043 A 
ATOM     12  C   LIG    1      -40.771  72.184  23.552  0.00  0.00    +0.004 A 
ATOM     13  C   LIG    1      -41.134  73.552  23.547  0.00  0.00    +0.011 A 
ATOM     14  C   LIG    1      -40.351  74.592  24.087  0.00  0.00    +0.013 A 
ATOM     15  C   LIG    1      -39.132  74.318  24.674  0.00  0.00    +0.057 A 
ATOM     16  C   LIG    1      -38.726  72.992  24.686  0.00  0.00    +0.036 A 
BRANCH  12  17
ATOM     17  C   LIG    1      -41.737  71.140  22.932  0.00  0.00    -0.013 A 
ATOM     18  C   LIG    1      -42.839  70.514  23.607  0.00  0.00    -0.043 A 
ATOM     19  C   LIG    1      -43.203  70.650  25.069  0.00  0.00    +0.044 C 
ATOM     20  C   LIG    1      -43.726  69.644  22.902  0.00  0.00    +0.004 A 
ATOM     21  C   LIG    1      -43.577  69.356  21.556  0.00  0.00    +0.000 A 
ATOM     22  C   LIG    1      -42.510  69.905  20.890  0.00  0.00    +0.001 A 
ATOM     23  C   LIG    1      -41.638  70.773  21.563  0.00  0.00    +0.009 A 
ENDBRANCH  12  17
BRANCH  15  24
ATOM     24  C   LIG    1      -38.239  75.379  25.260  0.00  0.00    +0.417 C 
ATOM     25  F   LIG    1      -38.905  76.535  25.521  0.00  0.00    -0.166 F 
ATOM     26  F   LIG    1      -37.210  75.710  24.432  0.00  0.00    -0.166 F 
ATOM     27  F   LIG    1      -37.655  75.013  26.439  0.00  0.00    -0.166 F 
ENDBRANCH  15  24
ENDBRANCH   9  11
ENDBRANCH   8   9
BRANCH   8  28
ATOM     28  O   LIG    1      -36.900  70.271  23.480  0.00  0.00    -0.481 OA
ATOM     29  H   LIG    1      -36.594  70.060  24.362  0.00  0.00    +0.295 HD
ENDBRANCH   8  28
ENDBRANCH   4   7
BRANCH   1  30
ATOM     30  O   LIG    1      -35.447  66.166  18.927  0.00  0.00    -0.424 OA
BRANCH  30  34
ATOM     31  C   LIG    1      -31.614  67.841  18.528  0.00  0.00    -0.013 A 
ATOM     32  C   LIG    1      -31.967  67.010  19.603  0.00  0.00    +0.012 A 
ATOM     33  C   LIG    1      -33.244  66.436  19.675  0.00  0.00    +0.047 A 
ATOM     34  C   LIG    1      -34.189  66.690  18.682  0.00  0.00    +0.132 A 
ATOM     35  C   LIG    1      -33.811  67.490  17.596  0.00  0.00    +0.047 A 
ATOM     36  C   LIG    1      -32.539  68.044  17.513  0.00  0.00    +0.012 A 
BRANCH  31  40
ATOM     37  C   LIG    1      -27.524  66.173  17.715  0.00  0.00    +0.125 A 
ATOM     38  N   LIG    1      -28.786  66.489  17.912  0.00  0.00    -0.213 NA
ATOM     39  C   LIG    1      -29.107  67.804  18.186  0.00  0.00    +0.165 A 
ATOM     40  C   LIG    1      -30.306  68.460  18.442  0.00  0.00    +0.046 A 
ATOM     41  C   LIG    1      -29.944  69.806  18.642  0.00  0.00    +0.145 A 
ATOM     42  N   LIG    1      -28.634  70.016  18.537  0.00  0.00    -0.173 NA
ATOM     43  N   LIG    1      -28.124  68.790  18.271  0.00  0.00    -0.221 N 
ATOM     44  C   LIG    1      -26.789  68.463  18.117  0.00  0.00    +0.118 A 
ATOM     45  C   LIG    1      -26.429  67.206  17.845  0.00  0.00    +0.063 A 
BRANCH  37  47
ATOM     46  C   LIG    1      -27.684  63.733  18.166  0.00  0.00    +0.130 C 
ATOM     47  N   LIG    1      -27.183  64.859  17.391  0.00  0.00    -0.321 N 
ATOM     48  C   LIG    1      -26.722  64.536  16.045  0.00  0.00    +0.130 C 
ENDBRANCH  37  47
ENDBRANCH  31  40
ENDBRANCH  30  34
ENDBRANCH   1  30
TORSDOF 10
ENDMDL
MODEL 3
REMARK VINA RESULT:      -7.1      7.975     12.336
REMARK  Name = pdb/CHEMBL3975658.pdb
REMARK                            x       y       z     vdW  Elec       q    Type
REMARK                         _______ _______ _______ _____ _____    ______ ____
ROOT
ATOM      1  C   LIG    1      -28.805  76.870  32.603  0.00  0.00    +0.323 A 
ATOM      2  N   LIG    1      -27.899  77.282  31.704  0.00  0.00    -0.201 NA
ATOM      3  C   LIG    1      -26.603  77.194  32.097  0.00  0.00    +0.145 A 
ATOM      4  C   LIG    1      -26.164  76.758  33.360  0.00  0.00    +0.105 A 
ATOM      5  C   LIG    1      -27.221  76.319  34.140  0.00  0.00    +0.145 A 
ATOM      6  N   LIG    1      -28.495  76.324  33.781  0.00  0.00    -0.201 NA
ENDROOT
BRANCH   4   7
ATOM      7  N   LIG    1      -24.839  76.776  33.680  0.00  0.00    -0.196 NA
ATOM      8  C   LIG    1      -24.078  77.789  34.030  0.00  0.00    +0.285 C 
BRANCH   8   9
ATOM      9  N   LIG    1      -22.771  77.812  34.328  0.00  0.00    -0.269 N 
ATOM     10  H   LIG    1      -22.729  78.352  35.181  0.00  0.00    +0.157 HD
BRANCH   9  11
ATOM     11  C   LIG    1      -21.629  78.045  33.524  0.00  0.00    +0.043 A 
ATOM     12  C   LIG    1      -20.614  79.002  33.859  0.00  0.00    +0.004 A 
ATOM     13  C   LIG    1      -19.593  79.110  32.884  0.00  0.00    +0.011 A 
ATOM     14  C   LIG    1      -19.506  78.318  31.722  0.00  0.00    +0.013 A 
ATOM     15  C   LIG    1      -20.458  77.353  31.460  0.00  0.00    +0.057 A 
ATOM     16  C   LIG    1      -21.488  77.222  32.380  0.00  0.00    +0.036 A 
BRANCH  12  17
ATOM     17  C   LIG    1      -20.579  79.932  35.100  0.00  0.00    -0.013 A 
ATOM     18  C   LIG    1      -19.676  79.814  36.211  0.00  0.00    -0.043 A 
ATOM     19  C   LIG    1      -18.673  78.706  36.451  0.00  0.00    +0.044 C 
ATOM     20  C   LIG    1      -19.668  80.794  37.250  0.00  0.00    +0.004 A 
ATOM     21  C   LIG    1      -20.514  81.889  37.252  0.00  0.00    +0.000 A 
ATOM     22  C   LIG    1      -21.418  82.011  36.227  0.00  0.00    +0.001 A 
ATOM     23  C   LIG    1      -21.429  81.067  35.189  0.00  0.00    +0.009 A 
ENDBRANCH  12  17
BRANCH  15  24
ATOM     24  C   LIG    1      -20.435  76.479  30.234  0.00  0.00    +0.417 C 
ATOM     25  F   LIG    1      -19.440  75.554  30.272  0.00  0.00    -0.166 F 
ATOM     26  F   LIG    1      -20.250  77.192  29.089  0.00  0.00    -0.166 F 
ATOM     27  F   LIG    1      -21.589  75.775  30.042  0.00  0.00    -0.166 F 
ENDBRANCH  15  24
ENDBRANCH   9  11
ENDBRANCH   8   9
BRANCH   8  28
ATOM     28  O   LIG    1      -24.472  79.059  34.081  0.00  0.00    -0.481 OA
ATOM     29  H   LIG    1      -24.083  79.623  33.412  0.00  0.00    +0.295 HD
ENDBRANCH   8  28
ENDBRANCH   4   7
BRANCH   1  30
ATOM     30  O   LIG    1      -30.142  77.012  32.291  0.00  0.00    -0.424 OA
BRANCH  30  34
ATOM     31  C   LIG    1      -32.237  74.126  30.069  0.00  0.00    -0.013 A 
ATOM     32  C   LIG    1      -31.497  75.154  29.464  0.00  0.00    +0.012 A 
ATOM     33  C   LIG    1      -30.776  76.071  30.242  0.00  0.00    +0.047 A 
ATOM     34  C   LIG    1      -30.791  75.981  31.634  0.00  0.00    +0.132 A 
ATOM     35  C   LIG    1      -31.501  74.927  32.222  0.00  0.00    +0.047 A 
ATOM     36  C   LIG    1      -32.200  74.005  31.451  0.00  0.00    +0.012 A 
BRANCH  31  40
ATOM     37  C   LIG    1      -32.159  69.642  29.817  0.00  0.00    +0.125 A 
ATOM     38  N   LIG    1      -32.061  70.937  30.034  0.00  0.00    -0.213 NA
ATOM     39  C   LIG    1      -32.861  71.795  29.308  0.00  0.00    +0.165 A 
ATOM     40  C   LIG    1      -33.003  73.178  29.285  0.00  0.00    +0.046 A 
ATOM     41  C   LIG    1      -33.995  73.422  28.316  0.00  0.00    +0.145 A 
ATOM     42  N   LIG    1      -34.456  72.310  27.748  0.00  0.00    -0.173 NA
ATOM     43  N   LIG    1      -33.753  71.319  28.346  0.00  0.00    -0.221 N 
ATOM     44  C   LIG    1      -33.830  69.966  28.071  0.00  0.00    +0.118 A 
ATOM     45  C   LIG    1      -33.080  69.095  28.752  0.00  0.00    +0.063 A 
BRANCH  37  47
ATOM     46  C   LIG    1      -31.691  67.329  30.603  0.00  0.00    +0.130 C 
ATOM     47  N   LIG    1      -31.393  68.754  30.574  0.00  0.00    -0.321 N 
ATOM     48  C   LIG    1      -30.036  69.117  30.970  0.00  0.00    +0.130 C 
ENDBRANCH  37  47
ENDBRANCH  31  40
ENDBRANCH  30  34
ENDBRANCH   1  30
TORSDOF 10
ENDMDL
MODEL 4
REMARK VINA RESULT:      -7.1      6.880     12.689
REMARK  Name = pdb/CHEMBL3975658.pdb
REMARK                            x       y       z     vdW  Elec       q    Type
REMARK                         _______ _______ _______ _____ _____    ______ ____
ROOT
ATOM      1  C   LIG    1      -28.585  75.971  32.330  0.00  0.00    +0.323 A 
ATOM      2  N   LIG    1      -28.447  76.551  33.532  0.00  0.00    -0.201 NA
ATOM      3  C   LIG    1      -27.271  77.195  33.739  0.00  0.00    +0.145 A 
ATOM      4  C   LIG    1      -26.204  77.254  32.825  0.00  0.00    +0.105 A 
ATOM      5  C   LIG    1      -26.535  76.654  31.620  0.00  0.00    +0.145 A 
ATOM      6  N   LIG    1      -27.690  76.069  31.345  0.00  0.00    -0.201 NA
ENDROOT
BRANCH   4   7
ATOM      7  N   LIG    1      -25.034  77.867  33.160  0.00  0.00    -0.196 NA
ATOM      8  C   LIG    1      -23.996  77.388  33.807  0.00  0.00    +0.285 C 
BRANCH   8   9
ATOM      9  N   LIG    1      -22.851  77.995  34.154  0.00  0.00    -0.269 N 
ATOM     10  H   LIG    1      -23.156  78.861  34.575  0.00  0.00    +0.157 HD
BRANCH   9  11
ATOM     11  C   LIG    1      -21.635  78.174  33.451  0.00  0.00    +0.043 A 
ATOM     12  C   LIG    1      -20.605  79.077  33.879  0.00  0.00    +0.004 A 
ATOM     13  C   LIG    1      -19.501  79.138  32.995  0.00  0.00    +0.011 A 
ATOM     14  C   LIG    1      -19.356  78.349  31.837  0.00  0.00    +0.013 A 
ATOM     15  C   LIG    1      -20.329  77.435  31.487  0.00  0.00    +0.057 A 
ATOM     16  C   LIG    1      -21.438  77.352  32.315  0.00  0.00    +0.036 A 
BRANCH  12  17
ATOM     17  C   LIG    1      -20.629  79.997  35.128  0.00  0.00    -0.013 A 
ATOM     18  C   LIG    1      -19.771  79.880  36.273  0.00  0.00    -0.043 A 
ATOM     19  C   LIG    1      -18.767  78.780  36.544  0.00  0.00    +0.044 C 
ATOM     20  C   LIG    1      -19.814  80.851  37.319  0.00  0.00    +0.004 A 
ATOM     21  C   LIG    1      -20.670  81.938  37.295  0.00  0.00    +0.000 A 
ATOM     22  C   LIG    1      -21.533  82.059  36.236  0.00  0.00    +0.001 A 
ATOM     23  C   LIG    1      -21.494  81.123  35.191  0.00  0.00    +0.009 A 
ENDBRANCH  12  17
BRANCH  15  24
ATOM     24  C   LIG    1      -20.245  76.568  30.258  0.00  0.00    +0.417 C 
ATOM     25  F   LIG    1      -18.965  76.369  29.847  0.00  0.00    -0.166 F 
ATOM     26  F   LIG    1      -20.909  77.102  29.197  0.00  0.00    -0.166 F 
ATOM     27  F   LIG    1      -20.778  75.322  30.431  0.00  0.00    -0.166 F 
ENDBRANCH  15  24
ENDBRANCH   9  11
ENDBRANCH   8   9
BRANCH   8  28
ATOM     28  O   LIG    1      -23.918  76.168  34.332  0.00  0.00    -0.481 OA
ATOM     29  H   LIG    1      -23.598  76.142  35.234  0.00  0.00    +0.295 HD
ENDBRANCH   8  28
ENDBRANCH   4   7
BRANCH   1  30
ATOM     30  O   LIG    1      -29.726  75.232  32.091  0.00  0.00    -0.424 OA
BRANCH  30  34
ATOM     31  C   LIG    1      -32.872  76.543  29.632  0.00  0.00    -0.013 A 
ATOM     32  C   LIG    1      -33.040  76.289  31.002  0.00  0.00    +0.012 A 
ATOM     33  C   LIG    1      -31.954  75.895  31.796  0.00  0.00    +0.047 A 
ATOM     34  C   LIG    1      -30.687  75.740  31.233  0.00  0.00    +0.132 A 
ATOM     35  C   LIG    1      -30.526  76.035  29.873  0.00  0.00    +0.047 A 
ATOM     36  C   LIG    1      -31.598  76.445  29.090  0.00  0.00    +0.012 A 
BRANCH  31  40
ATOM     37  C   LIG    1      -35.455  80.216  29.538  0.00  0.00    +0.125 A 
ATOM     38  N   LIG    1      -34.595  79.232  29.694  0.00  0.00    -0.213 NA
ATOM     39  C   LIG    1      -34.704  78.120  28.883  0.00  0.00    +0.165 A 
ATOM     40  C   LIG    1      -33.984  76.934  28.789  0.00  0.00    +0.046 A 
ATOM     41  C   LIG    1      -34.609  76.215  27.752  0.00  0.00    +0.145 A 
ATOM     42  N   LIG    1      -35.645  76.860  27.220  0.00  0.00    -0.173 NA
ATOM     43  N   LIG    1      -35.709  78.017  27.921  0.00  0.00    -0.221 N 
ATOM     44  C   LIG    1      -36.650  79.020  27.781  0.00  0.00    +0.118 A 
ATOM     45  C   LIG    1      -36.583  80.118  28.538  0.00  0.00    +0.063 A 
BRANCH  37  47
ATOM     46  C   LIG    1      -35.617  81.353  31.743  0.00  0.00    +0.130 C 
ATOM     47  N   LIG    1      -35.334  81.369  30.315  0.00  0.00    -0.321 N 
ATOM     48  C   LIG    1      -34.502  82.475  29.855  0.00  0.00    +0.130 C 
ENDBRANCH  37  47
ENDBRANCH  31  40
ENDBRANCH  30  34
ENDBRANCH   1  30
TORSDOF 10
ENDMDL
MODEL 5
REMARK VINA RESULT:      -7.0      7.818     12.949
REMARK  Name = pdb/CHEMBL3975658.pdb
REMARK                            x       y       z     vdW  Elec       q    Type
REMARK                         _______ _______ _______ _____ _____    ______ ____
ROOT
ATOM      1  C   LIG    1      -28.640  75.954  32.326  0.00  0.00    +0.323 A 
ATOM      2  N   LIG    1      -28.529  76.572  33.512  0.00  0.00    -0.201 NA
ATOM      3  C   LIG    1      -27.355  77.219  33.726  0.00  0.00    +0.145 A 
ATOM      4  C   LIG    1      -26.265  77.243  32.837  0.00  0.00    +0.105 A 
ATOM      5  C   LIG    1      -26.570  76.606  31.645  0.00  0.00    +0.145 A 
ATOM      6  N   LIG    1      -27.720  76.016  31.361  0.00  0.00    -0.201 NA
ENDROOT
BRANCH   4   7
ATOM      7  N   LIG    1      -25.101  77.864  33.180  0.00  0.00    -0.196 NA
ATOM      8  C   LIG    1      -24.055  77.383  33.812  0.00  0.00    +0.285 C 
BRANCH   8   9
ATOM      9  N   LIG    1      -22.915  77.996  34.166  0.00  0.00    -0.269 N 
ATOM     10  H   LIG    1      -23.228  78.859  34.588  0.00  0.00    +0.157 HD
BRANCH   9  11
ATOM     11  C   LIG    1      -21.696  78.184  33.471  0.00  0.00    +0.043 A 
ATOM     12  C   LIG    1      -20.659  79.064  33.927  0.00  0.00    +0.004 A 
ATOM     13  C   LIG    1      -19.552  79.140  33.047  0.00  0.00    +0.011 A 
ATOM     14  C   LIG    1      -19.412  78.383  31.867  0.00  0.00    +0.013 A 
ATOM     15  C   LIG    1      -20.393  77.488  31.489  0.00  0.00    +0.057 A 
ATOM     16  C   LIG    1      -21.505  77.392  32.313  0.00  0.00    +0.036 A 
BRANCH  12  17
ATOM     17  C   LIG    1      -20.676  79.948  35.202  0.00  0.00    -0.013 A 
ATOM     18  C   LIG    1      -19.954  79.685  36.415  0.00  0.00    -0.043 A 
ATOM     19  C   LIG    1      -19.139  78.451  36.735  0.00  0.00    +0.044 C 
ATOM     20  C   LIG    1      -19.965  80.627  37.488  0.00  0.00    +0.004 A 
ATOM     21  C   LIG    1      -20.660  81.822  37.427  0.00  0.00    +0.000 A 
ATOM     22  C   LIG    1      -21.394  82.087  36.298  0.00  0.00    +0.001 A 
ATOM     23  C   LIG    1      -21.383  81.180  35.228  0.00  0.00    +0.009 A 
ENDBRANCH  12  17
BRANCH  15  24
ATOM     24  C   LIG    1      -20.316  76.656  30.236  0.00  0.00    +0.417 C 
ATOM     25  F   LIG    1      -21.276  76.985  29.332  0.00  0.00    -0.166 F 
ATOM     26  F   LIG    1      -20.464  75.326  30.484  0.00  0.00    -0.166 F 
ATOM     27  F   LIG    1      -19.127  76.774  29.574  0.00  0.00    -0.166 F 
ENDBRANCH  15  24
ENDBRANCH   9  11
ENDBRANCH   8   9
BRANCH   8  28
ATOM     28  O   LIG    1      -23.960  76.152  34.310  0.00  0.00    -0.481 OA
ATOM     29  H   LIG    1      -23.204  75.655  33.998  0.00  0.00    +0.295 HD
ENDBRANCH   8  28
ENDBRANCH   4   7
BRANCH   1  30
ATOM     30  O   LIG    1      -29.778  75.212  32.084  0.00  0.00    -0.424 OA
BRANCH  30  34
ATOM     31  C   LIG    1      -32.946  76.552  29.671  0.00  0.00    -0.013 A 
ATOM     32  C   LIG    1      -33.077  76.369  31.056  0.00  0.00    +0.012 A 
ATOM     33  C   LIG    1      -31.982  75.962  31.832  0.00  0.00    +0.047 A 
ATOM     34  C   LIG    1      -30.745  75.724  31.235  0.00  0.00    +0.132 A 
ATOM     35  C   LIG    1      -30.618  75.948  29.859  0.00  0.00    +0.047 A 
ATOM     36  C   LIG    1      -31.698  76.370  29.092  0.00  0.00    +0.012 A 
BRANCH  31  40
ATOM     37  C   LIG    1      -36.270  74.231  27.738  0.00  0.00    +0.125 A 
ATOM     38  N   LIG    1      -35.249  74.749  28.388  0.00  0.00    -0.213 NA
ATOM     39  C   LIG    1      -35.029  76.109  28.305  0.00  0.00    +0.165 A 
ATOM     40  C   LIG    1      -34.068  76.955  28.847  0.00  0.00    +0.046 A 
ATOM     41  C   LIG    1      -34.410  78.237  28.374  0.00  0.00    +0.145 A 
ATOM     42  N   LIG    1      -35.485  78.235  27.590  0.00  0.00    -0.173 NA
ATOM     43  N   LIG    1      -35.854  76.933  27.539  0.00  0.00    -0.221 N 
ATOM     44  C   LIG    1      -36.899  76.396  26.809  0.00  0.00    +0.118 A 
ATOM     45  C   LIG    1      -37.155  75.086  26.863  0.00  0.00    +0.063 A 
BRANCH  37  47
ATOM     46  C   LIG    1      -36.045  72.083  28.972  0.00  0.00    +0.130 C 
ATOM     47  N   LIG    1      -36.538  72.865  27.846  0.00  0.00    -0.321 N 
ATOM     48  C   LIG    1      -37.666  72.284  27.128  0.00  0.00    +0.130 C 
ENDBRANCH  37  47
ENDBRANCH  31  40
ENDBRANCH  30  34
ENDBRANCH   1  30
TORSDOF 10
ENDMDL
MODEL 6
REMARK VINA RESULT:      -7.0      2.973      4.814
REMARK  Name = pdb/CHEMBL3975658.pdb
REMARK                            x       y       z     vdW  Elec       q    Type
REMARK                         _______ _______ _______ _____ _____    ______ ____
ROOT
ATOM      1  C   LIG    1      -26.094  82.826  37.700  0.00  0.00    +0.323 A 
ATOM      2  N   LIG    1      -26.024  84.150  37.495  0.00  0.00    -0.201 NA
ATOM      3  C   LIG    1      -27.148  84.725  37.000  0.00  0.00    +0.145 A 
ATOM      4  C   LIG    1      -28.328  84.041  36.653  0.00  0.00    +0.105 A 
ATOM      5  C   LIG    1      -28.248  82.697  36.980  0.00  0.00    +0.145 A 
ATOM      6  N   LIG    1      -27.200  82.100  37.524  0.00  0.00    -0.201 NA
ENDROOT
BRANCH   4   7
ATOM      7  N   LIG    1      -29.378  84.705  36.093  0.00  0.00    -0.196 NA
ATOM      8  C   LIG    1      -29.840  84.652  34.865  0.00  0.00    +0.285 C 
BRANCH   8   9
ATOM      9  N   LIG    1      -30.862  85.317  34.307  0.00  0.00    -0.269 N 
ATOM     10  H   LIG    1      -31.651  84.700  34.439  0.00  0.00    +0.157 HD
BRANCH   9  11
ATOM     11  C   LIG    1      -30.967  86.019  33.082  0.00  0.00    +0.043 A 
ATOM     12  C   LIG    1      -30.214  87.205  32.788  0.00  0.00    +0.004 A 
ATOM     13  C   LIG    1      -30.520  87.773  31.527  0.00  0.00    +0.011 A 
ATOM     14  C   LIG    1      -31.414  87.215  30.592  0.00  0.00    +0.013 A 
ATOM     15  C   LIG    1      -32.071  86.033  30.870  0.00  0.00    +0.057 A 
ATOM     16  C   LIG    1      -31.816  85.449  32.102  0.00  0.00    +0.036 A 
BRANCH  12  17
ATOM     17  C   LIG    1      -29.198  87.921  33.716  0.00  0.00    -0.013 A 
ATOM     18  C   LIG    1      -29.414  89.169  34.393  0.00  0.00    -0.043 A 
ATOM     19  C   LIG    1      -30.610  90.084  34.245  0.00  0.00    +0.044 C 
ATOM     20  C   LIG    1      -28.443  89.680  35.306  0.00  0.00    +0.004 A 
ATOM     21  C   LIG    1      -27.259  89.021  35.585  0.00  0.00    +0.000 A 
ATOM     22  C   LIG    1      -27.001  87.846  34.925  0.00  0.00    +0.001 A 
ATOM     23  C   LIG    1      -27.950  87.321  34.036  0.00  0.00    +0.009 A 
ENDBRANCH  12  17
BRANCH  15  24
ATOM     24  C   LIG    1      -33.048  85.388  29.923  0.00  0.00    +0.417 C 
ATOM     25  F   LIG    1      -34.279  85.962  29.972  0.00  0.00    -0.166 F 
ATOM     26  F   LIG    1      -33.233  84.065  30.187  0.00  0.00    -0.166 F 
ATOM     27  F   LIG    1      -32.662  85.448  28.614  0.00  0.00    -0.166 F 
ENDBRANCH  15  24
ENDBRANCH   9  11
ENDBRANCH   8   9
BRANCH   8  28
ATOM     28  O   LIG    1      -29.301  83.944  33.875  0.00  0.00    -0.481 OA
ATOM     29  H   LIG    1      -28.346  83.874  33.911  0.00  0.00    +0.295 HD
ENDBRANCH   8  28
ENDBRANCH   4   7
BRANCH   1  30
ATOM     30  O   LIG    1      -24.956  82.172  38.126  0.00  0.00    -0.424 OA
BRANCH  30  34
ATOM     31  C   LIG    1      -22.317  80.206  35.513  0.00  0.00    -0.013 A 
ATOM     32  C   LIG    1      -23.194  79.513  36.363  0.00  0.00    +0.012 A 
ATOM     33  C   LIG    1      -24.090  80.208  37.187  0.00  0.00    +0.047 A 
ATOM     34  C   LIG    1      -24.117  81.602  37.183  0.00  0.00    +0.132 A 
ATOM     35  C   LIG    1      -23.264  82.279  36.303  0.00  0.00    +0.047 A 
ATOM     36  C   LIG    1      -22.389  81.591  35.470  0.00  0.00    +0.012 A 
BRANCH  31  40
ATOM     37  C   LIG    1      -22.849  77.498  31.970  0.00  0.00    +0.125 A 
ATOM     38  N   LIG    1      -22.879  78.320  32.997  0.00  0.00    -0.213 NA
ATOM     39  C   LIG    1      -21.688  78.686  33.590  0.00  0.00    +0.165 A 
ATOM     40  C   LIG    1      -21.371  79.509  34.665  0.00  0.00    +0.046 A 
ATOM     41  C   LIG    1      -19.966  79.458  34.755  0.00  0.00    +0.145 A 
ATOM     42  N   LIG    1      -19.412  78.671  33.836  0.00  0.00    -0.173 NA
ATOM     43  N   LIG    1      -20.466  78.190  33.134  0.00  0.00    -0.221 N 
ATOM     44  C   LIG    1      -20.423  77.286  32.089  0.00  0.00    +0.118 A 
ATOM     45  C   LIG    1      -21.549  76.907  31.478  0.00  0.00    +0.063 A 
BRANCH  37  47
ATOM     46  C   LIG    1      -24.750  78.105  30.485  0.00  0.00    +0.130 C 
ATOM     47  N   LIG    1      -24.039  77.152  31.326  0.00  0.00    -0.321 N 
ATOM     48  C   LIG    1      -24.358  75.749  31.088  0.00  0.00    +0.130 C 
ENDBRANCH  37  47
ENDBRANCH  31  40
ENDBRANCH  30  34
ENDBRANCH   1  30
TORSDOF 10
ENDMDL
MODEL 7
REMARK VINA RESULT:      -6.9      8.303     13.370
REMARK  Name = pdb/CHEMBL3975658.pdb
REMARK                            x       y       z     vdW  Elec       q    Type
REMARK                         _______ _______ _______ _____ _____    ______ ____
ROOT
ATOM      1  C   LIG    1      -35.302  83.383  29.150  0.00  0.00    +0.323 A 
ATOM      2  N   LIG    1      -35.826  83.172  27.933  0.00  0.00    -0.201 NA
ATOM      3  C   LIG    1      -35.740  81.899  27.473  0.00  0.00    +0.145 A 
ATOM      4  C   LIG    1      -35.117  80.831  28.144  0.00  0.00    +0.105 A 
ATOM      5  C   LIG    1      -34.683  81.209  29.404  0.00  0.00    +0.145 A 
ATOM      6  N   LIG    1      -34.800  82.420  29.925  0.00  0.00    -0.201 NA
ENDROOT
BRANCH   4   7
ATOM      7  N   LIG    1      -35.021  79.603  27.560  0.00  0.00    -0.196 NA
ATOM      8  C   LIG    1      -34.125  78.660  27.742  0.00  0.00    +0.285 C 
BRANCH   8   9
ATOM      9  N   LIG    1      -34.019  77.458  27.156  0.00  0.00    -0.269 N 
ATOM     10  H   LIG    1      -34.281  77.635  26.196  0.00  0.00    +0.157 HD
BRANCH   9  11
ATOM     11  C   LIG    1      -34.445  76.172  27.569  0.00  0.00    +0.043 A 
ATOM     12  C   LIG    1      -35.765  75.665  27.325  0.00  0.00    +0.004 A 
ATOM     13  C   LIG    1      -35.990  74.380  27.875  0.00  0.00    +0.011 A 
ATOM     14  C   LIG    1      -35.014  73.610  28.538  0.00  0.00    +0.013 A 
ATOM     15  C   LIG    1      -33.730  74.091  28.696  0.00  0.00    +0.057 A 
ATOM     16  C   LIG    1      -33.468  75.355  28.187  0.00  0.00    +0.036 A 
BRANCH  12  17
ATOM     17  C   LIG    1      -36.930  76.397  26.607  0.00  0.00    -0.013 A 
ATOM     18  C   LIG    1      -37.796  77.377  27.200  0.00  0.00    -0.043 A 
ATOM     19  C   LIG    1      -37.827  77.800  28.653  0.00  0.00    +0.044 C 
ATOM     20  C   LIG    1      -38.770  78.062  26.410  0.00  0.00    +0.004 A 
ATOM     21  C   LIG    1      -38.936  77.824  25.057  0.00  0.00    +0.000 A 
ATOM     22  C   LIG    1      -38.153  76.865  24.467  0.00  0.00    +0.001 A 
ATOM     23  C   LIG    1      -37.181  76.193  25.224  0.00  0.00    +0.009 A 
ENDBRANCH  12  17
BRANCH  15  24
ATOM     24  C   LIG    1      -32.641  73.328  29.403  0.00  0.00    +0.417 C 
ATOM     25  F   LIG    1      -32.830  73.279  30.748  0.00  0.00    -0.166 F 
ATOM     26  F   LIG    1      -31.410  73.877  29.210  0.00  0.00    -0.166 F 
ATOM     27  F   LIG    1      -32.530  72.030  28.996  0.00  0.00    -0.166 F 
ENDBRANCH  15  24
ENDBRANCH   9  11
ENDBRANCH   8   9
BRANCH   8  28
ATOM     28  O   LIG    1      -33.058  78.761  28.531  0.00  0.00    -0.481 OA
ATOM     29  H   LIG    1      -32.971  78.056  29.174  0.00  0.00    +0.295 HD
ENDBRANCH   8  28
ENDBRANCH   4   7
BRANCH   1  30
ATOM     30  O   LIG    1      -35.287  84.674  29.637  0.00  0.00    -0.424 OA
BRANCH  30  34
ATOM     31  C   LIG    1      -31.964  86.413  31.532  0.00  0.00    -0.013 A 
ATOM     32  C   LIG    1      -33.221  86.316  32.150  0.00  0.00    +0.012 A 
ATOM     33  C   LIG    1      -34.292  85.689  31.499  0.00  0.00    +0.047 A 
ATOM     34  C   LIG    1      -34.128  85.158  30.220  0.00  0.00    +0.132 A 
ATOM     35  C   LIG    1      -32.860  85.228  29.631  0.00  0.00    +0.047 A 
ATOM     36  C   LIG    1      -31.791  85.832  30.283  0.00  0.00    +0.012 A 
BRANCH  31  40
ATOM     37  C   LIG    1      -29.449  85.321  35.089  0.00  0.00    +0.125 A 
ATOM     38  N   LIG    1      -30.263  85.470  34.066  0.00  0.00    -0.213 NA
ATOM     39  C   LIG    1      -30.160  86.611  33.295  0.00  0.00    +0.165 A 
ATOM     40  C   LIG    1      -30.847  87.073  32.178  0.00  0.00    +0.046 A 
ATOM     41  C   LIG    1      -30.250  88.312  31.876  0.00  0.00    +0.145 A 
ATOM     42  N   LIG    1      -29.271  88.640  32.716  0.00  0.00    -0.173 NA
ATOM     43  N   LIG    1      -29.227  87.606  33.589  0.00  0.00    -0.221 N 
ATOM     44  C   LIG    1      -28.400  87.487  34.691  0.00  0.00    +0.118 A 
ATOM     45  C   LIG    1      -28.458  86.398  35.463  0.00  0.00    +0.063 A 
BRANCH  37  47
ATOM     46  C   LIG    1      -30.345  83.032  35.461  0.00  0.00    +0.130 C 
ATOM     47  N   LIG    1      -29.505  84.155  35.853  0.00  0.00    -0.321 N 
ATOM     48  C   LIG    1      -28.419  83.831  36.771  0.00  0.00    +0.130 C 
ENDBRANCH  37  47
ENDBRANCH  31  40
ENDBRANCH  30  34
ENDBRANCH   1  30
TORSDOF 10
ENDMDL
MODEL 8
REMARK VINA RESULT:      -6.9     12.833     18.570
REMARK  Name = pdb/CHEMBL3975658.pdb
REMARK                            x       y       z     vdW  Elec       q    Type
REMARK                         _______ _______ _______ _____ _____    ______ ____
ROOT
ATOM      1  C   LIG    1      -39.443  78.732  26.171  0.00  0.00    +0.323 A 
ATOM      2  N   LIG    1      -39.349  77.609  25.445  0.00  0.00    -0.201 NA
ATOM      3  C   LIG    1      -38.214  76.888  25.627  0.00  0.00    +0.145 A 
ATOM      4  C   LIG    1      -37.144  77.253  26.464  0.00  0.00    +0.105 A 
ATOM      5  C   LIG    1      -37.430  78.405  27.179  0.00  0.00    +0.145 A 
ATOM      6  N   LIG    1      -38.547  79.109  27.086  0.00  0.00    -0.201 NA
ENDROOT
BRANCH   4   7
ATOM      7  N   LIG    1      -36.014  76.493  26.520  0.00  0.00    -0.196 NA
ATOM      8  C   LIG    1      -35.607  75.670  27.461  0.00  0.00    +0.285 C 
BRANCH   8   9
ATOM      9  N   LIG    1      -34.488  74.934  27.526  0.00  0.00    -0.269 N 
ATOM     10  H   LIG    1      -34.810  73.992  27.356  0.00  0.00    +0.157 HD
BRANCH   9  11
ATOM     11  C   LIG    1      -33.412  74.944  28.447  0.00  0.00    +0.043 A 
ATOM     12  C   LIG    1      -32.867  76.148  29.007  0.00  0.00    +0.004 A 
ATOM     13  C   LIG    1      -31.759  75.924  29.860  0.00  0.00    +0.011 A 
ATOM     14  C   LIG    1      -31.259  74.655  30.211  0.00  0.00    +0.013 A 
ATOM     15  C   LIG    1      -31.849  73.509  29.715  0.00  0.00    +0.057 A 
ATOM     16  C   LIG    1      -32.928  73.679  28.861  0.00  0.00    +0.036 A 
BRANCH  12  17
ATOM     17  C   LIG    1      -33.319  77.602  28.716  0.00  0.00    -0.013 A 
ATOM     18  C   LIG    1      -33.029  78.349  27.524  0.00  0.00    -0.043 A 
ATOM     19  C   LIG    1      -32.135  77.919  26.381  0.00  0.00    +0.044 C 
ATOM     20  C   LIG    1      -33.588  79.647  27.323  0.00  0.00    +0.004 A 
ATOM     21  C   LIG    1      -34.422  80.253  28.246  0.00  0.00    +0.000 A 
ATOM     22  C   LIG    1      -34.688  79.585  29.415  0.00  0.00    +0.001 A 
ATOM     23  C   LIG    1      -34.160  78.303  29.623  0.00  0.00    +0.009 A 
ENDBRANCH  12  17
BRANCH  15  24
ATOM     24  C   LIG    1      -31.361  72.121  30.038  0.00  0.00    +0.417 C 
ATOM     25  F   LIG    1      -32.335  71.182  29.907  0.00  0.00    -0.166 F 
ATOM     26  F   LIG    1      -30.897  72.015  31.313  0.00  0.00    -0.166 F 
ATOM     27  F   LIG    1      -30.334  71.704  29.240  0.00  0.00    -0.166 F 
ENDBRANCH  15  24
ENDBRANCH   9  11
ENDBRANCH   8   9
BRANCH   8  28
ATOM     28  O   LIG    1      -36.231  75.464  28.618  0.00  0.00    -0.481 OA
ATOM     29  H   LIG    1      -37.169  75.287  28.538  0.00  0.00    +0.295 HD
ENDBRANCH   8  28
ENDBRANCH   4   7
BRANCH   1  30
ATOM     30  O   LIG    1      -40.538  79.548  25.969  0.00  0.00    -0.424 OA
BRANCH  30  34
ATOM     31  C   LIG    1      -40.762  82.416  22.905  0.00  0.00    -0.013 A 
ATOM     32  C   LIG    1      -41.531  82.500  24.077  0.00  0.00    +0.012 A 
ATOM     33  C   LIG    1      -41.393  81.545  25.094  0.00  0.00    +0.047 A 
ATOM     34  C   LIG    1      -40.495  80.489  24.954  0.00  0.00    +0.132 A 
ATOM     35  C   LIG    1      -39.706  80.438  23.797  0.00  0.00    +0.047 A 
ATOM     36  C   LIG    1      -39.827  81.395  22.797  0.00  0.00    +0.012 A 
BRANCH  31  40
ATOM     37  C   LIG    1      -43.622  82.720  19.456  0.00  0.00    +0.125 A 
ATOM     38  N   LIG    1      -42.892  82.487  20.526  0.00  0.00    -0.213 NA
ATOM     39  C   LIG    1      -41.846  83.341  20.814  0.00  0.00    +0.165 A 
ATOM     40  C   LIG    1      -40.900  83.381  21.833  0.00  0.00    +0.046 A 
ATOM     41  C   LIG    1      -40.112  84.512  21.548  0.00  0.00    +0.145 A 
ATOM     42  N   LIG    1      -40.493  85.150  20.444  0.00  0.00    -0.173 NA
ATOM     43  N   LIG    1      -41.544  84.426  19.991  0.00  0.00    -0.221 N 
ATOM     44  C   LIG    1      -42.270  84.652  18.836  0.00  0.00    +0.118 A 
ATOM     45  C   LIG    1      -43.296  83.858  18.518  0.00  0.00    +0.063 A 
BRANCH  37  47
ATOM     46  C   LIG    1      -44.533  80.496  18.815  0.00  0.00    +0.130 C 
ATOM     47  N   LIG    1      -44.713  81.896  19.172  0.00  0.00    -0.321 N 
ATOM     48  C   LIG    1      -46.041  82.251  19.659  0.00  0.00    +0.130 C 
ENDBRANCH  37  47
ENDBRANCH  31  40
ENDBRANCH  30  34
ENDBRANCH   1  30
TORSDOF 10
ENDMDL
MODEL 9
REMARK VINA RESULT:      -6.9     11.146     16.075
REMARK  Name = pdb/CHEMBL3975658.pdb
REMARK                            x       y       z     vdW  Elec       q    Type
REMARK                         _______ _______ _______ _____ _____    ______ ____
ROOT
ATOM      1  C   LIG    1      -36.774  80.382  29.867  0.00  0.00    +0.323 A 
ATOM      2  N   LIG    1      -37.524  80.661  28.790  0.00  0.00    -0.201 NA
ATOM      3  C   LIG    1      -37.528  79.714  27.819  0.00  0.00    +0.145 A 
ATOM      4  C   LIG    1      -36.786  78.520  27.843  0.00  0.00    +0.105 A 
ATOM      5  C   LIG    1      -36.116  78.365  29.046  0.00  0.00    +0.145 A 
ATOM      6  N   LIG    1      -36.130  79.227  30.050  0.00  0.00    -0.201 NA
ENDROOT
BRANCH   4   7
ATOM      7  N   LIG    1      -36.805  77.667  26.781  0.00  0.00    -0.196 NA
ATOM      8  C   LIG    1      -37.307  76.456  26.691  0.00  0.00    +0.285 C 
BRANCH   8   9
ATOM      9  N   LIG    1      -37.312  75.608  25.652  0.00  0.00    -0.269 N 
ATOM     10  H   LIG    1      -36.753  76.080  24.955  0.00  0.00    +0.157 HD
BRANCH   9  11
ATOM     11  C   LIG    1      -38.359  74.870  25.049  0.00  0.00    +0.043 A 
ATOM     12  C   LIG    1      -39.569  75.472  24.567  0.00  0.00    +0.004 A 
ATOM     13  C   LIG    1      -40.501  74.537  24.054  0.00  0.00    +0.011 A 
ATOM     14  C   LIG    1      -40.269  73.153  23.939  0.00  0.00    +0.013 A 
ATOM     15  C   LIG    1      -39.066  72.609  24.342  0.00  0.00    +0.057 A 
ATOM     16  C   LIG    1      -38.128  73.484  24.869  0.00  0.00    +0.036 A 
BRANCH  12  17
ATOM     17  C   LIG    1      -39.953  76.974  24.624  0.00  0.00    -0.013 A 
ATOM     18  C   LIG    1      -40.548  77.646  25.744  0.00  0.00    -0.043 A 
ATOM     19  C   LIG    1      -41.025  77.011  27.033  0.00  0.00    +0.044 C 
ATOM     20  C   LIG    1      -40.761  79.058  25.718  0.00  0.00    +0.004 A 
ATOM     21  C   LIG    1      -40.419  79.845  24.633  0.00  0.00    +0.000 A 
ATOM     22  C   LIG    1      -39.887  79.230  23.528  0.00  0.00    +0.001 A 
ATOM     23  C   LIG    1      -39.655  77.846  23.542  0.00  0.00    +0.009 A 
ENDBRANCH  12  17
BRANCH  15  24
ATOM     24  C   LIG    1      -38.754  71.138  24.260  0.00  0.00    +0.417 C 
ATOM     25  F   LIG    1      -39.356  70.536  23.200  0.00  0.00    -0.166 F 
ATOM     26  F   LIG    1      -39.159  70.456  25.366  0.00  0.00    -0.166 F 
ATOM     27  F   LIG    1      -37.422  70.867  24.133  0.00  0.00    -0.166 F 
ENDBRANCH  15  24
ENDBRANCH   9  11
ENDBRANCH   8   9
BRANCH   8  28
ATOM     28  O   LIG    1      -37.867  75.784  27.694  0.00  0.00    -0.481 OA
ATOM     29  H   LIG    1      -37.280  75.602  28.428  0.00  0.00    +0.295 HD
ENDBRANCH   8  28
ENDBRANCH   4   7
BRANCH   1  30
ATOM     30  O   LIG    1      -36.665  81.342  30.852  0.00  0.00    -0.424 OA
BRANCH  30  34
ATOM     31  C   LIG    1      -34.820  84.985  29.861  0.00  0.00    -0.013 A 
ATOM     32  C   LIG    1      -36.143  84.910  30.325  0.00  0.00    +0.012 A 
ATOM     33  C   LIG    1      -36.706  83.679  30.687  0.00  0.00    +0.047 A 
ATOM     34  C   LIG    1      -35.962  82.504  30.581  0.00  0.00    +0.132 A 
ATOM     35  C   LIG    1      -34.632  82.598  30.154  0.00  0.00    +0.047 A 
ATOM     36  C   LIG    1      -34.066  83.821  29.814  0.00  0.00    +0.012 A 
BRANCH  31  40
ATOM     37  C   LIG    1      -31.466  87.422  31.588  0.00  0.00    +0.125 A 
ATOM     38  N   LIG    1      -32.401  86.576  31.209  0.00  0.00    -0.213 NA
ATOM     39  C   LIG    1      -33.176  86.893  30.112  0.00  0.00    +0.165 A 
ATOM     40  C   LIG    1      -34.223  86.245  29.465  0.00  0.00    +0.046 A 
ATOM     41  C   LIG    1      -34.579  87.104  28.407  0.00  0.00    +0.145 A 
ATOM     42  N   LIG    1      -33.845  88.214  28.366  0.00  0.00    -0.173 NA
ATOM     43  N   LIG    1      -32.998  88.088  29.415  0.00  0.00    -0.221 N 
ATOM     44  C   LIG    1      -32.055  89.009  29.834  0.00  0.00    +0.118 A 
ATOM     45  C   LIG    1      -31.276  88.746  30.886  0.00  0.00    +0.063 A 
BRANCH  37  47
ATOM     46  C   LIG    1      -29.750  88.088  33.261  0.00  0.00    +0.130 C 
ATOM     47  N   LIG    1      -30.640  87.100  32.666  0.00  0.00    -0.321 N 
ATOM     48  C   LIG    1      -30.958  85.956  33.513  0.00  0.00    +0.130 C 
ENDBRANCH  37  47
ENDBRANCH  31  40
ENDBRANCH  30  34
ENDBRANCH   1  30
TORSDOF 10
ENDMDL
