MODEL 1
REMARK VINA RESULT:      -6.7      0.000      0.000
REMARK  Name = pdb/CHEMBL3925946.pdb
REMARK                            x       y       z     vdW  Elec       q    Type
REMARK                         _______ _______ _______ _____ _____    ______ ____
ROOT
ATOM      1  C   LIG    1      -35.644  78.217  28.270  0.00  0.00    +0.099 A 
ATOM      2  C   LIG    1      -36.827  77.750  27.739  0.00  0.00    +0.179 A 
ATOM      3  N   LIG    1      -37.189  77.407  26.460  0.00  0.00    -0.211 NA
ATOM      4  C   LIG    1      -38.437  77.040  26.255  0.00  0.00    +0.126 A 
ATOM      5  C   LIG    1      -39.461  77.051  27.371  0.00  0.00    +0.063 A 
ATOM      6  C   LIG    1      -39.039  77.345  28.602  0.00  0.00    +0.118 A 
ATOM      7  N   LIG    1      -37.721  77.698  28.809  0.00  0.00    -0.220 N 
ATOM      8  N   LIG    1      -37.143  78.043  29.983  0.00  0.00    -0.171 NA
ATOM      9  C   LIG    1      -35.896  78.373  29.646  0.00  0.00    +0.160 A 
ENDROOT
BRANCH   4  10
ATOM     10  N   LIG    1      -38.839  76.604  24.998  0.00  0.00    -0.308 N 
ATOM     11  C   LIG    1      -40.053  75.784  24.803  0.00  0.00    +0.108 C 
ATOM     12  C   LIG    1      -40.779  76.421  23.599  0.00  0.00    +0.029 C 
ATOM     13  C   LIG    1      -39.983  77.664  23.237  0.00  0.00    +0.021 C 
ATOM     14  C   LIG    1      -38.603  77.418  23.805  0.00  0.00    +0.107 C 
BRANCH  11  15
ATOM     15  C   LIG    1      -39.712  74.322  24.566  0.00  0.00    +0.011 A 
ATOM     16  C   LIG    1      -40.647  73.425  24.026  0.00  0.00    +0.129 A 
ATOM     17  F   LIG    1      -41.887  73.831  23.728  0.00  0.00    -0.205 F 
ATOM     18  C   LIG    1      -40.348  72.083  23.802  0.00  0.00    +0.041 A 
ATOM     19  C   LIG    1      -39.090  71.594  24.129  0.00  0.00    +0.041 A 
ATOM     20  C   LIG    1      -38.153  72.458  24.683  0.00  0.00    +0.124 A 
ATOM     21  F   LIG    1      -36.943  71.982  25.010  0.00  0.00    -0.205 F 
ATOM     22  C   LIG    1      -38.447  73.806  24.905  0.00  0.00    +0.046 A 
ENDBRANCH  11  15
ENDBRANCH   4  10
BRANCH   1  24
ATOM     23  C   LIG    1      -33.516  77.526  27.340  0.00  0.00    +0.326 C 
ATOM     24  N   LIG    1      -34.510  78.456  27.521  0.00  0.00    -0.272 N 
ATOM     25  H   LIG    1      -34.391  79.396  27.151  0.00  0.00    +0.155 HD
ATOM     26  O   LIG    1      -33.452  76.381  27.768  0.00  0.00    -0.263 OA
BRANCH  23  27
ATOM     27  C   LIG    1      -32.421  77.998  26.371  0.00  0.00    +0.393 C 
ATOM     28  O   LIG    1      -31.525  77.288  25.995  0.00  0.00    -0.240 OA
BRANCH  27  29
ATOM     29  O   LIG    1      -32.567  79.313  26.106  0.00  0.00    -0.474 OA
ATOM     30  H   LIG    1      -31.790  79.652  25.603  0.00  0.00    +0.296 HD
ENDBRANCH  27  29
ENDBRANCH  23  27
ENDBRANCH   1  24
TORSDOF 5
ENDMDL
MODEL 2
REMARK VINA RESULT:      -6.5     19.542     22.019
REMARK  Name = pdb/CHEMBL3925946.pdb
REMARK                            x       y       z     vdW  Elec       q    Type
REMARK                         _______ _______ _______ _____ _____    ______ ____
ROOT
ATOM      1  C   LIG    1      -19.360  85.803  13.708  0.00  0.00    +0.099 A 
ATOM      2  C   LIG    1      -19.560  84.448  13.550  0.00  0.00    +0.179 A 
ATOM      3  N   LIG    1      -20.468  83.582  14.107  0.00  0.00    -0.211 NA
ATOM      4  C   LIG    1      -20.368  82.307  13.794  0.00  0.00    +0.126 A 
ATOM      5  C   LIG    1      -19.257  81.794  12.900  0.00  0.00    +0.063 A 
ATOM      6  C   LIG    1      -18.436  82.689  12.350  0.00  0.00    +0.118 A 
ATOM      7  N   LIG    1      -18.571  84.026  12.661  0.00  0.00    -0.220 N 
ATOM      8  N   LIG    1      -17.812  85.050  12.208  0.00  0.00    -0.171 NA
ATOM      9  C   LIG    1      -18.282  86.115  12.859  0.00  0.00    +0.160 A 
ENDROOT
BRANCH   4  10
ATOM     10  N   LIG    1      -21.308  81.396  14.263  0.00  0.00    -0.308 N 
ATOM     11  C   LIG    1      -21.264  80.863  15.640  0.00  0.00    +0.108 C 
ATOM     12  C   LIG    1      -22.719  80.948  16.150  0.00  0.00    +0.029 C 
ATOM     13  C   LIG    1      -23.508  81.646  15.055  0.00  0.00    +0.021 C 
ATOM     14  C   LIG    1      -22.694  81.436  13.798  0.00  0.00    +0.107 C 
BRANCH  11  15
ATOM     15  C   LIG    1      -20.720  79.444  15.677  0.00  0.00    +0.011 A 
ATOM     16  C   LIG    1      -19.442  79.158  16.181  0.00  0.00    +0.129 A 
ATOM     17  F   LIG    1      -18.648  80.140  16.622  0.00  0.00    -0.205 F 
ATOM     18  C   LIG    1      -18.931  77.863  16.223  0.00  0.00    +0.041 A 
ATOM     19  C   LIG    1      -19.694  76.806  15.742  0.00  0.00    +0.041 A 
ATOM     20  C   LIG    1      -20.954  77.066  15.220  0.00  0.00    +0.124 A 
ATOM     21  F   LIG    1      -21.685  76.047  14.745  0.00  0.00    -0.205 F 
ATOM     22  C   LIG    1      -21.473  78.363  15.181  0.00  0.00    +0.046 A 
ENDBRANCH  11  15
ENDBRANCH   4  10
BRANCH   1  24
ATOM     23  C   LIG    1      -21.344  87.099  14.215  0.00  0.00    +0.326 C 
ATOM     24  N   LIG    1      -20.112  86.594  14.552  0.00  0.00    -0.272 N 
ATOM     25  H   LIG    1      -19.683  86.863  15.434  0.00  0.00    +0.155 HD
ATOM     26  O   LIG    1      -21.977  86.945  13.179  0.00  0.00    -0.263 OA
BRANCH  23  27
ATOM     27  C   LIG    1      -22.022  87.850  15.372  0.00  0.00    +0.393 C 
ATOM     28  O   LIG    1      -22.834  88.722  15.203  0.00  0.00    -0.240 OA
BRANCH  27  29
ATOM     29  O   LIG    1      -21.498  87.460  16.553  0.00  0.00    -0.474 OA
ATOM     30  H   LIG    1      -21.574  88.181  17.219  0.00  0.00    +0.296 HD
ENDBRANCH  27  29
ENDBRANCH  23  27
ENDBRANCH   1  24
TORSDOF 5
ENDMDL
MODEL 3
REMARK VINA RESULT:      -6.5     13.868     18.769
REMARK  Name = pdb/CHEMBL3925946.pdb
REMARK                            x       y       z     vdW  Elec       q    Type
REMARK                         _______ _______ _______ _____ _____    ______ ____
ROOT
ATOM      1  C   LIG    1      -22.987  77.277  30.558  0.00  0.00    +0.099 A 
ATOM      2  C   LIG    1      -21.767  77.498  31.160  0.00  0.00    +0.179 A 
ATOM      3  N   LIG    1      -21.426  78.032  32.378  0.00  0.00    -0.211 NA
ATOM      4  C   LIG    1      -20.145  78.166  32.650  0.00  0.00    +0.126 A 
ATOM      5  C   LIG    1      -19.077  77.805  31.638  0.00  0.00    +0.063 A 
ATOM      6  C   LIG    1      -19.467  77.245  30.492  0.00  0.00    +0.118 A 
ATOM      7  N   LIG    1      -20.812  77.080  30.233  0.00  0.00    -0.220 N 
ATOM      8  N   LIG    1      -21.370  76.553  29.119  0.00  0.00    -0.171 NA
ATOM      9  C   LIG    1      -22.682  76.693  29.315  0.00  0.00    +0.160 A 
ENDROOT
BRANCH   4  10
ATOM     10  N   LIG    1      -19.739  78.625  33.898  0.00  0.00    -0.308 N 
ATOM     11  C   LIG    1      -20.592  78.493  35.097  0.00  0.00    +0.108 C 
ATOM     12  C   LIG    1      -19.649  77.977  36.206  0.00  0.00    +0.029 C 
ATOM     13  C   LIG    1      -18.308  77.730  35.535  0.00  0.00    +0.021 C 
ATOM     14  C   LIG    1      -18.331  78.593  34.294  0.00  0.00    +0.107 C 
BRANCH  11  15
ATOM     15  C   LIG    1      -21.253  79.811  35.467  0.00  0.00    +0.011 A 
ATOM     16  C   LIG    1      -22.612  80.051  35.211  0.00  0.00    +0.129 A 
ATOM     17  F   LIG    1      -23.364  79.126  34.603  0.00  0.00    -0.205 F 
ATOM     18  C   LIG    1      -23.231  81.253  35.545  0.00  0.00    +0.041 A 
ATOM     19  C   LIG    1      -22.491  82.266  36.142  0.00  0.00    +0.041 A 
ATOM     20  C   LIG    1      -21.139  82.059  36.387  0.00  0.00    +0.124 A 
ATOM     21  F   LIG    1      -20.424  83.042  36.952  0.00  0.00    -0.205 F 
ATOM     22  C   LIG    1      -20.516  80.853  36.058  0.00  0.00    +0.046 A 
ENDBRANCH  11  15
ENDBRANCH   4  10
BRANCH   1  24
ATOM     23  C   LIG    1      -25.238  76.717  31.257  0.00  0.00    +0.326 C 
ATOM     24  N   LIG    1      -24.197  77.603  31.137  0.00  0.00    -0.272 N 
ATOM     25  H   LIG    1      -24.326  78.572  31.419  0.00  0.00    +0.155 HD
ATOM     26  O   LIG    1      -25.290  75.544  30.910  0.00  0.00    -0.263 OA
BRANCH  23  27
ATOM     27  C   LIG    1      -26.429  77.292  32.041  0.00  0.00    +0.393 C 
ATOM     28  O   LIG    1      -27.543  77.357  31.591  0.00  0.00    -0.240 OA
BRANCH  27  29
ATOM     29  O   LIG    1      -26.012  77.785  33.227  0.00  0.00    -0.474 OA
ATOM     30  H   LIG    1      -25.254  77.260  33.571  0.00  0.00    +0.296 HD
ENDBRANCH  27  29
ENDBRANCH  23  27
ENDBRANCH   1  24
TORSDOF 5
ENDMDL
MODEL 4
REMARK VINA RESULT:      -6.5     14.170     18.170
REMARK  Name = pdb/CHEMBL3925946.pdb
REMARK                            x       y       z     vdW  Elec       q    Type
REMARK                         _______ _______ _______ _____ _____    ______ ____
ROOT
ATOM      1  C   LIG    1      -24.726  77.632  31.909  0.00  0.00    +0.099 A 
ATOM      2  C   LIG    1      -24.786  78.187  33.169  0.00  0.00    +0.179 A 
ATOM      3  N   LIG    1      -23.904  78.969  33.872  0.00  0.00    -0.211 NA
ATOM      4  C   LIG    1      -24.229  79.303  35.104  0.00  0.00    +0.126 A 
ATOM      5  C   LIG    1      -25.500  78.796  35.754  0.00  0.00    +0.063 A 
ATOM      6  C   LIG    1      -26.341  78.081  35.005  0.00  0.00    +0.118 A 
ATOM      7  N   LIG    1      -26.003  77.765  33.705  0.00  0.00    -0.220 N 
ATOM      8  N   LIG    1      -26.730  77.036  32.827  0.00  0.00    -0.171 NA
ATOM      9  C   LIG    1      -25.944  76.944  31.753  0.00  0.00    +0.160 A 
ENDROOT
BRANCH   4  10
ATOM     10  N   LIG    1      -23.414  80.159  35.834  0.00  0.00    -0.308 N 
ATOM     11  C   LIG    1      -22.326  80.935  35.204  0.00  0.00    +0.108 C 
ATOM     12  C   LIG    1      -22.464  82.361  35.778  0.00  0.00    +0.029 C 
ATOM     13  C   LIG    1      -23.719  82.349  36.635  0.00  0.00    +0.021 C 
ATOM     14  C   LIG    1      -23.933  80.895  36.988  0.00  0.00    +0.107 C 
BRANCH  11  15
ATOM     15  C   LIG    1      -20.962  80.325  35.488  0.00  0.00    +0.011 A 
ATOM     16  C   LIG    1      -20.332  79.470  34.572  0.00  0.00    +0.129 A 
ATOM     17  F   LIG    1      -20.932  79.141  33.422  0.00  0.00    -0.205 F 
ATOM     18  C   LIG    1      -19.082  78.905  34.819  0.00  0.00    +0.041 A 
ATOM     19  C   LIG    1      -18.427  79.178  36.013  0.00  0.00    +0.041 A 
ATOM     20  C   LIG    1      -19.041  80.006  36.945  0.00  0.00    +0.124 A 
ATOM     21  F   LIG    1      -18.413  80.259  38.102  0.00  0.00    -0.205 F 
ATOM     22  C   LIG    1      -20.291  80.579  36.699  0.00  0.00    +0.046 A 
ENDBRANCH  11  15
ENDBRANCH   4  10
BRANCH   1  24
ATOM     23  C   LIG    1      -22.473  77.081  31.208  0.00  0.00    +0.326 C 
ATOM     24  N   LIG    1      -23.649  77.776  31.059  0.00  0.00    -0.272 N 
ATOM     25  H   LIG    1      -23.723  78.488  30.336  0.00  0.00    +0.155 HD
ATOM     26  O   LIG    1      -22.178  76.249  32.055  0.00  0.00    -0.263 OA
BRANCH  23  27
ATOM     27  C   LIG    1      -21.477  77.336  30.065  0.00  0.00    +0.393 C 
ATOM     28  O   LIG    1      -20.453  77.952  30.211  0.00  0.00    -0.240 OA
BRANCH  27  29
ATOM     29  O   LIG    1      -21.971  76.865  28.901  0.00  0.00    -0.474 OA
ATOM     30  H   LIG    1      -21.377  76.174  28.529  0.00  0.00    +0.296 HD
ENDBRANCH  27  29
ENDBRANCH  23  27
ENDBRANCH   1  24
TORSDOF 5
ENDMDL
MODEL 5
REMARK VINA RESULT:      -6.3     18.515     21.765
REMARK  Name = pdb/CHEMBL3925946.pdb
REMARK                            x       y       z     vdW  Elec       q    Type
REMARK                         _______ _______ _______ _____ _____    ______ ____
ROOT
ATOM      1  C   LIG    1      -19.536  84.961  13.539  0.00  0.00    +0.099 A 
ATOM      2  C   LIG    1      -19.214  83.653  13.831  0.00  0.00    +0.179 A 
ATOM      3  N   LIG    1      -19.898  82.665  14.495  0.00  0.00    -0.211 NA
ATOM      4  C   LIG    1      -19.290  81.510  14.667  0.00  0.00    +0.126 A 
ATOM      5  C   LIG    1      -17.864  81.287  14.206  0.00  0.00    +0.063 A 
ATOM      6  C   LIG    1      -17.269  82.267  13.523  0.00  0.00    +0.118 A 
ATOM      7  N   LIG    1      -17.930  83.462  13.323  0.00  0.00    -0.220 N 
ATOM      8  N   LIG    1      -17.462  84.554  12.675  0.00  0.00    -0.171 NA
ATOM      9  C   LIG    1      -18.429  85.460  12.826  0.00  0.00    +0.160 A 
ENDROOT
BRANCH   4  10
ATOM     10  N   LIG    1      -19.962  80.447  15.260  0.00  0.00    -0.308 N 
ATOM     11  C   LIG    1      -20.713  79.453  14.466  0.00  0.00    +0.108 C 
ATOM     12  C   LIG    1      -20.306  78.082  15.050  0.00  0.00    +0.029 C 
ATOM     13  C   LIG    1      -19.237  78.370  16.091  0.00  0.00    +0.021 C 
ATOM     14  C   LIG    1      -19.452  79.816  16.477  0.00  0.00    +0.107 C 
BRANCH  11  15
ATOM     15  C   LIG    1      -22.213  79.691  14.538  0.00  0.00    +0.011 A 
ATOM     16  C   LIG    1      -22.866  80.550  13.641  0.00  0.00    +0.129 A 
ATOM     17  F   LIG    1      -22.175  81.211  12.705  0.00  0.00    -0.205 F 
ATOM     18  C   LIG    1      -24.239  80.777  13.694  0.00  0.00    +0.041 A 
ATOM     19  C   LIG    1      -25.004  80.149  14.670  0.00  0.00    +0.041 A 
ATOM     20  C   LIG    1      -24.376  79.309  15.582  0.00  0.00    +0.124 A 
ATOM     21  F   LIG    1      -25.113  78.714  16.530  0.00  0.00    -0.205 F 
ATOM     22  C   LIG    1      -23.000  79.075  15.528  0.00  0.00    +0.046 A 
ENDBRANCH  11  15
ENDBRANCH   4  10
BRANCH   1  24
ATOM     23  C   LIG    1      -20.777  86.768  14.570  0.00  0.00    +0.326 C 
ATOM     24  N   LIG    1      -20.719  85.562  13.917  0.00  0.00    -0.272 N 
ATOM     25  H   LIG    1      -21.575  85.036  13.757  0.00  0.00    +0.155 HD
ATOM     26  O   LIG    1      -19.857  87.501  14.909  0.00  0.00    -0.263 OA
BRANCH  23  27
ATOM     27  C   LIG    1      -22.215  87.272  14.773  0.00  0.00    +0.393 C 
ATOM     28  O   LIG    1      -22.476  88.306  15.331  0.00  0.00    -0.240 OA
BRANCH  27  29
ATOM     29  O   LIG    1      -23.099  86.351  14.335  0.00  0.00    -0.474 OA
ATOM     30  H   LIG    1      -23.100  86.315  13.352  0.00  0.00    +0.296 HD
ENDBRANCH  27  29
ENDBRANCH  23  27
ENDBRANCH   1  24
TORSDOF 5
ENDMDL
MODEL 6
REMARK VINA RESULT:      -6.0      3.535      6.901
REMARK  Name = pdb/CHEMBL3925946.pdb
REMARK                            x       y       z     vdW  Elec       q    Type
REMARK                         _______ _______ _______ _____ _____    ______ ____
ROOT
ATOM      1  C   LIG    1      -38.073  75.419  25.503  0.00  0.00    +0.099 A 
ATOM      2  C   LIG    1      -37.356  76.382  26.181  0.00  0.00    +0.179 A 
ATOM      3  N   LIG    1      -36.043  76.443  26.575  0.00  0.00    -0.211 NA
ATOM      4  C   LIG    1      -35.662  77.493  27.272  0.00  0.00    +0.126 A 
ATOM      5  C   LIG    1      -36.642  78.573  27.681  0.00  0.00    +0.063 A 
ATOM      6  C   LIG    1      -37.893  78.484  27.226  0.00  0.00    +0.118 A 
ATOM      7  N   LIG    1      -38.272  77.394  26.471  0.00  0.00    -0.220 N 
ATOM      8  N   LIG    1      -39.498  77.144  25.956  0.00  0.00    -0.171 NA
ATOM      9  C   LIG    1      -39.375  75.942  25.390  0.00  0.00    +0.160 A 
ENDROOT
BRANCH   4  10
ATOM     10  N   LIG    1      -34.327  77.648  27.628  0.00  0.00    -0.308 N 
ATOM     11  C   LIG    1      -33.274  76.729  27.147  0.00  0.00    +0.108 C 
ATOM     12  C   LIG    1      -32.116  77.646  26.698  0.00  0.00    +0.029 C 
ATOM     13  C   LIG    1      -32.626  79.070  26.845  0.00  0.00    +0.021 C 
ATOM     14  C   LIG    1      -33.753  78.976  27.847  0.00  0.00    +0.107 C 
BRANCH  11  15
ATOM     15  C   LIG    1      -32.851  75.745  28.225  0.00  0.00    +0.011 A 
ATOM     16  C   LIG    1      -33.487  74.504  28.381  0.00  0.00    +0.129 A 
ATOM     17  F   LIG    1      -34.514  74.161  27.595  0.00  0.00    -0.205 F 
ATOM     18  C   LIG    1      -33.109  73.592  29.364  0.00  0.00    +0.041 A 
ATOM     19  C   LIG    1      -32.075  73.909  30.236  0.00  0.00    +0.041 A 
ATOM     20  C   LIG    1      -31.442  75.140  30.114  0.00  0.00    +0.124 A 
ATOM     21  F   LIG    1      -30.453  75.449  30.964  0.00  0.00    -0.205 F 
ATOM     22  C   LIG    1      -31.816  76.055  29.126  0.00  0.00    +0.046 A 
ENDBRANCH  11  15
ENDBRANCH   4  10
BRANCH   1  24
ATOM     23  C   LIG    1      -37.660  73.046  25.772  0.00  0.00    +0.326 C 
ATOM     24  N   LIG    1      -37.534  74.223  25.075  0.00  0.00    -0.272 N 
ATOM     25  H   LIG    1      -36.960  74.251  24.236  0.00  0.00    +0.155 HD
ATOM     26  O   LIG    1      -38.244  72.840  26.828  0.00  0.00    -0.263 OA
BRANCH  23  27
ATOM     27  C   LIG    1      -37.071  71.840  25.024  0.00  0.00    +0.393 C 
ATOM     28  O   LIG    1      -37.693  71.197  24.220  0.00  0.00    -0.240 OA
BRANCH  27  29
ATOM     29  O   LIG    1      -35.828  71.570  25.478  0.00  0.00    -0.474 OA
ATOM     30  H   LIG    1      -35.250  72.362  25.392  0.00  0.00    +0.296 HD
ENDBRANCH  27  29
ENDBRANCH  23  27
ENDBRANCH   1  24
TORSDOF 5
ENDMDL
MODEL 7
REMARK VINA RESULT:      -6.0     14.485     19.310
REMARK  Name = pdb/CHEMBL3925946.pdb
REMARK                            x       y       z     vdW  Elec       q    Type
REMARK                         _______ _______ _______ _____ _____    ______ ____
ROOT
ATOM      1  C   LIG    1      -23.147  76.567  30.992  0.00  0.00    +0.099 A 
ATOM      2  C   LIG    1      -22.235  77.288  31.733  0.00  0.00    +0.179 A 
ATOM      3  N   LIG    1      -22.340  77.945  32.933  0.00  0.00    -0.211 NA
ATOM      4  C   LIG    1      -21.285  78.605  33.364  0.00  0.00    +0.126 A 
ATOM      5  C   LIG    1      -20.015  78.695  32.543  0.00  0.00    +0.063 A 
ATOM      6  C   LIG    1      -19.956  77.995  31.409  0.00  0.00    +0.118 A 
ATOM      7  N   LIG    1      -21.057  77.281  30.985  0.00  0.00    -0.220 N 
ATOM      8  N   LIG    1      -21.167  76.543  29.856  0.00  0.00    -0.171 NA
ATOM      9  C   LIG    1      -22.435  76.132  29.859  0.00  0.00    +0.160 A 
ENDROOT
BRANCH   4  10
ATOM     10  N   LIG    1      -21.307  79.221  34.610  0.00  0.00    -0.308 N 
ATOM     11  C   LIG    1      -20.228  80.128  35.056  0.00  0.00    +0.108 C 
ATOM     12  C   LIG    1      -20.955  81.345  35.669  0.00  0.00    +0.029 C 
ATOM     13  C   LIG    1      -22.437  81.113  35.430  0.00  0.00    +0.021 C 
ATOM     14  C   LIG    1      -22.569  79.620  35.233  0.00  0.00    +0.107 C 
BRANCH  11  15
ATOM     15  C   LIG    1      -19.297  79.449  36.048  0.00  0.00    +0.011 A 
ATOM     16  C   LIG    1      -18.036  78.969  35.664  0.00  0.00    +0.129 A 
ATOM     17  F   LIG    1      -17.626  79.070  34.394  0.00  0.00    -0.205 F 
ATOM     18  C   LIG    1      -17.172  78.346  36.562  0.00  0.00    +0.041 A 
ATOM     19  C   LIG    1      -17.559  78.176  37.885  0.00  0.00    +0.041 A 
ATOM     20  C   LIG    1      -18.811  78.626  38.284  0.00  0.00    +0.124 A 
ATOM     21  F   LIG    1      -19.189  78.451  39.559  0.00  0.00    -0.205 F 
ATOM     22  C   LIG    1      -19.679  79.256  37.388  0.00  0.00    +0.046 A 
ENDBRANCH  11  15
ENDBRANCH   4  10
BRANCH   1  24
ATOM     23  C   LIG    1      -25.465  77.264  31.078  0.00  0.00    +0.326 C 
ATOM     24  N   LIG    1      -24.460  76.376  31.370  0.00  0.00    -0.272 N 
ATOM     25  H   LIG    1      -24.659  75.566  31.953  0.00  0.00    +0.155 HD
ATOM     26  O   LIG    1      -25.400  78.318  30.459  0.00  0.00    -0.263 OA
BRANCH  23  27
ATOM     27  C   LIG    1      -26.853  76.763  31.508  0.00  0.00    +0.393 C 
ATOM     28  O   LIG    1      -27.782  77.499  31.720  0.00  0.00    -0.240 OA
BRANCH  27  29
ATOM     29  O   LIG    1      -26.828  75.427  31.701  0.00  0.00    -0.474 OA
ATOM     30  H   LIG    1      -27.342  74.967  30.999  0.00  0.00    +0.296 HD
ENDBRANCH  27  29
ENDBRANCH  23  27
ENDBRANCH   1  24
TORSDOF 5
ENDMDL
MODEL 8
REMARK VINA RESULT:      -5.9     17.193     19.472
REMARK  Name = pdb/CHEMBL3925946.pdb
REMARK                            x       y       z     vdW  Elec       q    Type
REMARK                         _______ _______ _______ _____ _____    ______ ____
ROOT
ATOM      1  C   LIG    1      -34.991  89.978  19.304  0.00  0.00    +0.099 A 
ATOM      2  C   LIG    1      -34.507  91.211  19.689  0.00  0.00    +0.179 A 
ATOM      3  N   LIG    1      -33.334  91.865  19.409  0.00  0.00    -0.211 NA
ATOM      4  C   LIG    1      -33.132  93.033  19.983  0.00  0.00    +0.126 A 
ATOM      5  C   LIG    1      -34.126  93.614  20.968  0.00  0.00    +0.063 A 
ATOM      6  C   LIG    1      -35.270  92.956  21.163  0.00  0.00    +0.118 A 
ATOM      7  N   LIG    1      -35.482  91.748  20.529  0.00  0.00    -0.220 N 
ATOM      8  N   LIG    1      -36.570  90.951  20.635  0.00  0.00    -0.171 NA
ATOM      9  C   LIG    1      -36.258  89.877  19.909  0.00  0.00    +0.160 A 
ENDROOT
BRANCH   4  10
ATOM     10  N   LIG    1      -32.001  93.778  19.674  0.00  0.00    -0.308 N 
ATOM     11  C   LIG    1      -32.037  94.895  18.707  0.00  0.00    +0.108 C 
ATOM     12  C   LIG    1      -31.255  96.040  19.386  0.00  0.00    +0.029 C 
ATOM     13  C   LIG    1      -30.906  95.542  20.779  0.00  0.00    +0.021 C 
ATOM     14  C   LIG    1      -30.968  94.035  20.678  0.00  0.00    +0.107 C 
BRANCH  11  15
ATOM     15  C   LIG    1      -31.437  94.499  17.367  0.00  0.00    +0.011 A 
ATOM     16  C   LIG    1      -32.195  93.842  16.386  0.00  0.00    +0.129 A 
ATOM     17  F   LIG    1      -33.472  93.516  16.617  0.00  0.00    -0.205 F 
ATOM     18  C   LIG    1      -31.660  93.474  15.154  0.00  0.00    +0.041 A 
ATOM     19  C   LIG    1      -30.327  93.749  14.873  0.00  0.00    +0.041 A 
ATOM     20  C   LIG    1      -29.551  94.382  15.836  0.00  0.00    +0.124 A 
ATOM     21  F   LIG    1      -28.263  94.636  15.568  0.00  0.00    -0.205 F 
ATOM     22  C   LIG    1      -30.086  94.757  17.071  0.00  0.00    +0.046 A 
ENDBRANCH  11  15
ENDBRANCH   4  10
BRANCH   1  24
ATOM     23  C   LIG    1      -34.218  89.231  17.133  0.00  0.00    +0.326 C 
ATOM     24  N   LIG    1      -34.296  89.101  18.497  0.00  0.00    -0.272 N 
ATOM     25  H   LIG    1      -33.887  88.285  18.948  0.00  0.00    +0.155 HD
ATOM     26  O   LIG    1      -34.705  90.097  16.417  0.00  0.00    -0.263 OA
BRANCH  23  27
ATOM     27  C   LIG    1      -33.290  88.193  16.482  0.00  0.00    +0.393 C 
ATOM     28  O   LIG    1      -33.099  88.134  15.295  0.00  0.00    -0.240 OA
BRANCH  27  29
ATOM     29  O   LIG    1      -32.828  87.331  17.413  0.00  0.00    -0.474 OA
ATOM     30  H   LIG    1      -32.169  87.773  17.995  0.00  0.00    +0.296 HD
ENDBRANCH  27  29
ENDBRANCH  23  27
ENDBRANCH   1  24
TORSDOF 5
ENDMDL
MODEL 9
REMARK VINA RESULT:      -5.9     16.104     18.051
REMARK  Name = pdb/CHEMBL3925946.pdb
REMARK                            x       y       z     vdW  Elec       q    Type
REMARK                         _______ _______ _______ _____ _____    ______ ____
ROOT
ATOM      1  C   LIG    1      -31.844  93.898  22.941  0.00  0.00    +0.099 A 
ATOM      2  C   LIG    1      -32.243  93.472  21.691  0.00  0.00    +0.179 A 
ATOM      3  N   LIG    1      -33.313  92.720  21.275  0.00  0.00    -0.211 NA
ATOM      4  C   LIG    1      -33.393  92.427  19.994  0.00  0.00    +0.126 A 
ATOM      5  C   LIG    1      -32.316  92.848  19.015  0.00  0.00    +0.063 A 
ATOM      6  C   LIG    1      -31.327  93.619  19.469  0.00  0.00    +0.118 A 
ATOM      7  N   LIG    1      -31.272  93.945  20.808  0.00  0.00    -0.220 N 
ATOM      8  N   LIG    1      -30.331  94.693  21.428  0.00  0.00    -0.171 NA
ATOM      9  C   LIG    1      -30.673  94.644  22.716  0.00  0.00    +0.160 A 
ENDROOT
BRANCH   4  10
ATOM     10  N   LIG    1      -34.496  91.739  19.502  0.00  0.00    -0.308 N 
ATOM     11  C   LIG    1      -34.357  90.579  18.597  0.00  0.00    +0.108 C 
ATOM     12  C   LIG    1      -35.328  89.515  19.155  0.00  0.00    +0.029 C 
ATOM     13  C   LIG    1      -35.895  90.097  20.439  0.00  0.00    +0.021 C 
ATOM     14  C   LIG    1      -35.713  91.591  20.301  0.00  0.00    +0.107 C 
BRANCH  11  15
ATOM     15  C   LIG    1      -34.668  90.948  17.156  0.00  0.00    +0.011 A 
ATOM     16  C   LIG    1      -33.701  90.850  16.144  0.00  0.00    +0.129 A 
ATOM     17  F   LIG    1      -32.456  90.450  16.429  0.00  0.00    -0.205 F 
ATOM     18  C   LIG    1      -33.972  91.184  14.819  0.00  0.00    +0.041 A 
ATOM     19  C   LIG    1      -35.235  91.643  14.470  0.00  0.00    +0.041 A 
ATOM     20  C   LIG    1      -36.205  91.768  15.458  0.00  0.00    +0.124 A 
ATOM     21  F   LIG    1      -37.420  92.223  15.121  0.00  0.00    -0.205 F 
ATOM     22  C   LIG    1      -35.938  91.429  16.787  0.00  0.00    +0.046 A 
ENDBRANCH  11  15
ENDBRANCH   4  10
BRANCH   1  24
ATOM     23  C   LIG    1      -32.247  92.488  24.869  0.00  0.00    +0.326 C 
ATOM     24  N   LIG    1      -32.520  93.595  24.105  0.00  0.00    -0.272 N 
ATOM     25  H   LIG    1      -33.302  94.196  24.353  0.00  0.00    +0.155 HD
ATOM     26  O   LIG    1      -31.402  91.621  24.687  0.00  0.00    -0.263 OA
BRANCH  23  27
ATOM     27  C   LIG    1      -33.060  92.442  26.173  0.00  0.00    +0.393 C 
ATOM     28  O   LIG    1      -33.959  93.205  26.414  0.00  0.00    -0.240 OA
BRANCH  27  29
ATOM     29  O   LIG    1      -32.549  91.515  27.010  0.00  0.00    -0.474 OA
ATOM     30  H   LIG    1      -33.227  91.230  27.664  0.00  0.00    +0.296 HD
ENDBRANCH  27  29
ENDBRANCH  23  27
ENDBRANCH   1  24
TORSDOF 5
ENDMDL
