MODEL 1
REMARK VINA RESULT:      -7.0      0.000      0.000
REMARK  Name = pdb/CHEMBL3977511.pdb
REMARK                            x       y       z     vdW  Elec       q    Type
REMARK                         _______ _______ _______ _____ _____    ______ ____
ROOT
ATOM      1  C   LIG    1      -25.522  77.197  31.528  0.00  0.00    +0.190 C 
ATOM      2  C   LIG    1      -25.451  77.684  32.855  0.00  0.00    +0.330 C 
ATOM      3  N   LIG    1      -24.673  78.607  33.500  0.00  0.00    -0.045 NA
ATOM      4  C   LIG    1      -24.718  78.621  34.823  0.00  0.00    +0.312 C 
ATOM      5  C   LIG    1      -25.724  77.799  35.604  0.00  0.00    +0.115 C 
ATOM      6  C   LIG    1      -26.487  76.963  34.935  0.00  0.00    +0.102 C 
ATOM      7  N   LIG    1      -26.319  76.843  33.572  0.00  0.00    -0.201 N 
ATOM      8  N   LIG    1      -26.825  75.865  32.817  0.00  0.00    -0.131 NA
ATOM      9  C   LIG    1      -26.090  75.950  31.718  0.00  0.00    +0.155 C 
ENDROOT
BRANCH   4  10
ATOM     10  N   LIG    1      -23.801  79.381  35.525  0.00  0.00    -0.214 N 
ATOM     11  C   LIG    1      -22.847  80.212  34.774  0.00  0.00    +0.201 C 
ATOM     12  C   LIG    1      -23.006  81.630  35.370  0.00  0.00    +0.056 C 
ATOM     13  C   LIG    1      -24.122  81.544  36.403  0.00  0.00    +0.048 C 
ATOM     14  C   LIG    1      -24.189  80.073  36.755  0.00  0.00    +0.226 C 
BRANCH  11  15
ATOM     15  C   LIG    1      -21.435  79.681  34.915  0.00  0.00    +0.033 A 
ATOM     16  C   LIG    1      -20.939  78.753  33.990  0.00  0.00    +0.131 A 
ATOM     17  F   LIG    1      -21.728  78.314  32.998  0.00  0.00    -0.205 F 
ATOM     18  C   LIG    1      -19.629  78.276  34.063  0.00  0.00    +0.041 A 
ATOM     19  C   LIG    1      -18.790  78.716  35.084  0.00  0.00    +0.041 A 
ATOM     20  C   LIG    1      -19.278  79.611  36.028  0.00  0.00    +0.124 A 
ATOM     21  F   LIG    1      -18.477  80.033  37.014  0.00  0.00    -0.205 F 
ATOM     22  C   LIG    1      -20.582  80.086  35.956  0.00  0.00    +0.048 A 
ENDBRANCH  11  15
ENDBRANCH   4  10
BRANCH   1  24
ATOM     23  C   LIG    1      -23.661  77.465  30.038  0.00  0.00    +0.235 C 
ATOM     24  N   LIG    1      -24.901  77.687  30.417  0.00  0.00    -0.231 NA
BRANCH  23  27
ATOM     25  C   LIG    1      -23.291  74.355  31.430  0.00  0.00    +0.046 C 
ATOM     26  C   LIG    1      -22.263  75.394  31.079  0.00  0.00    -0.020 A 
ATOM     27  C   LIG    1      -22.421  76.672  30.504  0.00  0.00    +0.128 A 
ATOM     28  N   LIG    1      -21.289  77.415  30.188  0.00  0.00    -0.250 NA
ATOM     29  C   LIG    1      -20.058  76.931  30.496  0.00  0.00    +0.111 A 
ATOM     30  C   LIG    1      -19.845  75.733  31.133  0.00  0.00    +0.020 A 
ATOM     31  C   LIG    1      -20.958  74.975  31.435  0.00  0.00    +0.007 A 
ENDBRANCH  23  27
BRANCH  23  32
ATOM     32  O   LIG    1      -23.290  78.222  28.967  0.00  0.00    -0.491 OA
ATOM     33  H   LIG    1      -24.004  78.209  28.291  0.00  0.00    +0.294 HD
ENDBRANCH  23  32
ENDBRANCH   1  24
TORSDOF 5
ENDMDL
MODEL 2
REMARK VINA RESULT:      -6.8      1.551      2.214
REMARK  Name = pdb/CHEMBL3977511.pdb
REMARK                            x       y       z     vdW  Elec       q    Type
REMARK                         _______ _______ _______ _____ _____    ______ ____
ROOT
ATOM      1  C   LIG    1      -25.515  77.533  31.478  0.00  0.00    +0.190 C 
ATOM      2  C   LIG    1      -25.101  77.946  32.766  0.00  0.00    +0.330 C 
ATOM      3  N   LIG    1      -23.930  78.420  33.294  0.00  0.00    -0.045 NA
ATOM      4  C   LIG    1      -23.833  78.466  34.613  0.00  0.00    +0.312 C 
ATOM      5  C   LIG    1      -25.020  78.199  35.518  0.00  0.00    +0.115 C 
ATOM      6  C   LIG    1      -26.140  77.796  34.960  0.00  0.00    +0.102 C 
ATOM      7  N   LIG    1      -26.181  77.600  33.597  0.00  0.00    -0.201 N 
ATOM      8  N   LIG    1      -27.146  76.953  32.940  0.00  0.00    -0.131 NA
ATOM      9  C   LIG    1      -26.564  76.683  31.780  0.00  0.00    +0.155 C 
ENDROOT
BRANCH   4  10
ATOM     10  N   LIG    1      -22.608  78.731  35.195  0.00  0.00    -0.214 N 
ATOM     11  C   LIG    1      -21.524  79.262  34.352  0.00  0.00    +0.201 C 
ATOM     12  C   LIG    1      -21.046  80.538  35.083  0.00  0.00    +0.056 C 
ATOM     13  C   LIG    1      -21.954  80.711  36.293  0.00  0.00    +0.048 C 
ATOM     14  C   LIG    1      -22.527  79.329  36.528  0.00  0.00    +0.226 C 
BRANCH  11  15
ATOM     15  C   LIG    1      -20.417  78.242  34.186  0.00  0.00    +0.033 A 
ATOM     16  C   LIG    1      -19.315  78.529  33.369  0.00  0.00    +0.131 A 
ATOM     17  F   LIG    1      -19.259  79.697  32.713  0.00  0.00    -0.205 F 
ATOM     18  C   LIG    1      -18.255  77.632  33.228  0.00  0.00    +0.041 A 
ATOM     19  C   LIG    1      -18.289  76.411  33.898  0.00  0.00    +0.041 A 
ATOM     20  C   LIG    1      -19.391  76.098  34.685  0.00  0.00    +0.124 A 
ATOM     21  F   LIG    1      -19.431  74.924  35.328  0.00  0.00    -0.205 F 
ATOM     22  C   LIG    1      -20.446  76.991  34.826  0.00  0.00    +0.048 A 
ENDBRANCH  11  15
ENDBRANCH   4  10
BRANCH   1  24
ATOM     23  C   LIG    1      -23.687  77.160  29.970  0.00  0.00    +0.235 C 
ATOM     24  N   LIG    1      -24.853  77.675  30.294  0.00  0.00    -0.231 NA
BRANCH  23  27
ATOM     25  C   LIG    1      -20.270  77.404  30.078  0.00  0.00    +0.046 C 
ATOM     26  C   LIG    1      -21.190  76.352  30.631  0.00  0.00    -0.020 A 
ATOM     27  C   LIG    1      -22.596  76.257  30.586  0.00  0.00    +0.128 A 
ATOM     28  N   LIG    1      -23.226  75.219  31.263  0.00  0.00    -0.250 NA
ATOM     29  C   LIG    1      -22.479  74.281  31.900  0.00  0.00    +0.111 A 
ATOM     30  C   LIG    1      -21.105  74.271  31.907  0.00  0.00    +0.020 A 
ATOM     31  C   LIG    1      -20.467  75.306  31.255  0.00  0.00    +0.007 A 
ENDBRANCH  23  27
BRANCH  23  32
ATOM     32  O   LIG    1      -23.221  77.614  28.773  0.00  0.00    -0.491 OA
ATOM     33  H   LIG    1      -23.681  78.449  28.535  0.00  0.00    +0.294 HD
ENDBRANCH  23  32
ENDBRANCH   1  24
TORSDOF 5
ENDMDL
MODEL 3
REMARK VINA RESULT:      -6.6     11.985     15.073
REMARK  Name = pdb/CHEMBL3977511.pdb
REMARK                            x       y       z     vdW  Elec       q    Type
REMARK                         _______ _______ _______ _____ _____    ______ ____
ROOT
ATOM      1  C   LIG    1      -38.609  78.178  26.789  0.00  0.00    +0.190 C 
ATOM      2  C   LIG    1      -37.493  78.281  27.652  0.00  0.00    +0.330 C 
ATOM      3  N   LIG    1      -36.140  78.385  27.466  0.00  0.00    -0.045 NA
ATOM      4  C   LIG    1      -35.365  78.203  28.524  0.00  0.00    +0.312 C 
ATOM      5  C   LIG    1      -35.931  78.082  29.925  0.00  0.00    +0.115 C 
ATOM      6  C   LIG    1      -37.239  78.039  30.059  0.00  0.00    +0.102 C 
ATOM      7  N   LIG    1      -38.032  78.070  28.932  0.00  0.00    -0.201 N 
ATOM      8  N   LIG    1      -39.332  77.772  28.898  0.00  0.00    -0.131 NA
ATOM      9  C   LIG    1      -39.537  77.558  27.606  0.00  0.00    +0.155 C 
ENDROOT
BRANCH   4  10
ATOM     10  N   LIG    1      -33.999  78.085  28.353  0.00  0.00    -0.214 N 
ATOM     11  C   LIG    1      -33.478  76.944  27.583  0.00  0.00    +0.201 C 
ATOM     12  C   LIG    1      -32.571  77.579  26.503  0.00  0.00    +0.056 C 
ATOM     13  C   LIG    1      -32.686  79.088  26.673  0.00  0.00    +0.048 C 
ATOM     14  C   LIG    1      -33.174  79.266  28.096  0.00  0.00    +0.226 C 
BRANCH  11  15
ATOM     15  C   LIG    1      -32.724  75.983  28.479  0.00  0.00    +0.033 A 
ATOM     16  C   LIG    1      -33.122  74.642  28.562  0.00  0.00    +0.131 A 
ATOM     17  F   LIG    1      -34.189  74.220  27.869  0.00  0.00    -0.205 F 
ATOM     18  C   LIG    1      -32.423  73.719  29.343  0.00  0.00    +0.041 A 
ATOM     19  C   LIG    1      -31.312  74.133  30.073  0.00  0.00    +0.041 A 
ATOM     20  C   LIG    1      -30.925  75.466  30.027  0.00  0.00    +0.124 A 
ATOM     21  F   LIG    1      -29.860  75.870  30.730  0.00  0.00    -0.205 F 
ATOM     22  C   LIG    1      -31.620  76.386  29.250  0.00  0.00    +0.048 A 
ENDBRANCH  11  15
ENDBRANCH   4  10
BRANCH   1  24
ATOM     23  C   LIG    1      -38.877  77.419  24.529  0.00  0.00    +0.235 C 
ATOM     24  N   LIG    1      -38.647  78.344  25.436  0.00  0.00    -0.231 NA
BRANCH  23  27
ATOM     25  C   LIG    1      -41.581  75.684  23.335  0.00  0.00    +0.046 C 
ATOM     26  C   LIG    1      -40.308  75.192  23.965  0.00  0.00    -0.020 A 
ATOM     27  C   LIG    1      -39.197  75.911  24.453  0.00  0.00    +0.128 A 
ATOM     28  N   LIG    1      -38.087  75.210  24.912  0.00  0.00    -0.250 NA
ATOM     29  C   LIG    1      -38.114  73.853  24.944  0.00  0.00    +0.111 A 
ATOM     30  C   LIG    1      -39.198  73.100  24.563  0.00  0.00    +0.020 A 
ATOM     31  C   LIG    1      -40.300  73.782  24.087  0.00  0.00    +0.007 A 
ENDBRANCH  23  27
BRANCH  23  32
ATOM     32  O   LIG    1      -38.692  77.868  23.256  0.00  0.00    -0.491 OA
ATOM     33  H   LIG    1      -38.114  77.241  22.765  0.00  0.00    +0.294 HD
ENDBRANCH  23  32
ENDBRANCH   1  24
TORSDOF 5
ENDMDL
MODEL 4
REMARK VINA RESULT:      -6.4      1.673      3.021
REMARK  Name = pdb/CHEMBL3977511.pdb
REMARK                            x       y       z     vdW  Elec       q    Type
REMARK                         _______ _______ _______ _____ _____    ______ ____
ROOT
ATOM      1  C   LIG    1      -24.890  77.947  31.862  0.00  0.00    +0.190 C 
ATOM      2  C   LIG    1      -24.196  78.476  32.974  0.00  0.00    +0.330 C 
ATOM      3  N   LIG    1      -22.936  78.974  33.173  0.00  0.00    -0.045 NA
ATOM      4  C   LIG    1      -22.541  79.148  34.425  0.00  0.00    +0.312 C 
ATOM      5  C   LIG    1      -23.491  78.997  35.597  0.00  0.00    +0.115 C 
ATOM      6  C   LIG    1      -24.709  78.566  35.351  0.00  0.00    +0.102 C 
ATOM      7  N   LIG    1      -25.057  78.237  34.058  0.00  0.00    -0.201 N 
ATOM      8  N   LIG    1      -26.146  77.550  33.706  0.00  0.00    -0.131 NA
ATOM      9  C   LIG    1      -25.843  77.155  32.478  0.00  0.00    +0.155 C 
ENDROOT
BRANCH   4  10
ATOM     10  N   LIG    1      -21.216  79.442  34.685  0.00  0.00    -0.214 N 
ATOM     11  C   LIG    1      -20.626  78.988  35.954  0.00  0.00    +0.201 C 
ATOM     12  C   LIG    1      -19.354  78.211  35.542  0.00  0.00    +0.056 C 
ATOM     13  C   LIG    1      -19.328  78.200  34.019  0.00  0.00    +0.048 C 
ATOM     14  C   LIG    1      -20.212  79.365  33.624  0.00  0.00    +0.226 C 
BRANCH  11  15
ATOM     15  C   LIG    1      -20.317  80.162  36.860  0.00  0.00    +0.033 A 
ATOM     16  C   LIG    1      -19.703  79.948  38.101  0.00  0.00    +0.131 A 
ATOM     17  F   LIG    1      -19.417  78.700  38.497  0.00  0.00    -0.205 F 
ATOM     18  C   LIG    1      -19.363  81.010  38.942  0.00  0.00    +0.041 A 
ATOM     19  C   LIG    1      -19.651  82.317  38.555  0.00  0.00    +0.041 A 
ATOM     20  C   LIG    1      -20.289  82.542  37.342  0.00  0.00    +0.124 A 
ATOM     21  F   LIG    1      -20.572  83.796  36.967  0.00  0.00    -0.205 F 
ATOM     22  C   LIG    1      -20.628  81.486  36.505  0.00  0.00    +0.048 A 
ENDBRANCH  11  15
ENDBRANCH   4  10
BRANCH   1  24
ATOM     23  C   LIG    1      -23.403  77.473  30.040  0.00  0.00    +0.235 C 
ATOM     24  N   LIG    1      -24.515  77.957  30.551  0.00  0.00    -0.231 NA
BRANCH  23  27
ATOM     25  C   LIG    1      -22.913  74.575  31.802  0.00  0.00    +0.046 C 
ATOM     26  C   LIG    1      -21.920  75.548  31.230  0.00  0.00    -0.020 A 
ATOM     27  C   LIG    1      -22.127  76.738  30.503  0.00  0.00    +0.128 A 
ATOM     28  N   LIG    1      -21.027  77.421  29.997  0.00  0.00    -0.250 NA
ATOM     29  C   LIG    1      -19.774  76.970  30.263  0.00  0.00    +0.111 A 
ATOM     30  C   LIG    1      -19.506  75.867  31.036  0.00  0.00    +0.020 A 
ATOM     31  C   LIG    1      -20.589  75.168  31.529  0.00  0.00    +0.007 A 
ENDBRANCH  23  27
BRANCH  23  32
ATOM     32  O   LIG    1      -23.250  77.777  28.720  0.00  0.00    -0.491 OA
ATOM     33  H   LIG    1      -23.298  78.752  28.598  0.00  0.00    +0.294 HD
ENDBRANCH  23  32
ENDBRANCH   1  24
TORSDOF 5
ENDMDL
MODEL 5
REMARK VINA RESULT:      -6.2     13.560     16.418
REMARK  Name = pdb/CHEMBL3977511.pdb
REMARK                            x       y       z     vdW  Elec       q    Type
REMARK                         _______ _______ _______ _____ _____    ______ ____
ROOT
ATOM      1  C   LIG    1      -34.335  80.348  27.784  0.00  0.00    +0.190 C 
ATOM      2  C   LIG    1      -35.392  81.256  27.540  0.00  0.00    +0.330 C 
ATOM      3  N   LIG    1      -35.770  82.027  26.474  0.00  0.00    -0.045 NA
ATOM      4  C   LIG    1      -36.681  82.963  26.692  0.00  0.00    +0.312 C 
ATOM      5  C   LIG    1      -37.430  83.066  28.006  0.00  0.00    +0.115 C 
ATOM      6  C   LIG    1      -37.066  82.268  28.986  0.00  0.00    +0.102 C 
ATOM      7  N   LIG    1      -36.008  81.406  28.794  0.00  0.00    -0.201 N 
ATOM      8  N   LIG    1      -35.370  80.743  29.761  0.00  0.00    -0.131 NA
ATOM      9  C   LIG    1      -34.240  80.394  29.164  0.00  0.00    +0.155 C 
ENDROOT
BRANCH   4  10
ATOM     10  N   LIG    1      -36.940  83.901  25.711  0.00  0.00    -0.214 N 
ATOM     11  C   LIG    1      -38.320  84.383  25.539  0.00  0.00    +0.201 C 
ATOM     12  C   LIG    1      -38.211  85.924  25.608  0.00  0.00    +0.056 C 
ATOM     13  C   LIG    1      -36.750  86.242  25.897  0.00  0.00    +0.048 C 
ATOM     14  C   LIG    1      -36.005  84.998  25.460  0.00  0.00    +0.226 C 
BRANCH  11  15
ATOM     15  C   LIG    1      -38.903  83.903  24.226  0.00  0.00    +0.033 A 
ATOM     16  C   LIG    1      -39.368  82.587  24.103  0.00  0.00    +0.131 A 
ATOM     17  F   LIG    1      -39.267  81.746  25.143  0.00  0.00    -0.205 F 
ATOM     18  C   LIG    1      -39.952  82.124  22.923  0.00  0.00    +0.041 A 
ATOM     19  C   LIG    1      -40.068  82.978  21.829  0.00  0.00    +0.041 A 
ATOM     20  C   LIG    1      -39.581  84.275  21.924  0.00  0.00    +0.124 A 
ATOM     21  F   LIG    1      -39.686  85.099  20.873  0.00  0.00    -0.205 F 
ATOM     22  C   LIG    1      -39.000  84.737  23.099  0.00  0.00    +0.048 A 
ENDBRANCH  11  15
ENDBRANCH   4  10
BRANCH   1  24
ATOM     23  C   LIG    1      -32.957  78.607  26.875  0.00  0.00    +0.235 C 
ATOM     24  N   LIG    1      -33.447  79.828  26.889  0.00  0.00    -0.231 NA
BRANCH  23  27
ATOM     25  C   LIG    1      -35.407  76.217  27.052  0.00  0.00    +0.046 C 
ATOM     26  C   LIG    1      -34.081  76.307  27.753  0.00  0.00    -0.020 A 
ATOM     27  C   LIG    1      -33.075  77.292  27.675  0.00  0.00    +0.128 A 
ATOM     28  N   LIG    1      -31.882  77.096  28.362  0.00  0.00    -0.250 NA
ATOM     29  C   LIG    1      -31.729  75.997  29.145  0.00  0.00    +0.111 A 
ATOM     30  C   LIG    1      -32.704  75.047  29.329  0.00  0.00    +0.020 A 
ATOM     31  C   LIG    1      -33.886  75.219  28.638  0.00  0.00    +0.007 A 
ENDBRANCH  23  27
BRANCH  23  32
ATOM     32  O   LIG    1      -31.973  78.442  25.948  0.00  0.00    -0.491 OA
ATOM     33  H   LIG    1      -31.115  78.284  26.401  0.00  0.00    +0.294 HD
ENDBRANCH  23  32
ENDBRANCH   1  24
TORSDOF 5
ENDMDL
MODEL 6
REMARK VINA RESULT:      -6.2      2.070      4.830
REMARK  Name = pdb/CHEMBL3977511.pdb
REMARK                            x       y       z     vdW  Elec       q    Type
REMARK                         _______ _______ _______ _____ _____    ______ ____
ROOT
ATOM      1  C   LIG    1      -23.851  77.440  30.857  0.00  0.00    +0.190 C 
ATOM      2  C   LIG    1      -22.539  77.525  31.378  0.00  0.00    +0.330 C 
ATOM      3  N   LIG    1      -21.994  78.001  32.540  0.00  0.00    -0.045 NA
ATOM      4  C   LIG    1      -20.679  78.150  32.580  0.00  0.00    +0.312 C 
ATOM      5  C   LIG    1      -19.777  77.637  31.475  0.00  0.00    +0.115 C 
ATOM      6  C   LIG    1      -20.345  77.139  30.398  0.00  0.00    +0.102 C 
ATOM      7  N   LIG    1      -21.720  77.136  30.303  0.00  0.00    -0.201 N 
ATOM      8  N   LIG    1      -22.414  76.913  29.185  0.00  0.00    -0.131 NA
ATOM      9  C   LIG    1      -23.609  77.397  29.495  0.00  0.00    +0.155 C 
ENDROOT
BRANCH   4  10
ATOM     10  N   LIG    1      -20.104  78.822  33.641  0.00  0.00    -0.214 N 
ATOM     11  C   LIG    1      -20.704  78.682  34.978  0.00  0.00    +0.201 C 
ATOM     12  C   LIG    1      -19.536  78.245  35.892  0.00  0.00    +0.056 C 
ATOM     13  C   LIG    1      -18.319  78.084  34.991  0.00  0.00    +0.048 C 
ATOM     14  C   LIG    1      -18.649  78.913  33.768  0.00  0.00    +0.226 C 
BRANCH  11  15
ATOM     15  C   LIG    1      -21.336  79.983  35.428  0.00  0.00    +0.033 A 
ATOM     16  C   LIG    1      -22.723  80.158  35.339  0.00  0.00    +0.131 A 
ATOM     17  F   LIG    1      -23.486  79.182  34.828  0.00  0.00    -0.205 F 
ATOM     18  C   LIG    1      -23.343  81.327  35.787  0.00  0.00    +0.041 A 
ATOM     19  C   LIG    1      -22.573  82.356  36.322  0.00  0.00    +0.041 A 
ATOM     20  C   LIG    1      -21.193  82.211  36.386  0.00  0.00    +0.124 A 
ATOM     21  F   LIG    1      -20.447  83.199  36.895  0.00  0.00    -0.205 F 
ATOM     22  C   LIG    1      -20.575  81.048  35.941  0.00  0.00    +0.048 A 
ENDBRANCH  11  15
ENDBRANCH   4  10
BRANCH   1  24
ATOM     23  C   LIG    1      -25.937  76.780  31.840  0.00  0.00    +0.235 C 
ATOM     24  N   LIG    1      -25.030  77.671  31.501  0.00  0.00    -0.231 NA
BRANCH  23  27
ATOM     25  C   LIG    1      -23.847  74.162  31.114  0.00  0.00    +0.046 C 
ATOM     26  C   LIG    1      -25.312  74.175  31.452  0.00  0.00    -0.020 A 
ATOM     27  C   LIG    1      -26.167  75.255  31.753  0.00  0.00    +0.128 A 
ATOM     28  N   LIG    1      -27.480  74.994  32.129  0.00  0.00    -0.250 NA
ATOM     29  C   LIG    1      -27.935  73.715  32.139  0.00  0.00    +0.111 A 
ATOM     30  C   LIG    1      -27.176  72.630  31.774  0.00  0.00    +0.020 A 
ATOM     31  C   LIG    1      -25.865  72.872  31.417  0.00  0.00    +0.007 A 
ENDBRANCH  23  27
BRANCH  23  32
ATOM     32  O   LIG    1      -27.076  77.343  32.332  0.00  0.00    -0.491 OA
ATOM     33  H   LIG    1      -26.966  78.319  32.385  0.00  0.00    +0.294 HD
ENDBRANCH  23  32
ENDBRANCH   1  24
TORSDOF 5
ENDMDL
MODEL 7
REMARK VINA RESULT:      -6.1      2.457      5.793
REMARK  Name = pdb/CHEMBL3977511.pdb
REMARK                            x       y       z     vdW  Elec       q    Type
REMARK                         _______ _______ _______ _____ _____    ______ ____
ROOT
ATOM      1  C   LIG    1      -23.804  81.058  35.896  0.00  0.00    +0.190 C 
ATOM      2  C   LIG    1      -24.056  79.883  35.151  0.00  0.00    +0.330 C 
ATOM      3  N   LIG    1      -23.526  79.332  34.015  0.00  0.00    -0.045 NA
ATOM      4  C   LIG    1      -24.191  78.333  33.456  0.00  0.00    +0.312 C 
ATOM      5  C   LIG    1      -25.380  77.679  34.132  0.00  0.00    +0.115 C 
ATOM      6  C   LIG    1      -25.822  78.212  35.250  0.00  0.00    +0.102 C 
ATOM      7  N   LIG    1      -25.217  79.350  35.738  0.00  0.00    -0.201 N 
ATOM      8  N   LIG    1      -25.715  80.137  36.694  0.00  0.00    -0.131 NA
ATOM      9  C   LIG    1      -25.018  81.253  36.531  0.00  0.00    +0.155 C 
ENDROOT
BRANCH   4  10
ATOM     10  N   LIG    1      -23.818  77.886  32.203  0.00  0.00    -0.214 N 
ATOM     11  C   LIG    1      -23.334  76.504  32.058  0.00  0.00    +0.201 C 
ATOM     12  C   LIG    1      -24.209  75.894  30.939  0.00  0.00    +0.056 C 
ATOM     13  C   LIG    1      -25.219  76.965  30.547  0.00  0.00    +0.048 C 
ATOM     14  C   LIG    1      -24.588  78.260  31.016  0.00  0.00    +0.226 C 
BRANCH  11  15
ATOM     15  C   LIG    1      -21.858  76.478  31.717  0.00  0.00    +0.033 A 
ATOM     16  C   LIG    1      -20.914  76.175  32.707  0.00  0.00    +0.131 A 
ATOM     17  F   LIG    1      -21.318  75.937  33.963  0.00  0.00    -0.205 F 
ATOM     18  C   LIG    1      -19.550  76.098  32.418  0.00  0.00    +0.041 A 
ATOM     19  C   LIG    1      -19.103  76.342  31.122  0.00  0.00    +0.041 A 
ATOM     20  C   LIG    1      -20.024  76.677  30.137  0.00  0.00    +0.124 A 
ATOM     21  F   LIG    1      -19.600  76.917  28.890  0.00  0.00    -0.205 F 
ATOM     22  C   LIG    1      -21.382  76.753  30.424  0.00  0.00    +0.048 A 
ENDBRANCH  11  15
ENDBRANCH   4  10
BRANCH   1  24
ATOM     23  C   LIG    1      -21.481  81.654  35.831  0.00  0.00    +0.235 C 
ATOM     24  N   LIG    1      -22.765  81.932  35.766  0.00  0.00    -0.231 NA
BRANCH  23  27
ATOM     25  C   LIG    1      -19.945  79.530  33.623  0.00  0.00    +0.046 C 
ATOM     26  C   LIG    1      -19.927  79.554  35.125  0.00  0.00    -0.020 A 
ATOM     27  C   LIG    1      -20.559  80.432  36.030  0.00  0.00    +0.128 A 
ATOM     28  N   LIG    1      -20.307  80.298  37.391  0.00  0.00    -0.250 NA
ATOM     29  C   LIG    1      -19.512  79.289  37.831  0.00  0.00    +0.111 A 
ATOM     30  C   LIG    1      -18.938  78.351  37.008  0.00  0.00    +0.020 A 
ATOM     31  C   LIG    1      -19.163  78.484  35.653  0.00  0.00    +0.007 A 
ENDBRANCH  23  27
BRANCH  23  32
ATOM     32  O   LIG    1      -20.696  82.768  35.819  0.00  0.00    -0.491 OA
ATOM     33  H   LIG    1      -20.470  83.022  36.741  0.00  0.00    +0.294 HD
ENDBRANCH  23  32
ENDBRANCH   1  24
TORSDOF 5
ENDMDL
MODEL 8
REMARK VINA RESULT:      -5.9     12.436     15.635
REMARK  Name = pdb/CHEMBL3977511.pdb
REMARK                            x       y       z     vdW  Elec       q    Type
REMARK                         _______ _______ _______ _____ _____    ______ ____
ROOT
ATOM      1  C   LIG    1      -38.956  78.230  26.641  0.00  0.00    +0.190 C 
ATOM      2  C   LIG    1      -37.879  78.270  27.557  0.00  0.00    +0.330 C 
ATOM      3  N   LIG    1      -36.517  78.344  27.437  0.00  0.00    -0.045 NA
ATOM      4  C   LIG    1      -35.797  78.101  28.521  0.00  0.00    +0.312 C 
ATOM      5  C   LIG    1      -36.430  77.941  29.889  0.00  0.00    +0.115 C 
ATOM      6  C   LIG    1      -37.743  77.928  29.961  0.00  0.00    +0.102 C 
ATOM      7  N   LIG    1      -38.482  78.024  28.802  0.00  0.00    -0.201 N 
ATOM      8  N   LIG    1      -39.787  77.763  28.696  0.00  0.00    -0.131 NA
ATOM      9  C   LIG    1      -39.936  77.604  27.389  0.00  0.00    +0.155 C 
ENDROOT
BRANCH   4  10
ATOM     10  N   LIG    1      -34.428  77.953  28.408  0.00  0.00    -0.214 N 
ATOM     11  C   LIG    1      -33.898  76.991  27.429  0.00  0.00    +0.201 C 
ATOM     12  C   LIG    1      -32.895  77.804  26.578  0.00  0.00    +0.056 C 
ATOM     13  C   LIG    1      -32.964  79.240  27.083  0.00  0.00    +0.048 C 
ATOM     14  C   LIG    1      -33.542  79.116  28.478  0.00  0.00    +0.226 C 
BRANCH  11  15
ATOM     15  C   LIG    1      -33.245  75.813  28.123  0.00  0.00    +0.033 A 
ATOM     16  C   LIG    1      -32.080  76.002  28.879  0.00  0.00    +0.131 A 
ATOM     17  F   LIG    1      -31.530  77.222  28.961  0.00  0.00    -0.205 F 
ATOM     18  C   LIG    1      -31.477  74.948  29.569  0.00  0.00    +0.041 A 
ATOM     19  C   LIG    1      -32.029  73.671  29.499  0.00  0.00    +0.041 A 
ATOM     20  C   LIG    1      -33.164  73.462  28.727  0.00  0.00    +0.124 A 
ATOM     21  F   LIG    1      -33.696  72.235  28.653  0.00  0.00    -0.205 F 
ATOM     22  C   LIG    1      -33.765  74.510  28.040  0.00  0.00    +0.048 A 
ENDBRANCH  11  15
ENDBRANCH   4  10
BRANCH   1  24
ATOM     23  C   LIG    1      -39.221  77.589  24.344  0.00  0.00    +0.235 C 
ATOM     24  N   LIG    1      -38.926  78.449  25.295  0.00  0.00    -0.231 NA
BRANCH  23  27
ATOM     25  C   LIG    1      -37.850  74.601  25.312  0.00  0.00    +0.046 C 
ATOM     26  C   LIG    1      -39.135  74.895  24.590  0.00  0.00    -0.020 A 
ATOM     27  C   LIG    1      -39.696  76.128  24.196  0.00  0.00    +0.128 A 
ATOM     28  N   LIG    1      -40.960  76.141  23.616  0.00  0.00    -0.250 NA
ATOM     29  C   LIG    1      -41.603  74.969  23.379  0.00  0.00    +0.111 A 
ATOM     30  C   LIG    1      -41.073  73.733  23.661  0.00  0.00    +0.020 A 
ATOM     31  C   LIG    1      -39.828  73.706  24.256  0.00  0.00    +0.007 A 
ENDBRANCH  23  27
BRANCH  23  32
ATOM     32  O   LIG    1      -38.943  78.062  23.097  0.00  0.00    -0.491 OA
ATOM     33  H   LIG    1      -38.231  77.519  22.689  0.00  0.00    +0.294 HD
ENDBRANCH  23  32
ENDBRANCH   1  24
TORSDOF 5
ENDMDL
MODEL 9
REMARK VINA RESULT:      -5.9      2.258      4.912
REMARK  Name = pdb/CHEMBL3977511.pdb
REMARK                            x       y       z     vdW  Elec       q    Type
REMARK                         _______ _______ _______ _____ _____    ______ ____
ROOT
ATOM      1  C   LIG    1      -21.804  77.235  30.259  0.00  0.00    +0.190 C 
ATOM      2  C   LIG    1      -21.321  77.402  31.578  0.00  0.00    +0.330 C 
ATOM      3  N   LIG    1      -21.789  78.027  32.702  0.00  0.00    -0.045 NA
ATOM      4  C   LIG    1      -20.938  78.197  33.702  0.00  0.00    +0.312 C 
ATOM      5  C   LIG    1      -19.561  77.562  33.705  0.00  0.00    +0.115 C 
ATOM      6  C   LIG    1      -19.175  76.925  32.621  0.00  0.00    +0.102 C 
ATOM      7  N   LIG    1      -20.011  76.892  31.527  0.00  0.00    -0.201 N 
ATOM      8  N   LIG    1      -19.654  76.522  30.295  0.00  0.00    -0.131 NA
ATOM      9  C   LIG    1      -20.632  77.025  29.555  0.00  0.00    +0.155 C 
ENDROOT
BRANCH   4  10
ATOM     10  N   LIG    1      -21.293  79.004  34.766  0.00  0.00    -0.214 N 
ATOM     11  C   LIG    1      -21.611  78.375  36.058  0.00  0.00    +0.201 C 
ATOM     12  C   LIG    1      -20.704  79.096  37.081  0.00  0.00    +0.056 C 
ATOM     13  C   LIG    1      -19.844  80.071  36.287  0.00  0.00    +0.048 C 
ATOM     14  C   LIG    1      -20.611  80.278  34.998  0.00  0.00    +0.226 C 
BRANCH  11  15
ATOM     15  C   LIG    1      -23.083  78.520  36.386  0.00  0.00    +0.033 A 
ATOM     16  C   LIG    1      -23.823  77.406  36.801  0.00  0.00    +0.131 A 
ATOM     17  F   LIG    1      -23.231  76.205  36.878  0.00  0.00    -0.205 F 
ATOM     18  C   LIG    1      -25.169  77.512  37.155  0.00  0.00    +0.041 A 
ATOM     19  C   LIG    1      -25.807  78.748  37.082  0.00  0.00    +0.041 A 
ATOM     20  C   LIG    1      -25.095  79.856  36.641  0.00  0.00    +0.124 A 
ATOM     21  F   LIG    1      -25.705  81.046  36.565  0.00  0.00    -0.205 F 
ATOM     22  C   LIG    1      -23.754  79.751  36.289  0.00  0.00    +0.048 A 
ENDBRANCH  11  15
ENDBRANCH   4  10
BRANCH   1  24
ATOM     23  C   LIG    1      -24.200  77.107  30.239  0.00  0.00    +0.235 C 
ATOM     24  N   LIG    1      -23.044  77.529  29.773  0.00  0.00    -0.231 NA
BRANCH  23  27
ATOM     25  C   LIG    1      -25.239  77.840  33.422  0.00  0.00    +0.046 C 
ATOM     26  C   LIG    1      -25.174  76.525  32.697  0.00  0.00    -0.020 A 
ATOM     27  C   LIG    1      -24.747  76.230  31.385  0.00  0.00    +0.128 A 
ATOM     28  N   LIG    1      -24.873  74.928  30.911  0.00  0.00    -0.250 NA
ATOM     29  C   LIG    1      -25.340  73.955  31.734  0.00  0.00    +0.111 A 
ATOM     30  C   LIG    1      -25.690  74.163  33.046  0.00  0.00    +0.020 A 
ATOM     31  C   LIG    1      -25.589  75.454  33.524  0.00  0.00    +0.007 A 
ENDBRANCH  23  27
BRANCH  23  32
ATOM     32  O   LIG    1      -25.250  77.448  29.441  0.00  0.00    -0.491 OA
ATOM     33  H   LIG    1      -25.667  76.634  29.078  0.00  0.00    +0.294 HD
ENDBRANCH  23  32
ENDBRANCH   1  24
TORSDOF 5
ENDMDL
