MODEL 1
REMARK VINA RESULT:      -6.2      0.000      0.000
REMARK  Name = pdb/CHEMBL3666262.pdb
REMARK                            x       y       z     vdW  Elec       q    Type
REMARK                         _______ _______ _______ _____ _____    ______ ____
ROOT
ATOM      1  C   LIG    1      -21.631  76.494  29.908  0.00  0.00    +0.197 C 
ATOM      2  O   LIG    1      -21.619  76.575  28.684  0.00  0.00    -0.287 OA
ENDROOT
BRANCH   1  10
ATOM      3  N   LIG    1      -24.042  74.443  31.739  0.00  0.00    -0.323 N 
ATOM      4  C   LIG    1      -24.812  75.567  31.525  0.00  0.00    +0.147 A 
ATOM      5  N   LIG    1      -26.089  75.732  31.905  0.00  0.00    -0.197 NA
ATOM      6  C   LIG    1      -26.619  76.895  31.522  0.00  0.00    +0.214 A 
ATOM      7  N   LIG    1      -26.026  77.817  30.752  0.00  0.00    -0.222 NA
ATOM      8  C   LIG    1      -24.737  77.627  30.379  0.00  0.00    +0.126 A 
ATOM      9  C   LIG    1      -24.066  76.474  30.786  0.00  0.00    +0.048 A 
ATOM     10  C   LIG    1      -22.763  75.920  30.623  0.00  0.00    +0.051 A 
ATOM     11  C   LIG    1      -22.756  74.733  31.339  0.00  0.00    +0.100 A 
BRANCH   3  13
ATOM     12  C   LIG    1      -24.641  73.150  33.762  0.00  0.00    +0.036 C 
ATOM     13  C   LIG    1      -24.500  73.124  32.231  0.00  0.00    +0.064 C 
ATOM     14  C   LIG    1      -23.474  72.014  31.868  0.00  0.00    +0.036 C 
BRANCH  13  15
ATOM     15  C   LIG    1      -25.860  72.694  31.612  0.00  0.00    +0.183 C 
BRANCH  15  16
ATOM     16  O   LIG    1      -25.680  71.846  30.477  0.00  0.00    -0.393 OA
ATOM     17  H   LIG    1      -25.613  70.936  30.828  0.00  0.00    +0.209 HD
ENDBRANCH  15  16
ENDBRANCH  13  15
ENDBRANCH   3  13
BRANCH   6  18
ATOM     18  N   LIG    1      -27.923  77.138  31.900  0.00  0.00    -0.327 N 
ATOM     19  H   LIG    1      -27.974  77.398  32.874  0.00  0.00    +0.145 HD
ATOM     20  H   LIG    1      -28.524  76.392  31.581  0.00  0.00    +0.145 HD
ENDBRANCH   6  18
ENDBRANCH   1  10
BRANCH   1  21
ATOM     21  C   LIG    1      -20.443  76.958  30.675  0.00  0.00    +0.042 A 
ATOM     22  C   LIG    1      -20.520  77.850  31.757  0.00  0.00    +0.038 A 
ATOM     23  C   LIG    1      -19.369  78.192  32.477  0.00  0.00    +0.052 A 
ATOM     24  C   LIG    1      -18.187  77.553  32.115  0.00  0.00    +0.134 A 
ATOM     25  N   LIG    1      -18.074  76.709  31.054  0.00  0.00    -0.261 NA
ATOM     26  C   LIG    1      -19.200  76.441  30.350  0.00  0.00    +0.122 A 
BRANCH  23  27
ATOM     27  N   LIG    1      -19.485  79.174  33.493  0.00  0.00    -0.284 N 
ATOM     28  H   LIG    1      -19.421  80.141  33.195  0.00  0.00    +0.155 HD
ATOM     29  C   LIG    1      -19.707  78.940  34.844  0.00  0.00    +0.222 C 
ATOM     30  O   LIG    1      -19.863  77.835  35.354  0.00  0.00    -0.275 OA
BRANCH  29  31
ATOM     31  C   LIG    1      -19.801  80.210  35.684  0.00  0.00    +0.131 C 
BRANCH  31  32
ATOM     32  C   LIG    1      -21.182  80.805  35.885  0.00  0.00    -0.039 A 
ATOM     33  C   LIG    1      -22.353  80.201  35.414  0.00  0.00    +0.005 A 
ATOM     34  C   LIG    1      -23.602  80.799  35.646  0.00  0.00    +0.019 A 
ATOM     35  C   LIG    1      -23.725  81.988  36.345  0.00  0.00    +0.052 A 
ATOM     36  C   LIG    1      -22.540  82.622  36.805  0.00  0.00    +0.019 A 
ATOM     37  C   LIG    1      -21.291  82.028  36.575  0.00  0.00    +0.005 A 
BRANCH  35  38
ATOM     38  C   LIG    1      -25.007  82.593  36.590  0.00  0.00    +0.099 C 
ATOM     39  N   LIG    1      -26.033  83.093  36.766  0.00  0.00    -0.191 NA
ENDBRANCH  35  38
ENDBRANCH  31  32
ENDBRANCH  29  31
ENDBRANCH  23  27
ENDBRANCH   1  21
TORSDOF 10
ENDMDL
MODEL 2
REMARK VINA RESULT:      -6.2     12.076     17.403
REMARK  Name = pdb/CHEMBL3666262.pdb
REMARK                            x       y       z     vdW  Elec       q    Type
REMARK                         _______ _______ _______ _____ _____    ______ ____
ROOT
ATOM      1  C   LIG    1      -34.508  72.579  28.953  0.00  0.00    +0.197 C 
ATOM      2  O   LIG    1      -34.554  72.393  30.165  0.00  0.00    -0.287 OA
ENDROOT
BRANCH   1  10
ATOM      3  N   LIG    1      -33.620  75.940  27.819  0.00  0.00    -0.323 N 
ATOM      4  C   LIG    1      -34.945  75.911  27.435  0.00  0.00    +0.147 A 
ATOM      5  N   LIG    1      -35.616  76.911  26.845  0.00  0.00    -0.197 NA
ATOM      6  C   LIG    1      -36.906  76.641  26.631  0.00  0.00    +0.214 A 
ATOM      7  N   LIG    1      -37.557  75.538  27.023  0.00  0.00    -0.222 NA
ATOM      8  C   LIG    1      -36.856  74.543  27.619  0.00  0.00    +0.126 A 
ATOM      9  C   LIG    1      -35.486  74.695  27.828  0.00  0.00    +0.048 A 
ATOM     10  C   LIG    1      -34.429  73.920  28.389  0.00  0.00    +0.051 A 
ATOM     11  C   LIG    1      -33.277  74.674  28.240  0.00  0.00    +0.100 A 
BRANCH   3  13
ATOM     12  C   LIG    1      -31.564  76.869  28.836  0.00  0.00    +0.036 C 
ATOM     13  C   LIG    1      -32.725  77.120  27.861  0.00  0.00    +0.064 C 
ATOM     14  C   LIG    1      -33.495  78.378  28.351  0.00  0.00    +0.036 C 
BRANCH  13  15
ATOM     15  C   LIG    1      -32.137  77.473  26.465  0.00  0.00    +0.183 C 
BRANCH  15  16
ATOM     16  O   LIG    1      -32.831  78.565  25.860  0.00  0.00    -0.393 OA
ATOM     17  H   LIG    1      -33.772  78.450  26.096  0.00  0.00    +0.209 HD
ENDBRANCH  15  16
ENDBRANCH  13  15
ENDBRANCH   3  13
BRANCH   6  18
ATOM     18  N   LIG    1      -37.650  77.620  26.005  0.00  0.00    -0.327 N 
ATOM     19  H   LIG    1      -38.623  77.357  25.955  0.00  0.00    +0.145 HD
ATOM     20  H   LIG    1      -37.197  77.910  25.150  0.00  0.00    +0.145 HD
ENDBRANCH   6  18
ENDBRANCH   1  10
BRANCH   1  21
ATOM     21  C   LIG    1      -34.490  71.403  28.041  0.00  0.00    +0.042 A 
ATOM     22  C   LIG    1      -35.326  71.280  26.920  0.00  0.00    +0.038 A 
ATOM     23  C   LIG    1      -35.210  70.177  26.066  0.00  0.00    +0.052 A 
ATOM     24  C   LIG    1      -34.192  69.269  26.345  0.00  0.00    +0.134 A 
ATOM     25  N   LIG    1      -33.388  69.344  27.440  0.00  0.00    -0.261 NA
ATOM     26  C   LIG    1      -33.563  70.400  28.270  0.00  0.00    +0.122 A 
BRANCH  23  27
ATOM     27  N   LIG    1      -36.145  70.050  25.008  0.00  0.00    -0.284 N 
ATOM     28  H   LIG    1      -35.829  70.340  24.089  0.00  0.00    +0.155 HD
ATOM     29  C   LIG    1      -37.432  69.538  25.103  0.00  0.00    +0.222 C 
ATOM     30  O   LIG    1      -37.944  69.095  26.127  0.00  0.00    -0.275 OA
BRANCH  29  31
ATOM     31  C   LIG    1      -38.189  69.517  23.779  0.00  0.00    +0.131 C 
BRANCH  31  32
ATOM     32  C   LIG    1      -39.273  70.560  23.586  0.00  0.00    -0.039 A 
ATOM     33  C   LIG    1      -40.437  70.329  22.844  0.00  0.00    +0.005 A 
ATOM     34  C   LIG    1      -41.408  71.335  22.716  0.00  0.00    +0.019 A 
ATOM     35  C   LIG    1      -41.259  72.575  23.313  0.00  0.00    +0.052 A 
ATOM     36  C   LIG    1      -40.069  72.829  24.046  0.00  0.00    +0.019 A 
ATOM     37  C   LIG    1      -39.097  71.827  24.176  0.00  0.00    +0.005 A 
BRANCH  35  38
ATOM     38  C   LIG    1      -42.260  73.601  23.189  0.00  0.00    +0.099 C 
ATOM     39  N   LIG    1      -43.052  74.437  23.108  0.00  0.00    -0.191 NA
ENDBRANCH  35  38
ENDBRANCH  31  32
ENDBRANCH  29  31
ENDBRANCH  23  27
ENDBRANCH   1  21
TORSDOF 10
ENDMDL
MODEL 3
REMARK VINA RESULT:      -6.1     12.078     17.974
REMARK  Name = pdb/CHEMBL3666262.pdb
REMARK                            x       y       z     vdW  Elec       q    Type
REMARK                         _______ _______ _______ _____ _____    ______ ____
ROOT
ATOM      1  C   LIG    1      -34.704  72.416  28.831  0.00  0.00    +0.197 C 
ATOM      2  O   LIG    1      -34.856  72.158  30.021  0.00  0.00    -0.287 OA
ENDROOT
BRANCH   1  10
ATOM      3  N   LIG    1      -33.697  75.816  27.940  0.00  0.00    -0.323 N 
ATOM      4  C   LIG    1      -35.013  75.851  27.526  0.00  0.00    +0.147 A 
ATOM      5  N   LIG    1      -35.643  76.907  26.990  0.00  0.00    -0.197 NA
ATOM      6  C   LIG    1      -36.935  76.689  26.731  0.00  0.00    +0.214 A 
ATOM      7  N   LIG    1      -37.625  75.583  27.036  0.00  0.00    -0.222 NA
ATOM      8  C   LIG    1      -36.966  74.530  27.580  0.00  0.00    +0.126 A 
ATOM      9  C   LIG    1      -35.597  74.628  27.828  0.00  0.00    +0.048 A 
ATOM     10  C   LIG    1      -34.576  73.788  28.358  0.00  0.00    +0.051 A 
ATOM     11  C   LIG    1      -33.399  74.516  28.284  0.00  0.00    +0.100 A 
BRANCH   3  13
ATOM     12  C   LIG    1      -31.594  76.587  28.991  0.00  0.00    +0.036 C 
ATOM     13  C   LIG    1      -32.771  76.964  28.077  0.00  0.00    +0.064 C 
ATOM     14  C   LIG    1      -33.495  78.183  28.714  0.00  0.00    +0.036 C 
BRANCH  13  15
ATOM     15  C   LIG    1      -32.208  77.445  26.710  0.00  0.00    +0.183 C 
BRANCH  15  16
ATOM     16  O   LIG    1      -33.024  78.465  26.131  0.00  0.00    -0.393 OA
ATOM     17  H   LIG    1      -33.745  77.999  25.664  0.00  0.00    +0.209 HD
ENDBRANCH  15  16
ENDBRANCH  13  15
ENDBRANCH   3  13
BRANCH   6  18
ATOM     18  N   LIG    1      -37.637  77.728  26.156  0.00  0.00    -0.327 N 
ATOM     19  H   LIG    1      -38.630  77.553  26.187  0.00  0.00    +0.145 HD
ATOM     20  H   LIG    1      -37.230  77.972  25.263  0.00  0.00    +0.145 HD
ENDBRANCH   6  18
ENDBRANCH   1  10
BRANCH   1  21
ATOM     21  C   LIG    1      -34.609  71.296  27.855  0.00  0.00    +0.042 A 
ATOM     22  C   LIG    1      -35.336  71.253  26.654  0.00  0.00    +0.038 A 
ATOM     23  C   LIG    1      -35.147  70.201  25.749  0.00  0.00    +0.052 A 
ATOM     24  C   LIG    1      -34.166  69.266  26.067  0.00  0.00    +0.134 A 
ATOM     25  N   LIG    1      -33.469  69.263  27.235  0.00  0.00    -0.261 NA
ATOM     26  C   LIG    1      -33.714  70.270  28.109  0.00  0.00    +0.122 A 
BRANCH  23  27
ATOM     27  N   LIG    1      -35.978  70.150  24.602  0.00  0.00    -0.284 N 
ATOM     28  H   LIG    1      -35.714  70.748  23.826  0.00  0.00    +0.155 HD
ATOM     29  C   LIG    1      -37.094  69.342  24.428  0.00  0.00    +0.222 C 
ATOM     30  O   LIG    1      -37.511  68.526  25.246  0.00  0.00    -0.275 OA
BRANCH  29  31
ATOM     31  C   LIG    1      -37.770  69.504  23.071  0.00  0.00    +0.131 C 
BRANCH  31  32
ATOM     32  C   LIG    1      -37.215  68.686  21.920  0.00  0.00    -0.039 A 
ATOM     33  C   LIG    1      -36.259  67.678  22.087  0.00  0.00    +0.005 A 
ATOM     34  C   LIG    1      -35.798  66.949  20.980  0.00  0.00    +0.019 A 
ATOM     35  C   LIG    1      -36.265  67.189  19.699  0.00  0.00    +0.052 A 
ATOM     36  C   LIG    1      -37.217  68.227  19.516  0.00  0.00    +0.019 A 
ATOM     37  C   LIG    1      -37.681  68.958  20.619  0.00  0.00    +0.005 A 
BRANCH  35  38
ATOM     38  C   LIG    1      -35.797  66.433  18.568  0.00  0.00    +0.099 C 
ATOM     39  N   LIG    1      -35.398  65.830  17.667  0.00  0.00    -0.191 NA
ENDBRANCH  35  38
ENDBRANCH  31  32
ENDBRANCH  29  31
ENDBRANCH  23  27
ENDBRANCH   1  21
TORSDOF 10
ENDMDL
MODEL 4
REMARK VINA RESULT:      -5.9     13.689     17.797
REMARK  Name = pdb/CHEMBL3666262.pdb
REMARK                            x       y       z     vdW  Elec       q    Type
REMARK                         _______ _______ _______ _____ _____    ______ ____
ROOT
ATOM      1  C   LIG    1      -39.972  73.203  25.727  0.00  0.00    +0.197 C 
ATOM      2  O   LIG    1      -40.519  73.065  26.817  0.00  0.00    -0.287 OA
ENDROOT
BRANCH   1  10
ATOM      3  N   LIG    1      -40.783  70.653  23.235  0.00  0.00    -0.323 N 
ATOM      4  C   LIG    1      -39.420  70.462  23.324  0.00  0.00    +0.147 A 
ATOM      5  N   LIG    1      -38.708  69.543  22.654  0.00  0.00    -0.197 NA
ATOM      6  C   LIG    1      -37.410  69.533  22.968  0.00  0.00    +0.214 A 
ATOM      7  N   LIG    1      -36.822  70.274  23.916  0.00  0.00    -0.222 NA
ATOM      8  C   LIG    1      -37.564  71.194  24.581  0.00  0.00    +0.126 A 
ATOM      9  C   LIG    1      -38.918  71.334  24.280  0.00  0.00    +0.048 A 
ATOM     10  C   LIG    1      -40.001  72.149  24.722  0.00  0.00    +0.051 A 
ATOM     11  C   LIG    1      -41.096  71.784  23.956  0.00  0.00    +0.100 A 
BRANCH   3  13
ATOM     12  C   LIG    1      -43.199  70.224  22.908  0.00  0.00    +0.036 C 
ATOM     13  C   LIG    1      -41.769  69.775  22.563  0.00  0.00    +0.064 C 
ATOM     14  C   LIG    1      -41.607  68.303  23.033  0.00  0.00    +0.036 C 
BRANCH  13  15
ATOM     15  C   LIG    1      -41.608  69.769  21.016  0.00  0.00    +0.183 C 
BRANCH  15  16
ATOM     16  O   LIG    1      -40.764  68.704  20.577  0.00  0.00    -0.393 OA
ATOM     17  H   LIG    1      -39.884  69.102  20.426  0.00  0.00    +0.209 HD
ENDBRANCH  15  16
ENDBRANCH  13  15
ENDBRANCH   3  13
BRANCH   6  18
ATOM     18  N   LIG    1      -36.616  68.626  22.297  0.00  0.00    -0.327 N 
ATOM     19  H   LIG    1      -35.654  68.702  22.593  0.00  0.00    +0.145 HD
ATOM     20  H   LIG    1      -36.806  68.662  21.306  0.00  0.00    +0.145 HD
ENDBRANCH   6  18
ENDBRANCH   1  10
BRANCH   1  21
ATOM     21  C   LIG    1      -39.300  74.493  25.413  0.00  0.00    +0.042 A 
ATOM     22  C   LIG    1      -38.003  74.815  25.845  0.00  0.00    +0.038 A 
ATOM     23  C   LIG    1      -37.405  76.020  25.456  0.00  0.00    +0.052 A 
ATOM     24  C   LIG    1      -38.124  76.824  24.576  0.00  0.00    +0.134 A 
ATOM     25  N   LIG    1      -39.392  76.555  24.165  0.00  0.00    -0.261 NA
ATOM     26  C   LIG    1      -39.957  75.403  24.603  0.00  0.00    +0.122 A 
BRANCH  23  27
ATOM     27  N   LIG    1      -36.137  76.343  26.003  0.00  0.00    -0.284 N 
ATOM     28  H   LIG    1      -35.358  76.359  25.354  0.00  0.00    +0.155 HD
ATOM     29  C   LIG    1      -35.869  76.669  27.325  0.00  0.00    +0.222 C 
ATOM     30  O   LIG    1      -36.708  76.748  28.219  0.00  0.00    -0.275 OA
BRANCH  29  31
ATOM     31  C   LIG    1      -34.402  76.985  27.600  0.00  0.00    +0.131 C 
BRANCH  31  32
ATOM     32  C   LIG    1      -33.561  75.883  28.214  0.00  0.00    -0.039 A 
ATOM     33  C   LIG    1      -33.887  74.526  28.119  0.00  0.00    +0.005 A 
ATOM     34  C   LIG    1      -33.056  73.555  28.700  0.00  0.00    +0.019 A 
ATOM     35  C   LIG    1      -31.897  73.893  29.376  0.00  0.00    +0.052 A 
ATOM     36  C   LIG    1      -31.571  75.271  29.501  0.00  0.00    +0.019 A 
ATOM     37  C   LIG    1      -32.397  76.243  28.921  0.00  0.00    +0.005 A 
BRANCH  35  38
ATOM     38  C   LIG    1      -31.042  72.895  29.961  0.00  0.00    +0.099 C 
ATOM     39  N   LIG    1      -30.357  72.081  30.409  0.00  0.00    -0.191 NA
ENDBRANCH  35  38
ENDBRANCH  31  32
ENDBRANCH  29  31
ENDBRANCH  23  27
ENDBRANCH   1  21
TORSDOF 10
ENDMDL
MODEL 5
REMARK VINA RESULT:      -5.8     16.792     21.052
REMARK  Name = pdb/CHEMBL3666262.pdb
REMARK                            x       y       z     vdW  Elec       q    Type
REMARK                         _______ _______ _______ _____ _____    ______ ____
ROOT
ATOM      1  C   LIG    1      -39.245  84.058  22.456  0.00  0.00    +0.197 C 
ATOM      2  O   LIG    1      -39.117  84.319  21.264  0.00  0.00    -0.287 OA
ENDROOT
BRANCH   1  10
ATOM      3  N   LIG    1      -38.341  86.790  24.712  0.00  0.00    -0.323 N 
ATOM      4  C   LIG    1      -37.520  85.800  25.210  0.00  0.00    +0.147 A 
ATOM      5  N   LIG    1      -36.652  85.932  26.225  0.00  0.00    -0.197 NA
ATOM      6  C   LIG    1      -35.937  84.832  26.469  0.00  0.00    +0.214 A 
ATOM      7  N   LIG    1      -35.962  83.699  25.754  0.00  0.00    -0.222 NA
ATOM      8  C   LIG    1      -36.847  83.591  24.732  0.00  0.00    +0.126 A 
ATOM      9  C   LIG    1      -37.691  84.660  24.436  0.00  0.00    +0.048 A 
ATOM     10  C   LIG    1      -38.721  84.939  23.491  0.00  0.00    +0.051 A 
ATOM     11  C   LIG    1      -39.181  86.212  23.786  0.00  0.00    +0.100 A 
BRANCH   3  13
ATOM     12  C   LIG    1      -38.878  88.483  26.435  0.00  0.00    +0.036 C 
ATOM     13  C   LIG    1      -38.298  88.235  25.033  0.00  0.00    +0.064 C 
ATOM     14  C   LIG    1      -39.145  89.051  24.017  0.00  0.00    +0.036 C 
BRANCH  13  15
ATOM     15  C   LIG    1      -36.856  88.817  24.981  0.00  0.00    +0.183 C 
BRANCH  15  16
ATOM     16  O   LIG    1      -36.121  88.307  23.867  0.00  0.00    -0.393 OA
ATOM     17  H   LIG    1      -35.255  88.759  23.887  0.00  0.00    +0.209 HD
ENDBRANCH  15  16
ENDBRANCH  13  15
ENDBRANCH   3  13
BRANCH   6  18
ATOM     18  N   LIG    1      -35.041  84.892  27.516  0.00  0.00    -0.327 N 
ATOM     19  H   LIG    1      -35.484  85.248  28.350  0.00  0.00    +0.145 HD
ATOM     20  H   LIG    1      -34.182  85.332  27.216  0.00  0.00    +0.145 HD
ENDBRANCH   6  18
ENDBRANCH   1  10
BRANCH   1  21
ATOM     21  C   LIG    1      -39.989  82.831  22.851  0.00  0.00    +0.042 A 
ATOM     22  C   LIG    1      -39.378  81.579  23.030  0.00  0.00    +0.038 A 
ATOM     23  C   LIG    1      -40.127  80.481  23.469  0.00  0.00    +0.052 A 
ATOM     24  C   LIG    1      -41.463  80.715  23.782  0.00  0.00    +0.134 A 
ATOM     25  N   LIG    1      -42.091  81.906  23.590  0.00  0.00    -0.261 NA
ATOM     26  C   LIG    1      -41.344  82.934  23.117  0.00  0.00    +0.122 A 
BRANCH  23  27
ATOM     27  N   LIG    1      -39.485  79.218  23.534  0.00  0.00    -0.284 N 
ATOM     28  H   LIG    1      -39.075  78.876  22.672  0.00  0.00    +0.155 HD
ATOM     29  C   LIG    1      -39.338  78.426  24.665  0.00  0.00    +0.222 C 
ATOM     30  O   LIG    1      -39.728  78.722  25.791  0.00  0.00    -0.275 OA
BRANCH  29  31
ATOM     31  C   LIG    1      -38.582  77.125  24.416  0.00  0.00    +0.131 C 
BRANCH  31  32
ATOM     32  C   LIG    1      -39.411  75.873  24.207  0.00  0.00    -0.039 A 
ATOM     33  C   LIG    1      -38.958  74.590  24.530  0.00  0.00    +0.005 A 
ATOM     34  C   LIG    1      -39.783  73.473  24.324  0.00  0.00    +0.019 A 
ATOM     35  C   LIG    1      -41.061  73.593  23.805  0.00  0.00    +0.052 A 
ATOM     36  C   LIG    1      -41.521  74.890  23.450  0.00  0.00    +0.019 A 
ATOM     37  C   LIG    1      -40.701  76.007  23.655  0.00  0.00    +0.005 A 
BRANCH  35  38
ATOM     38  C   LIG    1      -41.909  72.448  23.604  0.00  0.00    +0.099 C 
ATOM     39  N   LIG    1      -42.575  71.523  23.422  0.00  0.00    -0.191 NA
ENDBRANCH  35  38
ENDBRANCH  31  32
ENDBRANCH  29  31
ENDBRANCH  23  27
ENDBRANCH   1  21
TORSDOF 10
ENDMDL
MODEL 6
REMARK VINA RESULT:      -5.8     12.439     17.134
REMARK  Name = pdb/CHEMBL3666262.pdb
REMARK                            x       y       z     vdW  Elec       q    Type
REMARK                         _______ _______ _______ _____ _____    ______ ____
ROOT
ATOM      1  C   LIG    1      -34.944  74.261  29.840  0.00  0.00    +0.197 C 
ATOM      2  O   LIG    1      -34.671  74.056  31.018  0.00  0.00    -0.287 OA
ENDROOT
BRANCH   1  10
ATOM      3  N   LIG    1      -35.951  77.627  28.826  0.00  0.00    -0.323 N 
ATOM      4  C   LIG    1      -34.735  77.547  28.180  0.00  0.00    +0.147 A 
ATOM      5  N   LIG    1      -34.194  78.495  27.400  0.00  0.00    -0.197 NA
ATOM      6  C   LIG    1      -33.031  78.139  26.848  0.00  0.00    +0.214 A 
ATOM      7  N   LIG    1      -32.448  76.937  26.944  0.00  0.00    -0.222 NA
ATOM      8  C   LIG    1      -33.016  75.995  27.736  0.00  0.00    +0.126 A 
ATOM      9  C   LIG    1      -34.198  76.288  28.415  0.00  0.00    +0.048 A 
ATOM     10  C   LIG    1      -35.076  75.612  29.312  0.00  0.00    +0.051 A 
ATOM     11  C   LIG    1      -36.068  76.522  29.640  0.00  0.00    +0.100 A 
BRANCH   3  13
ATOM     12  C   LIG    1      -38.144  78.436  29.642  0.00  0.00    +0.036 C 
ATOM     13  C   LIG    1      -36.999  78.657  28.640  0.00  0.00    +0.064 C 
ATOM     14  C   LIG    1      -37.599  78.580  27.208  0.00  0.00    +0.036 C 
BRANCH  13  15
ATOM     15  C   LIG    1      -36.454  80.103  28.817  0.00  0.00    +0.183 C 
BRANCH  15  16
ATOM     16  O   LIG    1      -36.337  80.781  27.565  0.00  0.00    -0.393 OA
ATOM     17  H   LIG    1      -36.532  81.721  27.749  0.00  0.00    +0.209 HD
ENDBRANCH  15  16
ENDBRANCH  13  15
ENDBRANCH   3  13
BRANCH   6  18
ATOM     18  N   LIG    1      -32.408  79.077  26.052  0.00  0.00    -0.327 N 
ATOM     19  H   LIG    1      -33.060  79.489  25.401  0.00  0.00    +0.145 HD
ATOM     20  H   LIG    1      -31.546  78.703  25.681  0.00  0.00    +0.145 HD
ENDBRANCH   6  18
ENDBRANCH   1  10
BRANCH   1  21
ATOM     21  C   LIG    1      -35.106  73.100  28.922  0.00  0.00    +0.042 A 
ATOM     22  C   LIG    1      -36.199  72.946  28.055  0.00  0.00    +0.038 A 
ATOM     23  C   LIG    1      -36.254  71.863  27.169  0.00  0.00    +0.052 A 
ATOM     24  C   LIG    1      -35.153  71.012  27.147  0.00  0.00    +0.134 A 
ATOM     25  N   LIG    1      -34.094  71.117  27.995  0.00  0.00    -0.261 NA
ATOM     26  C   LIG    1      -34.100  72.150  28.873  0.00  0.00    +0.122 A 
BRANCH  23  27
ATOM     27  N   LIG    1      -37.426  71.698  26.388  0.00  0.00    -0.284 N 
ATOM     28  H   LIG    1      -38.308  71.732  26.887  0.00  0.00    +0.155 HD
ATOM     29  C   LIG    1      -37.481  71.527  25.012  0.00  0.00    +0.222 C 
ATOM     30  O   LIG    1      -36.511  71.519  24.260  0.00  0.00    -0.275 OA
BRANCH  29  31
ATOM     31  C   LIG    1      -38.898  71.393  24.461  0.00  0.00    +0.131 C 
BRANCH  31  32
ATOM     32  C   LIG    1      -39.656  72.678  24.187  0.00  0.00    -0.039 A 
ATOM     33  C   LIG    1      -40.915  72.710  23.577  0.00  0.00    +0.005 A 
ATOM     34  C   LIG    1      -41.569  73.934  23.365  0.00  0.00    +0.019 A 
ATOM     35  C   LIG    1      -41.008  75.139  23.749  0.00  0.00    +0.052 A 
ATOM     36  C   LIG    1      -39.719  75.119  24.346  0.00  0.00    +0.019 A 
ATOM     37  C   LIG    1      -39.063  73.899  24.560  0.00  0.00    +0.005 A 
BRANCH  35  38
ATOM     38  C   LIG    1      -41.685  76.391  23.540  0.00  0.00    +0.099 C 
ATOM     39  N   LIG    1      -42.207  77.406  23.364  0.00  0.00    -0.191 NA
ENDBRANCH  35  38
ENDBRANCH  31  32
ENDBRANCH  29  31
ENDBRANCH  23  27
ENDBRANCH   1  21
TORSDOF 10
ENDMDL
MODEL 7
REMARK VINA RESULT:      -5.8     18.597     20.722
REMARK  Name = pdb/CHEMBL3666262.pdb
REMARK                            x       y       z     vdW  Elec       q    Type
REMARK                         _______ _______ _______ _____ _____    ______ ____
ROOT
ATOM      1  C   LIG    1      -34.800  65.711  21.356  0.00  0.00    +0.197 C 
ATOM      2  O   LIG    1      -34.939  64.917  22.281  0.00  0.00    -0.287 OA
ENDROOT
BRANCH   1  10
ATOM      3  N   LIG    1      -31.962  66.114  19.085  0.00  0.00    -0.323 N 
ATOM      4  C   LIG    1      -32.294  64.804  18.808  0.00  0.00    +0.147 A 
ATOM      5  N   LIG    1      -31.688  64.011  17.911  0.00  0.00    -0.197 NA
ATOM      6  C   LIG    1      -32.245  62.803  17.797  0.00  0.00    +0.214 A 
ATOM      7  N   LIG    1      -33.356  62.385  18.417  0.00  0.00    -0.222 NA
ATOM      8  C   LIG    1      -33.951  63.206  19.317  0.00  0.00    +0.126 A 
ATOM      9  C   LIG    1      -33.409  64.467  19.562  0.00  0.00    +0.048 A 
ATOM     10  C   LIG    1      -33.710  65.582  20.398  0.00  0.00    +0.051 A 
ATOM     11  C   LIG    1      -32.716  66.518  20.165  0.00  0.00    +0.100 A 
BRANCH   3  13
ATOM     12  C   LIG    1      -31.284  68.459  18.674  0.00  0.00    +0.036 C 
ATOM     13  C   LIG    1      -31.030  66.982  18.329  0.00  0.00    +0.064 C 
ATOM     14  C   LIG    1      -31.237  66.809  16.798  0.00  0.00    +0.036 C 
BRANCH  13  15
ATOM     15  C   LIG    1      -29.538  66.652  18.617  0.00  0.00    +0.183 C 
BRANCH  15  16
ATOM     16  O   LIG    1      -29.302  66.449  20.011  0.00  0.00    -0.393 OA
ATOM     17  H   LIG    1      -28.890  65.566  20.088  0.00  0.00    +0.209 HD
ENDBRANCH  15  16
ENDBRANCH  13  15
ENDBRANCH   3  13
BRANCH   6  18
ATOM     18  N   LIG    1      -31.656  61.928  16.908  0.00  0.00    -0.327 N 
ATOM     19  H   LIG    1      -31.438  62.391  16.037  0.00  0.00    +0.145 HD
ATOM     20  H   LIG    1      -32.183  61.068  16.864  0.00  0.00    +0.145 HD
ENDBRANCH   6  18
ENDBRANCH   1  10
BRANCH   1  21
ATOM     21  C   LIG    1      -35.793  66.806  21.188  0.00  0.00    +0.042 A 
ATOM     22  C   LIG    1      -36.005  67.812  22.144  0.00  0.00    +0.038 A 
ATOM     23  C   LIG    1      -36.908  68.852  21.891  0.00  0.00    +0.052 A 
ATOM     24  C   LIG    1      -37.511  68.871  20.636  0.00  0.00    +0.134 A 
ATOM     25  N   LIG    1      -37.349  67.896  19.701  0.00  0.00    -0.261 NA
ATOM     26  C   LIG    1      -36.505  66.879  20.002  0.00  0.00    +0.122 A 
BRANCH  23  27
ATOM     27  N   LIG    1      -37.162  69.783  22.929  0.00  0.00    -0.284 N 
ATOM     28  H   LIG    1      -36.532  70.576  22.988  0.00  0.00    +0.155 HD
ATOM     29  C   LIG    1      -38.203  69.731  23.846  0.00  0.00    +0.222 C 
ATOM     30  O   LIG    1      -39.080  68.872  23.874  0.00  0.00    -0.275 OA
BRANCH  29  31
ATOM     31  C   LIG    1      -38.218  70.894  24.833  0.00  0.00    +0.131 C 
BRANCH  31  32
ATOM     32  C   LIG    1      -39.075  72.093  24.475  0.00  0.00    -0.039 A 
ATOM     33  C   LIG    1      -38.706  73.413  24.758  0.00  0.00    +0.005 A 
ATOM     34  C   LIG    1      -39.541  74.478  24.387  0.00  0.00    +0.019 A 
ATOM     35  C   LIG    1      -40.742  74.272  23.731  0.00  0.00    +0.052 A 
ATOM     36  C   LIG    1      -41.139  72.934  23.462  0.00  0.00    +0.019 A 
ATOM     37  C   LIG    1      -40.308  71.867  23.831  0.00  0.00    +0.005 A 
BRANCH  35  38
ATOM     38  C   LIG    1      -41.591  75.367  23.342  0.00  0.00    +0.099 C 
ATOM     39  N   LIG    1      -42.290  76.228  23.022  0.00  0.00    -0.191 NA
ENDBRANCH  35  38
ENDBRANCH  31  32
ENDBRANCH  29  31
ENDBRANCH  23  27
ENDBRANCH   1  21
TORSDOF 10
ENDMDL
MODEL 8
REMARK VINA RESULT:      -5.8     11.820     16.121
REMARK  Name = pdb/CHEMBL3666262.pdb
REMARK                            x       y       z     vdW  Elec       q    Type
REMARK                         _______ _______ _______ _____ _____    ______ ____
ROOT
ATOM      1  C   LIG    1      -38.875  80.070  28.833  0.00  0.00    +0.197 C 
ATOM      2  O   LIG    1      -39.784  80.158  29.651  0.00  0.00    -0.287 OA
ENDROOT
BRANCH   1  10
ATOM      3  N   LIG    1      -39.420  78.231  25.719  0.00  0.00    -0.323 N 
ATOM      4  C   LIG    1      -39.397  79.518  25.224  0.00  0.00    +0.147 A 
ATOM      5  N   LIG    1      -39.520  79.869  23.935  0.00  0.00    -0.197 NA
ATOM      6  C   LIG    1      -39.404  81.182  23.720  0.00  0.00    +0.214 A 
ATOM      7  N   LIG    1      -39.101  82.108  24.640  0.00  0.00    -0.222 NA
ATOM      8  C   LIG    1      -38.979  81.728  25.935  0.00  0.00    +0.126 A 
ATOM      9  C   LIG    1      -39.151  80.387  26.279  0.00  0.00    +0.048 A 
ATOM     10  C   LIG    1      -39.116  79.608  27.472  0.00  0.00    +0.051 A 
ATOM     11  C   LIG    1      -39.418  78.310  27.094  0.00  0.00    +0.100 A 
BRANCH   3  13
ATOM     12  C   LIG    1      -40.481  76.968  23.874  0.00  0.00    +0.036 C 
ATOM     13  C   LIG    1      -39.374  76.971  24.942  0.00  0.00    +0.064 C 
ATOM     14  C   LIG    1      -39.603  75.744  25.867  0.00  0.00    +0.036 C 
BRANCH  13  15
ATOM     15  C   LIG    1      -38.004  76.751  24.240  0.00  0.00    +0.183 C 
BRANCH  15  16
ATOM     16  O   LIG    1      -36.961  76.501  25.184  0.00  0.00    -0.393 OA
ATOM     17  H   LIG    1      -36.162  76.932  24.822  0.00  0.00    +0.209 HD
ENDBRANCH  15  16
ENDBRANCH  13  15
ENDBRANCH   3  13
BRANCH   6  18
ATOM     18  N   LIG    1      -39.544  81.613  22.418  0.00  0.00    -0.327 N 
ATOM     19  H   LIG    1      -40.244  82.337  22.351  0.00  0.00    +0.145 HD
ATOM     20  H   LIG    1      -39.626  80.822  21.795  0.00  0.00    +0.145 HD
ENDBRANCH   6  18
ENDBRANCH   1  10
BRANCH   1  21
ATOM     21  C   LIG    1      -37.502  80.484  29.230  0.00  0.00    +0.042 A 
ATOM     22  C   LIG    1      -36.349  79.750  28.906  0.00  0.00    +0.038 A 
ATOM     23  C   LIG    1      -35.081  80.233  29.253  0.00  0.00    +0.052 A 
ATOM     24  C   LIG    1      -35.028  81.487  29.856  0.00  0.00    +0.134 A 
ATOM     25  N   LIG    1      -36.127  82.206  30.210  0.00  0.00    -0.261 NA
ATOM     26  C   LIG    1      -37.339  81.683  29.902  0.00  0.00    +0.122 A 
BRANCH  23  27
ATOM     27  N   LIG    1      -33.958  79.407  28.995  0.00  0.00    -0.284 N 
ATOM     28  H   LIG    1      -33.628  78.840  29.769  0.00  0.00    +0.155 HD
ATOM     29  C   LIG    1      -33.292  79.277  27.784  0.00  0.00    +0.222 C 
ATOM     30  O   LIG    1      -33.600  79.848  26.742  0.00  0.00    -0.275 OA
BRANCH  29  31
ATOM     31  C   LIG    1      -32.128  78.292  27.821  0.00  0.00    +0.131 C 
BRANCH  31  32
ATOM     32  C   LIG    1      -32.451  76.853  28.175  0.00  0.00    -0.039 A 
ATOM     33  C   LIG    1      -33.511  76.141  27.603  0.00  0.00    +0.005 A 
ATOM     34  C   LIG    1      -33.747  74.806  27.966  0.00  0.00    +0.019 A 
ATOM     35  C   LIG    1      -32.951  74.147  28.887  0.00  0.00    +0.052 A 
ATOM     36  C   LIG    1      -31.888  74.868  29.493  0.00  0.00    +0.019 A 
ATOM     37  C   LIG    1      -31.649  76.202  29.133  0.00  0.00    +0.005 A 
BRANCH  35  38
ATOM     38  C   LIG    1      -33.188  72.775  29.250  0.00  0.00    +0.099 C 
ATOM     39  N   LIG    1      -33.401  71.681  29.553  0.00  0.00    -0.191 NA
ENDBRANCH  35  38
ENDBRANCH  31  32
ENDBRANCH  29  31
ENDBRANCH  23  27
ENDBRANCH   1  21
TORSDOF 10
ENDMDL
MODEL 9
REMARK VINA RESULT:      -5.7     12.668     16.968
REMARK  Name = pdb/CHEMBL3666262.pdb
REMARK                            x       y       z     vdW  Elec       q    Type
REMARK                         _______ _______ _______ _____ _____    ______ ____
ROOT
ATOM      1  C   LIG    1      -39.723  72.898  25.269  0.00  0.00    +0.197 C 
ATOM      2  O   LIG    1      -40.775  72.711  25.872  0.00  0.00    -0.287 OA
ENDROOT
BRANCH   1  10
ATOM      3  N   LIG    1      -38.473  70.078  23.306  0.00  0.00    -0.323 N 
ATOM      4  C   LIG    1      -37.459  70.177  24.236  0.00  0.00    +0.147 A 
ATOM      5  N   LIG    1      -36.381  69.381  24.314  0.00  0.00    -0.197 NA
ATOM      6  C   LIG    1      -35.581  69.658  25.346  0.00  0.00    +0.214 A 
ATOM      7  N   LIG    1      -35.815  70.565  26.304  0.00  0.00    -0.222 NA
ATOM      8  C   LIG    1      -36.912  71.355  26.204  0.00  0.00    +0.126 A 
ATOM      9  C   LIG    1      -37.779  71.194  25.124  0.00  0.00    +0.048 A 
ATOM     10  C   LIG    1      -38.986  71.797  24.662  0.00  0.00    +0.051 A 
ATOM     11  C   LIG    1      -39.302  71.165  23.471  0.00  0.00    +0.100 A 
BRANCH   3  13
ATOM     12  C   LIG    1      -37.579  68.944  21.295  0.00  0.00    +0.036 C 
ATOM     13  C   LIG    1      -38.703  68.974  22.345  0.00  0.00    +0.064 C 
ATOM     14  C   LIG    1      -40.050  69.168  21.594  0.00  0.00    +0.036 C 
BRANCH  13  15
ATOM     15  C   LIG    1      -38.775  67.583  23.037  0.00  0.00    +0.183 C 
BRANCH  15  16
ATOM     16  O   LIG    1      -37.529  66.889  22.961  0.00  0.00    -0.393 OA
ATOM     17  H   LIG    1      -37.744  65.983  22.663  0.00  0.00    +0.209 HD
ENDBRANCH  15  16
ENDBRANCH  13  15
ENDBRANCH   3  13
BRANCH   6  18
ATOM     18  N   LIG    1      -34.441  68.892  25.472  0.00  0.00    -0.327 N 
ATOM     19  H   LIG    1      -34.577  68.151  26.143  0.00  0.00    +0.145 HD
ATOM     20  H   LIG    1      -33.632  69.487  25.586  0.00  0.00    +0.145 HD
ENDBRANCH   6  18
ENDBRANCH   1  10
BRANCH   1  21
ATOM     21  C   LIG    1      -39.210  74.287  25.122  0.00  0.00    +0.042 A 
ATOM     22  C   LIG    1      -37.945  74.697  25.575  0.00  0.00    +0.038 A 
ATOM     23  C   LIG    1      -37.499  76.004  25.344  0.00  0.00    +0.052 A 
ATOM     24  C   LIG    1      -38.330  76.829  24.590  0.00  0.00    +0.134 A 
ATOM     25  N   LIG    1      -39.572  76.471  24.165  0.00  0.00    -0.261 NA
ATOM     26  C   LIG    1      -39.990  75.214  24.451  0.00  0.00    +0.122 A 
BRANCH  23  27
ATOM     27  N   LIG    1      -36.260  76.397  25.910  0.00  0.00    -0.284 N 
ATOM     28  H   LIG    1      -35.481  76.493  25.268  0.00  0.00    +0.155 HD
ATOM     29  C   LIG    1      -36.022  76.691  27.246  0.00  0.00    +0.222 C 
ATOM     30  O   LIG    1      -36.868  76.676  28.136  0.00  0.00    -0.275 OA
BRANCH  29  31
ATOM     31  C   LIG    1      -34.583  77.102  27.542  0.00  0.00    +0.131 C 
BRANCH  31  32
ATOM     32  C   LIG    1      -33.684  76.060  28.179  0.00  0.00    -0.039 A 
ATOM     33  C   LIG    1      -33.941  74.685  28.119  0.00  0.00    +0.005 A 
ATOM     34  C   LIG    1      -33.059  73.773  28.719  0.00  0.00    +0.019 A 
ATOM     35  C   LIG    1      -31.916  74.186  29.380  0.00  0.00    +0.052 A 
ATOM     36  C   LIG    1      -31.659  75.581  29.469  0.00  0.00    +0.019 A 
ATOM     37  C   LIG    1      -32.537  76.496  28.870  0.00  0.00    +0.005 A 
BRANCH  35  38
ATOM     38  C   LIG    1      -31.009  73.248  29.985  0.00  0.00    +0.099 C 
ATOM     39  N   LIG    1      -30.299  72.489  30.489  0.00  0.00    -0.191 NA
ENDBRANCH  35  38
ENDBRANCH  31  32
ENDBRANCH  29  31
ENDBRANCH  23  27
ENDBRANCH   1  21
TORSDOF 10
ENDMDL
