MODEL 1
REMARK VINA RESULT:      -5.5      0.000      0.000
REMARK  Name = pdb/CHEMBL3678286.pdb
REMARK                            x       y       z     vdW  Elec       q    Type
REMARK                         _______ _______ _______ _____ _____    ______ ____
ROOT
ATOM      1  C   LIG    1      -21.464  75.285  31.544  0.00  0.00    +0.162 A 
ATOM      2  C   LIG    1      -20.613  75.895  30.610  0.00  0.00    +0.162 A 
ATOM      3  C   LIG    1      -21.145  76.799  29.683  0.00  0.00    +0.050 A 
ATOM      4  C   LIG    1      -22.504  77.069  29.651  0.00  0.00    +0.009 A 
ATOM      5  C   LIG    1      -23.367  76.488  30.582  0.00  0.00    -0.024 A 
ATOM      6  C   LIG    1      -22.835  75.592  31.522  0.00  0.00    +0.054 A 
ENDROOT
BRANCH   1   8
ATOM      7  C   LIG    1      -20.947  74.971  33.859  0.00  0.00    +0.277 C 
ATOM      8  O   LIG    1      -21.114  74.428  32.556  0.00  0.00    -0.491 OA
ENDBRANCH   1   8
BRANCH   2   9
ATOM      9  O   LIG    1      -19.270  75.639  30.647  0.00  0.00    -0.484 OA
BRANCH   9  10
ATOM     10  C   LIG    1      -18.437  76.795  30.671  0.00  0.00    +0.264 C 
BRANCH  10  11
ATOM     11  C   LIG    1      -18.579  77.438  32.018  0.00  0.00    -0.010 A 
ATOM     12  C   LIG    1      -19.315  78.621  32.146  0.00  0.00    +0.007 A 
ATOM     13  C   LIG    1      -19.458  79.224  33.392  0.00  0.00    +0.004 A 
ATOM     14  C   LIG    1      -18.868  78.651  34.527  0.00  0.00    -0.039 A 
ATOM     15  C   LIG    1      -18.111  77.480  34.390  0.00  0.00    +0.004 A 
ATOM     16  C   LIG    1      -17.962  76.881  33.142  0.00  0.00    +0.007 A 
BRANCH  14  17
ATOM     17  C   LIG    1      -19.019  79.300  35.878  0.00  0.00    +0.148 C 
BRANCH  17  18
ATOM     18  C   LIG    1      -20.451  79.579  36.313  0.00  0.00    +0.394 C 
ATOM     19  F   LIG    1      -20.507  79.747  37.657  0.00  0.00    -0.170 F 
ATOM     20  F   LIG    1      -21.255  78.533  36.008  0.00  0.00    -0.170 F 
ATOM     21  F   LIG    1      -20.998  80.678  35.754  0.00  0.00    -0.170 F 
ENDBRANCH  17  18
ENDBRANCH  14  17
ENDBRANCH  10  11
ENDBRANCH   9  10
ENDBRANCH   2   9
BRANCH   5  22
ATOM     22  C   LIG    1      -24.825  76.882  30.585  0.00  0.00    +0.161 C 
BRANCH  22  23
ATOM     23  N   LIG    1      -25.376  76.980  31.922  0.00  0.00    -0.293 N 
ATOM     24  C   LIG    1      -24.937  77.850  32.891  0.00  0.00    +0.162 A 
ATOM     25  N   LIG    1      -23.936  78.749  32.807  0.00  0.00    -0.235 NA
ATOM     26  C   LIG    1      -23.763  79.432  33.974  0.00  0.00    +0.121 A 
ATOM     27  C   LIG    1      -24.499  79.271  35.156  0.00  0.00    +0.005 A 
ATOM     28  C   LIG    1      -25.527  78.320  35.161  0.00  0.00    +0.041 A 
ATOM     29  C   LIG    1      -25.744  77.588  33.992  0.00  0.00    +0.110 A 
ATOM     30  N   LIG    1      -26.641  76.590  33.717  0.00  0.00    -0.213 NA
ATOM     31  C   LIG    1      -26.371  76.214  32.499  0.00  0.00    +0.195 A 
BRANCH  27  32
ATOM     32  C   LIG    1      -24.206  80.056  36.341  0.00  0.00    +0.021 A 
ATOM     33  C   LIG    1      -24.192  81.436  36.391  0.00  0.00    +0.116 A 
ATOM     34  N   LIG    1      -23.882  81.774  37.676  0.00  0.00    -0.274 N 
ATOM     35  C   LIG    1      -23.773  83.110  38.210  0.00  0.00    +0.172 C 
ATOM     36  N   LIG    1      -23.700  80.710  38.479  0.00  0.00    -0.179 NA
ATOM     37  C   LIG    1      -23.890  79.668  37.664  0.00  0.00    +0.143 A 
ENDBRANCH  27  32
BRANCH  31  38
ATOM     38  N   LIG    1      -26.983  75.191  31.865  0.00  0.00    -0.329 N 
ATOM     39  H   LIG    1      -27.068  74.376  32.467  0.00  0.00    +0.145 HD
ATOM     40  H   LIG    1      -26.548  74.900  30.999  0.00  0.00    +0.145 HD
ENDBRANCH  31  38
ENDBRANCH  22  23
ENDBRANCH   5  22
TORSDOF 10
ENDMDL
MODEL 2
REMARK VINA RESULT:      -5.5     18.577     21.292
REMARK  Name = pdb/CHEMBL3678286.pdb
REMARK                            x       y       z     vdW  Elec       q    Type
REMARK                         _______ _______ _______ _____ _____    ______ ____
ROOT
ATOM      1  C   LIG    1      -36.247  68.311  23.658  0.00  0.00    +0.162 A 
ATOM      2  C   LIG    1      -37.175  69.312  23.337  0.00  0.00    +0.162 A 
ATOM      3  C   LIG    1      -37.833  69.270  22.102  0.00  0.00    +0.050 A 
ATOM      4  C   LIG    1      -37.551  68.275  21.179  0.00  0.00    +0.009 A 
ATOM      5  C   LIG    1      -36.645  67.257  21.484  0.00  0.00    -0.024 A 
ATOM      6  C   LIG    1      -35.994  67.289  22.726  0.00  0.00    +0.054 A 
ENDROOT
BRANCH   1   8
ATOM      7  C   LIG    1      -34.907  66.915  25.066  0.00  0.00    +0.277 C 
ATOM      8  O   LIG    1      -35.557  68.158  24.833  0.00  0.00    -0.491 OA
ENDBRANCH   1   8
BRANCH   2   9
ATOM      9  O   LIG    1      -37.463  70.288  24.250  0.00  0.00    -0.484 OA
BRANCH   9  10
ATOM     10  C   LIG    1      -38.853  70.522  24.463  0.00  0.00    +0.264 C 
BRANCH  10  11
ATOM     11  C   LIG    1      -39.079  72.004  24.442  0.00  0.00    -0.010 A 
ATOM     12  C   LIG    1      -40.241  72.518  23.855  0.00  0.00    +0.007 A 
ATOM     13  C   LIG    1      -40.465  73.892  23.834  0.00  0.00    +0.004 A 
ATOM     14  C   LIG    1      -39.530  74.769  24.400  0.00  0.00    -0.039 A 
ATOM     15  C   LIG    1      -38.356  74.252  24.963  0.00  0.00    +0.004 A 
ATOM     16  C   LIG    1      -38.130  72.878  24.978  0.00  0.00    +0.007 A 
BRANCH  14  17
ATOM     17  C   LIG    1      -39.766  76.257  24.379  0.00  0.00    +0.148 C 
BRANCH  17  18
ATOM     18  C   LIG    1      -38.510  77.118  24.381  0.00  0.00    +0.394 C 
ATOM     19  F   LIG    1      -38.174  77.449  25.652  0.00  0.00    -0.170 F 
ATOM     20  F   LIG    1      -38.724  78.275  23.710  0.00  0.00    -0.170 F 
ATOM     21  F   LIG    1      -37.431  76.528  23.827  0.00  0.00    -0.170 F 
ENDBRANCH  17  18
ENDBRANCH  14  17
ENDBRANCH  10  11
ENDBRANCH   9  10
ENDBRANCH   2   9
BRANCH   5  22
ATOM     22  C   LIG    1      -36.437  66.132  20.497  0.00  0.00    +0.161 C 
BRANCH  22  23
ATOM     23  N   LIG    1      -35.667  66.539  19.339  0.00  0.00    -0.293 N 
ATOM     24  C   LIG    1      -34.296  66.644  19.303  0.00  0.00    +0.162 A 
ATOM     25  N   LIG    1      -33.420  66.411  20.301  0.00  0.00    -0.235 NA
ATOM     26  C   LIG    1      -32.133  66.636  19.914  0.00  0.00    +0.121 A 
ATOM     27  C   LIG    1      -31.700  67.059  18.650  0.00  0.00    +0.005 A 
ATOM     28  C   LIG    1      -32.672  67.274  17.665  0.00  0.00    +0.041 A 
ATOM     29  C   LIG    1      -34.008  67.063  18.010  0.00  0.00    +0.110 A 
ATOM     30  N   LIG    1      -35.155  67.219  17.277  0.00  0.00    -0.213 NA
ATOM     31  C   LIG    1      -36.127  66.947  18.102  0.00  0.00    +0.195 A 
BRANCH  27  32
ATOM     32  C   LIG    1      -30.293  67.276  18.367  0.00  0.00    +0.021 A 
ATOM     33  C   LIG    1      -29.689  68.514  18.265  0.00  0.00    +0.116 A 
ATOM     34  N   LIG    1      -28.371  68.280  18.000  0.00  0.00    -0.274 N 
ATOM     35  C   LIG    1      -27.340  69.276  17.831  0.00  0.00    +0.172 C 
ATOM     36  N   LIG    1      -28.063  66.972  17.931  0.00  0.00    -0.179 NA
ATOM     37  C   LIG    1      -29.233  66.365  18.147  0.00  0.00    +0.143 A 
ENDBRANCH  27  32
BRANCH  31  38
ATOM     38  N   LIG    1      -37.437  67.055  17.795  0.00  0.00    -0.329 N 
ATOM     39  H   LIG    1      -37.591  67.005  16.791  0.00  0.00    +0.145 HD
ATOM     40  H   LIG    1      -37.894  67.888  18.143  0.00  0.00    +0.145 HD
ENDBRANCH  31  38
ENDBRANCH  22  23
ENDBRANCH   5  22
TORSDOF 10
ENDMDL
MODEL 3
REMARK VINA RESULT:      -5.4     17.573     20.072
REMARK  Name = pdb/CHEMBL3678286.pdb
REMARK                            x       y       z     vdW  Elec       q    Type
REMARK                         _______ _______ _______ _____ _____    ______ ____
ROOT
ATOM      1  C   LIG    1      -35.806  67.372  20.204  0.00  0.00    +0.162 A 
ATOM      2  C   LIG    1      -34.583  66.698  20.334  0.00  0.00    +0.162 A 
ATOM      3  C   LIG    1      -34.132  66.329  21.606  0.00  0.00    +0.050 A 
ATOM      4  C   LIG    1      -34.859  66.655  22.741  0.00  0.00    +0.009 A 
ATOM      5  C   LIG    1      -36.088  67.309  22.636  0.00  0.00    -0.024 A 
ATOM      6  C   LIG    1      -36.549  67.668  21.360  0.00  0.00    +0.054 A 
ENDROOT
BRANCH   1   8
ATOM      7  C   LIG    1      -37.414  66.886  18.500  0.00  0.00    +0.277 C 
ATOM      8  O   LIG    1      -36.429  67.756  19.044  0.00  0.00    -0.491 OA
ENDBRANCH   1   8
BRANCH   2   9
ATOM      9  O   LIG    1      -33.870  66.365  19.215  0.00  0.00    -0.484 OA
BRANCH   9  10
ATOM     10  C   LIG    1      -32.691  65.602  19.457  0.00  0.00    +0.264 C 
BRANCH  10  11
ATOM     11  C   LIG    1      -31.508  66.484  19.194  0.00  0.00    -0.010 A 
ATOM     12  C   LIG    1      -30.216  65.989  19.400  0.00  0.00    +0.007 A 
ATOM     13  C   LIG    1      -29.110  66.797  19.154  0.00  0.00    +0.004 A 
ATOM     14  C   LIG    1      -29.282  68.111  18.698  0.00  0.00    -0.039 A 
ATOM     15  C   LIG    1      -30.578  68.612  18.518  0.00  0.00    +0.004 A 
ATOM     16  C   LIG    1      -31.684  67.805  18.771  0.00  0.00    +0.007 A 
BRANCH  14  17
ATOM     17  C   LIG    1      -28.088  68.991  18.432  0.00  0.00    +0.148 C 
BRANCH  17  18
ATOM     18  C   LIG    1      -27.609  69.817  19.618  0.00  0.00    +0.394 C 
ATOM     19  F   LIG    1      -28.519  70.777  19.917  0.00  0.00    -0.170 F 
ATOM     20  F   LIG    1      -26.448  70.448  19.321  0.00  0.00    -0.170 F 
ATOM     21  F   LIG    1      -27.400  69.105  20.744  0.00  0.00    -0.170 F 
ENDBRANCH  17  18
ENDBRANCH  14  17
ENDBRANCH  10  11
ENDBRANCH   9  10
ENDBRANCH   2   9
BRANCH   5  22
ATOM     22  C   LIG    1      -36.902  67.559  23.883  0.00  0.00    +0.161 C 
BRANCH  22  23
ATOM     23  N   LIG    1      -36.877  68.947  24.299  0.00  0.00    -0.293 N 
ATOM     24  C   LIG    1      -37.893  69.849  24.088  0.00  0.00    +0.162 A 
ATOM     25  N   LIG    1      -39.071  69.642  23.465  0.00  0.00    -0.235 NA
ATOM     26  C   LIG    1      -39.831  70.772  23.420  0.00  0.00    +0.121 A 
ATOM     27  C   LIG    1      -39.492  72.031  23.936  0.00  0.00    +0.005 A 
ATOM     28  C   LIG    1      -38.253  72.163  24.575  0.00  0.00    +0.041 A 
ATOM     29  C   LIG    1      -37.431  71.036  24.645  0.00  0.00    +0.110 A 
ATOM     30  N   LIG    1      -36.178  70.876  25.173  0.00  0.00    -0.213 NA
ATOM     31  C   LIG    1      -35.853  69.641  24.913  0.00  0.00    +0.195 A 
BRANCH  27  32
ATOM     32  C   LIG    1      -40.390  73.165  23.811  0.00  0.00    +0.021 A 
ATOM     33  C   LIG    1      -40.057  74.472  24.108  0.00  0.00    +0.116 A 
ATOM     34  N   LIG    1      -41.168  75.222  23.851  0.00  0.00    -0.274 N 
ATOM     35  C   LIG    1      -41.290  76.652  23.993  0.00  0.00    +0.172 C 
ATOM     36  N   LIG    1      -42.207  74.498  23.396  0.00  0.00    -0.179 NA
ATOM     37  C   LIG    1      -41.734  73.249  23.380  0.00  0.00    +0.143 A 
ENDBRANCH  27  32
BRANCH  31  38
ATOM     38  N   LIG    1      -34.653  69.094  25.201  0.00  0.00    -0.329 N 
ATOM     39  H   LIG    1      -34.631  68.718  26.146  0.00  0.00    +0.145 HD
ATOM     40  H   LIG    1      -33.860  69.711  25.089  0.00  0.00    +0.145 HD
ENDBRANCH  31  38
ENDBRANCH  22  23
ENDBRANCH   5  22
TORSDOF 10
ENDMDL
MODEL 4
REMARK VINA RESULT:      -5.4     14.748     18.723
REMARK  Name = pdb/CHEMBL3678286.pdb
REMARK                            x       y       z     vdW  Elec       q    Type
REMARK                         _______ _______ _______ _____ _____    ______ ____
ROOT
ATOM      1  C   LIG    1      -38.631  77.810  26.169  0.00  0.00    +0.162 A 
ATOM      2  C   LIG    1      -38.276  76.562  25.635  0.00  0.00    +0.162 A 
ATOM      3  C   LIG    1      -37.106  75.934  26.076  0.00  0.00    +0.050 A 
ATOM      4  C   LIG    1      -36.275  76.545  27.002  0.00  0.00    +0.009 A 
ATOM      5  C   LIG    1      -36.618  77.777  27.561  0.00  0.00    -0.024 A 
ATOM      6  C   LIG    1      -37.797  78.404  27.132  0.00  0.00    +0.054 A 
ENDROOT
BRANCH   1   8
ATOM      7  C   LIG    1      -39.622  79.719  25.121  0.00  0.00    +0.277 C 
ATOM      8  O   LIG    1      -39.762  78.540  25.903  0.00  0.00    -0.491 OA
ENDBRANCH   1   8
BRANCH   2   9
ATOM      9  O   LIG    1      -39.100  75.953  24.730  0.00  0.00    -0.484 OA
BRANCH   9  10
ATOM     10  C   LIG    1      -38.957  74.537  24.643  0.00  0.00    +0.264 C 
BRANCH  10  11
ATOM     11  C   LIG    1      -40.188  73.989  23.986  0.00  0.00    -0.010 A 
ATOM     12  C   LIG    1      -41.207  74.861  23.588  0.00  0.00    +0.007 A 
ATOM     13  C   LIG    1      -42.352  74.363  22.973  0.00  0.00    +0.004 A 
ATOM     14  C   LIG    1      -42.492  72.987  22.746  0.00  0.00    -0.039 A 
ATOM     15  C   LIG    1      -41.481  72.115  23.170  0.00  0.00    +0.004 A 
ATOM     16  C   LIG    1      -40.338  72.613  23.791  0.00  0.00    +0.007 A 
BRANCH  14  17
ATOM     17  C   LIG    1      -43.730  72.443  22.082  0.00  0.00    +0.148 C 
BRANCH  17  18
ATOM     18  C   LIG    1      -43.731  72.495  20.560  0.00  0.00    +0.394 C 
ATOM     19  F   LIG    1      -44.712  71.700  20.067  0.00  0.00    -0.170 F 
ATOM     20  F   LIG    1      -42.558  72.034  20.066  0.00  0.00    -0.170 F 
ATOM     21  F   LIG    1      -43.925  73.727  20.046  0.00  0.00    -0.170 F 
ENDBRANCH  17  18
ENDBRANCH  14  17
ENDBRANCH  10  11
ENDBRANCH   9  10
ENDBRANCH   2   9
BRANCH   5  22
ATOM     22  C   LIG    1      -35.743  78.367  28.643  0.00  0.00    +0.161 C 
BRANCH  22  23
ATOM     23  N   LIG    1      -34.341  78.050  28.464  0.00  0.00    -0.293 N 
ATOM     24  C   LIG    1      -33.695  76.987  29.049  0.00  0.00    +0.162 A 
ATOM     25  N   LIG    1      -34.208  76.062  29.885  0.00  0.00    -0.235 NA
ATOM     26  C   LIG    1      -33.269  75.161  30.289  0.00  0.00    +0.121 A 
ATOM     27  C   LIG    1      -31.917  75.137  29.921  0.00  0.00    +0.005 A 
ATOM     28  C   LIG    1      -31.462  76.128  29.042  0.00  0.00    +0.041 A 
ATOM     29  C   LIG    1      -32.383  77.081  28.601  0.00  0.00    +0.110 A 
ATOM     30  N   LIG    1      -32.222  78.164  27.778  0.00  0.00    -0.213 NA
ATOM     31  C   LIG    1      -33.386  78.748  27.751  0.00  0.00    +0.195 A 
BRANCH  27  32
ATOM     32  C   LIG    1      -31.012  74.125  30.433  0.00  0.00    +0.021 A 
ATOM     33  C   LIG    1      -30.891  72.845  29.929  0.00  0.00    +0.116 A 
ATOM     34  N   LIG    1      -29.937  72.222  30.680  0.00  0.00    -0.274 N 
ATOM     35  C   LIG    1      -29.456  70.872  30.508  0.00  0.00    +0.172 C 
ATOM     36  N   LIG    1      -29.414  73.008  31.639  0.00  0.00    -0.179 NA
ATOM     37  C   LIG    1      -30.074  74.160  31.491  0.00  0.00    +0.143 A 
ENDBRANCH  27  32
BRANCH  31  38
ATOM     38  N   LIG    1      -33.641  79.907  27.107  0.00  0.00    -0.329 N 
ATOM     39  H   LIG    1      -34.622  79.983  26.849  0.00  0.00    +0.145 HD
ATOM     40  H   LIG    1      -33.084  80.072  26.279  0.00  0.00    +0.145 HD
ENDBRANCH  31  38
ENDBRANCH  22  23
ENDBRANCH   5  22
TORSDOF 10
ENDMDL
MODEL 5
REMARK VINA RESULT:      -5.4     18.548     22.266
REMARK  Name = pdb/CHEMBL3678286.pdb
REMARK                            x       y       z     vdW  Elec       q    Type
REMARK                         _______ _______ _______ _____ _____    ______ ____
ROOT
ATOM      1  C   LIG    1      -39.241  75.825  24.442  0.00  0.00    +0.162 A 
ATOM      2  C   LIG    1      -40.458  76.011  23.771  0.00  0.00    +0.162 A 
ATOM      3  C   LIG    1      -41.350  74.939  23.653  0.00  0.00    +0.050 A 
ATOM      4  C   LIG    1      -41.028  73.687  24.155  0.00  0.00    +0.009 A 
ATOM      5  C   LIG    1      -39.830  73.482  24.842  0.00  0.00    -0.024 A 
ATOM      6  C   LIG    1      -38.941  74.559  24.975  0.00  0.00    +0.054 A 
ENDROOT
BRANCH   1   8
ATOM      7  C   LIG    1      -38.150  77.230  26.043  0.00  0.00    +0.277 C 
ATOM      8  O   LIG    1      -38.279  76.767  24.704  0.00  0.00    -0.491 OA
ENDBRANCH   1   8
BRANCH   2   9
ATOM      9  O   LIG    1      -40.782  77.248  23.285  0.00  0.00    -0.484 OA
BRANCH   9  10
ATOM     10  C   LIG    1      -41.290  78.161  24.254  0.00  0.00    +0.264 C 
BRANCH  10  11
ATOM     11  C   LIG    1      -41.011  79.552  23.768  0.00  0.00    -0.010 A 
ATOM     12  C   LIG    1      -42.061  80.471  23.658  0.00  0.00    +0.007 A 
ATOM     13  C   LIG    1      -41.812  81.766  23.213  0.00  0.00    +0.004 A 
ATOM     14  C   LIG    1      -40.510  82.160  22.874  0.00  0.00    -0.039 A 
ATOM     15  C   LIG    1      -39.467  81.229  22.962  0.00  0.00    +0.004 A 
ATOM     16  C   LIG    1      -39.717  79.931  23.400  0.00  0.00    +0.007 A 
BRANCH  14  17
ATOM     17  C   LIG    1      -40.236  83.560  22.391  0.00  0.00    +0.148 C 
BRANCH  17  18
ATOM     18  C   LIG    1      -40.363  83.769  20.888  0.00  0.00    +0.394 C 
ATOM     19  F   LIG    1      -41.572  83.332  20.457  0.00  0.00    -0.170 F 
ATOM     20  F   LIG    1      -39.422  83.056  20.226  0.00  0.00    -0.170 F 
ATOM     21  F   LIG    1      -40.243  85.053  20.494  0.00  0.00    -0.170 F 
ENDBRANCH  17  18
ENDBRANCH  14  17
ENDBRANCH  10  11
ENDBRANCH   9  10
ENDBRANCH   2   9
BRANCH   5  22
ATOM     22  C   LIG    1      -39.556  72.134  25.465  0.00  0.00    +0.161 C 
BRANCH  22  23
ATOM     23  N   LIG    1      -38.511  71.402  24.779  0.00  0.00    -0.293 N 
ATOM     24  C   LIG    1      -38.706  70.586  23.690  0.00  0.00    +0.162 A 
ATOM     25  N   LIG    1      -39.867  70.300  23.066  0.00  0.00    -0.235 NA
ATOM     26  C   LIG    1      -39.690  69.433  22.029  0.00  0.00    +0.121 A 
ATOM     27  C   LIG    1      -38.478  68.868  21.607  0.00  0.00    +0.005 A 
ATOM     28  C   LIG    1      -37.316  69.221  22.303  0.00  0.00    +0.041 A 
ATOM     29  C   LIG    1      -37.441  70.103  23.379  0.00  0.00    +0.110 A 
ATOM     30  N   LIG    1      -36.502  70.594  24.245  0.00  0.00    -0.213 NA
ATOM     31  C   LIG    1      -37.168  71.324  25.094  0.00  0.00    +0.195 A 
BRANCH  27  32
ATOM     32  C   LIG    1      -38.425  67.943  20.490  0.00  0.00    +0.021 A 
ATOM     33  C   LIG    1      -37.532  68.023  19.440  0.00  0.00    +0.116 A 
ATOM     34  N   LIG    1      -37.808  66.972  18.615  0.00  0.00    -0.274 N 
ATOM     35  C   LIG    1      -37.118  66.633  17.394  0.00  0.00    +0.172 C 
ATOM     36  N   LIG    1      -38.817  66.198  19.056  0.00  0.00    -0.179 NA
ATOM     37  C   LIG    1      -39.194  66.794  20.191  0.00  0.00    +0.143 A 
ENDBRANCH  27  32
BRANCH  31  38
ATOM     38  N   LIG    1      -36.621  71.935  26.167  0.00  0.00    -0.329 N 
ATOM     39  H   LIG    1      -36.096  72.763  25.897  0.00  0.00    +0.145 HD
ATOM     40  H   LIG    1      -36.019  71.352  26.734  0.00  0.00    +0.145 HD
ENDBRANCH  31  38
ENDBRANCH  22  23
ENDBRANCH   5  22
TORSDOF 10
ENDMDL
MODEL 6
REMARK VINA RESULT:      -5.3     14.356     17.951
REMARK  Name = pdb/CHEMBL3678286.pdb
REMARK                            x       y       z     vdW  Elec       q    Type
REMARK                         _______ _______ _______ _____ _____    ______ ____
ROOT
ATOM      1  C   LIG    1      -35.396  70.403  25.586  0.00  0.00    +0.162 A 
ATOM      2  C   LIG    1      -34.524  69.322  25.387  0.00  0.00    +0.162 A 
ATOM      3  C   LIG    1      -33.685  68.914  26.431  0.00  0.00    +0.050 A 
ATOM      4  C   LIG    1      -33.677  69.589  27.643  0.00  0.00    +0.009 A 
ATOM      5  C   LIG    1      -34.548  70.655  27.869  0.00  0.00    -0.024 A 
ATOM      6  C   LIG    1      -35.400  71.058  26.830  0.00  0.00    +0.054 A 
ENDROOT
BRANCH   1   8
ATOM      7  C   LIG    1      -37.417  71.636  25.238  0.00  0.00    +0.277 C 
ATOM      8  O   LIG    1      -36.323  70.899  24.706  0.00  0.00    -0.491 OA
ENDBRANCH   1   8
BRANCH   2   9
ATOM      9  O   LIG    1      -34.539  68.648  24.198  0.00  0.00    -0.484 OA
BRANCH   9  10
ATOM     10  C   LIG    1      -35.134  67.354  24.246  0.00  0.00    +0.264 C 
BRANCH  10  11
ATOM     11  C   LIG    1      -35.429  66.929  22.838  0.00  0.00    -0.010 A 
ATOM     12  C   LIG    1      -36.735  67.024  22.345  0.00  0.00    +0.007 A 
ATOM     13  C   LIG    1      -37.019  66.638  21.039  0.00  0.00    +0.004 A 
ATOM     14  C   LIG    1      -36.000  66.152  20.207  0.00  0.00    -0.039 A 
ATOM     15  C   LIG    1      -34.699  66.035  20.713  0.00  0.00    +0.004 A 
ATOM     16  C   LIG    1      -34.417  66.415  22.022  0.00  0.00    +0.007 A 
BRANCH  14  17
ATOM     17  C   LIG    1      -36.302  65.732  18.793  0.00  0.00    +0.148 C 
BRANCH  17  18
ATOM     18  C   LIG    1      -36.359  66.861  17.773  0.00  0.00    +0.394 C 
ATOM     19  F   LIG    1      -35.697  67.947  18.242  0.00  0.00    -0.170 F 
ATOM     20  F   LIG    1      -37.640  67.240  17.551  0.00  0.00    -0.170 F 
ATOM     21  F   LIG    1      -35.819  66.556  16.576  0.00  0.00    -0.170 F 
ENDBRANCH  17  18
ENDBRANCH  14  17
ENDBRANCH  10  11
ENDBRANCH   9  10
ENDBRANCH   2   9
BRANCH   5  22
ATOM     22  C   LIG    1      -34.586  71.302  29.234  0.00  0.00    +0.161 C 
BRANCH  22  23
ATOM     23  N   LIG    1      -33.647  72.399  29.359  0.00  0.00    -0.293 N 
ATOM     24  C   LIG    1      -33.865  73.677  28.902  0.00  0.00    +0.162 A 
ATOM     25  N   LIG    1      -34.950  74.154  28.259  0.00  0.00    -0.235 NA
ATOM     26  C   LIG    1      -34.813  75.471  27.935  0.00  0.00    +0.121 A 
ATOM     27  C   LIG    1      -33.708  76.290  28.205  0.00  0.00    +0.005 A 
ATOM     28  C   LIG    1      -32.624  75.721  28.883  0.00  0.00    +0.041 A 
ATOM     29  C   LIG    1      -32.709  74.372  29.235  0.00  0.00    +0.110 A 
ATOM     30  N   LIG    1      -31.808  73.556  29.865  0.00  0.00    -0.213 NA
ATOM     31  C   LIG    1      -32.369  72.380  29.884  0.00  0.00    +0.195 A 
BRANCH  27  32
ATOM     32  C   LIG    1      -33.682  77.682  27.793  0.00  0.00    +0.021 A 
ATOM     33  C   LIG    1      -34.580  78.646  28.207  0.00  0.00    +0.116 A 
ATOM     34  N   LIG    1      -34.204  79.810  27.602  0.00  0.00    -0.274 N 
ATOM     35  C   LIG    1      -34.837  81.098  27.753  0.00  0.00    +0.172 C 
ATOM     36  N   LIG    1      -33.114  79.681  26.825  0.00  0.00    -0.179 NA
ATOM     37  C   LIG    1      -32.803  78.386  26.937  0.00  0.00    +0.143 A 
ENDBRANCH  27  32
BRANCH  31  38
ATOM     38  N   LIG    1      -31.777  71.262  30.355  0.00  0.00    -0.329 N 
ATOM     39  H   LIG    1      -31.761  71.248  31.372  0.00  0.00    +0.145 HD
ATOM     40  H   LIG    1      -30.835  71.101  30.024  0.00  0.00    +0.145 HD
ENDBRANCH  31  38
ENDBRANCH  22  23
ENDBRANCH   5  22
TORSDOF 10
ENDMDL
MODEL 7
REMARK VINA RESULT:      -5.1     19.010     22.101
REMARK  Name = pdb/CHEMBL3678286.pdb
REMARK                            x       y       z     vdW  Elec       q    Type
REMARK                         _______ _______ _______ _____ _____    ______ ____
ROOT
ATOM      1  C   LIG    1      -39.871  67.953  20.829  0.00  0.00    +0.162 A 
ATOM      2  C   LIG    1      -39.227  69.031  21.455  0.00  0.00    +0.162 A 
ATOM      3  C   LIG    1      -37.858  69.229  21.244  0.00  0.00    +0.050 A 
ATOM      4  C   LIG    1      -37.124  68.353  20.459  0.00  0.00    +0.009 A 
ATOM      5  C   LIG    1      -37.747  67.284  19.812  0.00  0.00    -0.024 A 
ATOM      6  C   LIG    1      -39.122  67.091  20.010  0.00  0.00    +0.054 A 
ENDROOT
BRANCH   1   8
ATOM      7  C   LIG    1      -41.585  66.432  21.519  0.00  0.00    +0.277 C 
ATOM      8  O   LIG    1      -41.207  67.640  20.872  0.00  0.00    -0.491 OA
ENDBRANCH   1   8
BRANCH   2   9
ATOM      9  O   LIG    1      -39.951  69.902  22.220  0.00  0.00    -0.484 OA
BRANCH   9  10
ATOM     10  C   LIG    1      -39.504  70.037  23.566  0.00  0.00    +0.264 C 
BRANCH  10  11
ATOM     11  C   LIG    1      -39.522  71.495  23.915  0.00  0.00    -0.010 A 
ATOM     12  C   LIG    1      -38.487  72.036  24.686  0.00  0.00    +0.007 A 
ATOM     13  C   LIG    1      -38.490  73.389  25.011  0.00  0.00    +0.004 A 
ATOM     14  C   LIG    1      -39.528  74.220  24.568  0.00  0.00    -0.039 A 
ATOM     15  C   LIG    1      -40.576  73.669  23.818  0.00  0.00    +0.004 A 
ATOM     16  C   LIG    1      -40.576  72.314  23.499  0.00  0.00    +0.007 A 
BRANCH  14  17
ATOM     17  C   LIG    1      -39.538  75.685  24.918  0.00  0.00    +0.148 C 
BRANCH  17  18
ATOM     18  C   LIG    1      -38.265  76.447  24.574  0.00  0.00    +0.394 C 
ATOM     19  F   LIG    1      -37.897  77.235  25.614  0.00  0.00    -0.170 F 
ATOM     20  F   LIG    1      -38.469  77.259  23.510  0.00  0.00    -0.170 F 
ATOM     21  F   LIG    1      -37.209  75.661  24.280  0.00  0.00    -0.170 F 
ENDBRANCH  17  18
ENDBRANCH  14  17
ENDBRANCH  10  11
ENDBRANCH   9  10
ENDBRANCH   2   9
BRANCH   5  22
ATOM     22  C   LIG    1      -36.939  66.410  18.883  0.00  0.00    +0.161 C 
BRANCH  22  23
ATOM     23  N   LIG    1      -35.709  65.938  19.487  0.00  0.00    -0.293 N 
ATOM     24  C   LIG    1      -34.448  66.361  19.137  0.00  0.00    +0.162 A 
ATOM     25  N   LIG    1      -34.107  67.258  18.190  0.00  0.00    -0.235 NA
ATOM     26  C   LIG    1      -32.757  67.420  18.101  0.00  0.00    +0.121 A 
ATOM     27  C   LIG    1      -31.783  66.766  18.869  0.00  0.00    +0.005 A 
ATOM     28  C   LIG    1      -32.219  65.853  19.837  0.00  0.00    +0.041 A 
ATOM     29  C   LIG    1      -33.594  65.645  19.966  0.00  0.00    +0.110 A 
ATOM     30  N   LIG    1      -34.296  64.808  20.791  0.00  0.00    -0.213 NA
ATOM     31  C   LIG    1      -35.545  64.965  20.454  0.00  0.00    +0.195 A 
BRANCH  27  32
ATOM     32  C   LIG    1      -30.368  67.018  18.667  0.00  0.00    +0.021 A 
ATOM     33  C   LIG    1      -29.353  66.144  19.005  0.00  0.00    +0.116 A 
ATOM     34  N   LIG    1      -28.185  66.752  18.648  0.00  0.00    -0.274 N 
ATOM     35  C   LIG    1      -26.856  66.207  18.790  0.00  0.00    +0.172 C 
ATOM     36  N   LIG    1      -28.361  67.963  18.088  0.00  0.00    -0.179 NA
ATOM     37  C   LIG    1      -29.687  68.125  18.107  0.00  0.00    +0.143 A 
ENDBRANCH  27  32
BRANCH  31  38
ATOM     38  N   LIG    1      -36.570  64.261  20.980  0.00  0.00    -0.329 N 
ATOM     39  H   LIG    1      -36.427  64.076  21.969  0.00  0.00    +0.145 HD
ATOM     40  H   LIG    1      -36.767  63.381  20.521  0.00  0.00    +0.145 HD
ENDBRANCH  31  38
ENDBRANCH  22  23
ENDBRANCH   5  22
TORSDOF 10
ENDMDL
MODEL 8
REMARK VINA RESULT:      -5.1     13.678     17.721
REMARK  Name = pdb/CHEMBL3678286.pdb
REMARK                            x       y       z     vdW  Elec       q    Type
REMARK                         _______ _______ _______ _____ _____    ______ ____
ROOT
ATOM      1  C   LIG    1      -37.502  76.079  25.259  0.00  0.00    +0.162 A 
ATOM      2  C   LIG    1      -37.948  74.771  25.503  0.00  0.00    +0.162 A 
ATOM      3  C   LIG    1      -37.759  74.206  26.770  0.00  0.00    +0.050 A 
ATOM      4  C   LIG    1      -37.103  74.905  27.771  0.00  0.00    +0.009 A 
ATOM      5  C   LIG    1      -36.667  76.214  27.557  0.00  0.00    -0.024 A 
ATOM      6  C   LIG    1      -36.867  76.789  26.293  0.00  0.00    +0.054 A 
ENDROOT
BRANCH   1   8
ATOM      7  C   LIG    1      -38.844  77.572  23.957  0.00  0.00    +0.277 C 
ATOM      8  O   LIG    1      -37.652  76.810  24.108  0.00  0.00    -0.491 OA
ENDBRANCH   1   8
BRANCH   2   9
ATOM      9  O   LIG    1      -38.605  74.084  24.521  0.00  0.00    -0.484 OA
BRANCH   9  10
ATOM     10  C   LIG    1      -39.531  73.106  24.986  0.00  0.00    +0.264 C 
BRANCH  10  11
ATOM     11  C   LIG    1      -39.271  71.832  24.240  0.00  0.00    -0.010 A 
ATOM     12  C   LIG    1      -38.007  71.234  24.310  0.00  0.00    +0.007 A 
ATOM     13  C   LIG    1      -37.756  70.049  23.626  0.00  0.00    +0.004 A 
ATOM     14  C   LIG    1      -38.764  69.445  22.863  0.00  0.00    -0.039 A 
ATOM     15  C   LIG    1      -40.020  70.060  22.774  0.00  0.00    +0.004 A 
ATOM     16  C   LIG    1      -40.269  71.250  23.453  0.00  0.00    +0.007 A 
BRANCH  14  17
ATOM     17  C   LIG    1      -38.497  68.163  22.119  0.00  0.00    +0.148 C 
BRANCH  17  18
ATOM     18  C   LIG    1      -37.838  68.324  20.755  0.00  0.00    +0.394 C 
ATOM     19  F   LIG    1      -38.690  67.932  19.776  0.00  0.00    -0.170 F 
ATOM     20  F   LIG    1      -36.737  67.542  20.662  0.00  0.00    -0.170 F 
ATOM     21  F   LIG    1      -37.458  69.585  20.467  0.00  0.00    -0.170 F 
ENDBRANCH  17  18
ENDBRANCH  14  17
ENDBRANCH  10  11
ENDBRANCH   9  10
ENDBRANCH   2   9
BRANCH   5  22
ATOM     22  C   LIG    1      -36.048  76.983  28.700  0.00  0.00    +0.161 C 
BRANCH  22  23
ATOM     23  N   LIG    1      -34.600  76.982  28.656  0.00  0.00    -0.293 N 
ATOM     24  C   LIG    1      -33.798  75.991  29.172  0.00  0.00    +0.162 A 
ATOM     25  N   LIG    1      -34.177  74.866  29.810  0.00  0.00    -0.235 NA
ATOM     26  C   LIG    1      -33.109  74.118  30.205  0.00  0.00    +0.121 A 
ATOM     27  C   LIG    1      -31.755  74.420  30.007  0.00  0.00    +0.005 A 
ATOM     28  C   LIG    1      -31.443  75.605  29.329  0.00  0.00    +0.041 A 
ATOM     29  C   LIG    1      -32.501  76.413  28.906  0.00  0.00    +0.110 A 
ATOM     30  N   LIG    1      -32.499  77.619  28.258  0.00  0.00    -0.213 NA
ATOM     31  C   LIG    1      -33.754  77.958  28.164  0.00  0.00    +0.195 A 
BRANCH  27  32
ATOM     32  C   LIG    1      -30.706  73.541  30.491  0.00  0.00    +0.021 A 
ATOM     33  C   LIG    1      -29.776  73.877  31.455  0.00  0.00    +0.116 A 
ATOM     34  N   LIG    1      -28.981  72.781  31.624  0.00  0.00    -0.274 N 
ATOM     35  C   LIG    1      -27.879  72.654  32.547  0.00  0.00    +0.172 C 
ATOM     36  N   LIG    1      -29.331  71.742  30.845  0.00  0.00    -0.179 NA
ATOM     37  C   LIG    1      -30.374  72.208  30.152  0.00  0.00    +0.143 A 
ENDBRANCH  27  32
BRANCH  31  38
ATOM     38  N   LIG    1      -34.190  79.128  27.651  0.00  0.00    -0.329 N 
ATOM     39  H   LIG    1      -34.536  79.014  26.701  0.00  0.00    +0.145 HD
ATOM     40  H   LIG    1      -33.511  79.878  27.651  0.00  0.00    +0.145 HD
ENDBRANCH  31  38
ENDBRANCH  22  23
ENDBRANCH   5  22
TORSDOF 10
ENDMDL
MODEL 9
REMARK VINA RESULT:      -5.1     19.862     22.301
REMARK  Name = pdb/CHEMBL3678286.pdb
REMARK                            x       y       z     vdW  Elec       q    Type
REMARK                         _______ _______ _______ _____ _____    ______ ____
ROOT
ATOM      1  C   LIG    1      -37.770  68.327  24.049  0.00  0.00    +0.162 A 
ATOM      2  C   LIG    1      -38.525  69.321  23.408  0.00  0.00    +0.162 A 
ATOM      3  C   LIG    1      -38.752  69.229  22.030  0.00  0.00    +0.050 A 
ATOM      4  C   LIG    1      -38.208  68.193  21.286  0.00  0.00    +0.009 A 
ATOM      5  C   LIG    1      -37.470  67.183  21.906  0.00  0.00    -0.024 A 
ATOM      6  C   LIG    1      -37.252  67.264  23.289  0.00  0.00    +0.054 A 
ENDROOT
BRANCH   1   8
ATOM      7  C   LIG    1      -37.367  66.916  25.940  0.00  0.00    +0.277 C 
ATOM      8  O   LIG    1      -37.499  68.221  25.390  0.00  0.00    -0.491 OA
ENDBRANCH   1   8
BRANCH   2   9
ATOM      9  O   LIG    1      -39.071  70.337  24.141  0.00  0.00    -0.484 OA
BRANCH   9  10
ATOM     10  C   LIG    1      -40.143  71.029  23.507  0.00  0.00    +0.264 C 
BRANCH  10  11
ATOM     11  C   LIG    1      -40.042  72.477  23.880  0.00  0.00    -0.010 A 
ATOM     12  C   LIG    1      -38.923  72.935  24.585  0.00  0.00    +0.007 A 
ATOM     13  C   LIG    1      -38.816  74.278  24.932  0.00  0.00    +0.004 A 
ATOM     14  C   LIG    1      -39.827  75.183  24.578  0.00  0.00    -0.039 A 
ATOM     15  C   LIG    1      -40.958  74.716  23.896  0.00  0.00    +0.004 A 
ATOM     16  C   LIG    1      -41.067  73.371  23.554  0.00  0.00    +0.007 A 
BRANCH  14  17
ATOM     17  C   LIG    1      -39.717  76.637  24.953  0.00  0.00    +0.148 C 
BRANCH  17  18
ATOM     18  C   LIG    1      -39.177  77.554  23.864  0.00  0.00    +0.394 C 
ATOM     19  F   LIG    1      -37.914  77.189  23.530  0.00  0.00    -0.170 F 
ATOM     20  F   LIG    1      -39.120  78.834  24.302  0.00  0.00    -0.170 F 
ATOM     21  F   LIG    1      -39.902  77.553  22.726  0.00  0.00    -0.170 F 
ENDBRANCH  17  18
ENDBRANCH  14  17
ENDBRANCH  10  11
ENDBRANCH   9  10
ENDBRANCH   2   9
BRANCH   5  22
ATOM     22  C   LIG    1      -36.979  66.015  21.083  0.00  0.00    +0.161 C 
BRANCH  22  23
ATOM     23  N   LIG    1      -35.571  66.114  20.755  0.00  0.00    -0.293 N 
ATOM     24  C   LIG    1      -35.073  66.553  19.551  0.00  0.00    +0.162 A 
ATOM     25  N   LIG    1      -35.763  66.955  18.465  0.00  0.00    -0.235 NA
ATOM     26  C   LIG    1      -34.940  67.305  17.437  0.00  0.00    +0.121 A 
ATOM     27  C   LIG    1      -33.539  67.274  17.438  0.00  0.00    +0.005 A 
ATOM     28  C   LIG    1      -32.896  66.850  18.607  0.00  0.00    +0.041 A 
ATOM     29  C   LIG    1      -33.693  66.475  19.691  0.00  0.00    +0.110 A 
ATOM     30  N   LIG    1      -33.350  65.999  20.928  0.00  0.00    -0.213 NA
ATOM     31  C   LIG    1      -34.482  65.749  21.523  0.00  0.00    +0.195 A 
BRANCH  27  32
ATOM     32  C   LIG    1      -32.774  67.663  16.267  0.00  0.00    +0.021 A 
ATOM     33  C   LIG    1      -33.242  67.619  14.968  0.00  0.00    +0.116 A 
ATOM     34  N   LIG    1      -32.226  68.069  14.176  0.00  0.00    -0.274 N 
ATOM     35  C   LIG    1      -32.259  68.221  12.741  0.00  0.00    +0.172 C 
ATOM     36  N   LIG    1      -31.124  68.415  14.866  0.00  0.00    -0.179 NA
ATOM     37  C   LIG    1      -31.457  68.161  16.134  0.00  0.00    +0.143 A 
ENDBRANCH  27  32
BRANCH  31  38
ATOM     38  N   LIG    1      -34.591  65.191  22.748  0.00  0.00    -0.329 N 
ATOM     39  H   LIG    1      -33.889  64.469  22.893  0.00  0.00    +0.145 HD
ATOM     40  H   LIG    1      -35.497  64.795  22.962  0.00  0.00    +0.145 HD
ENDBRANCH  31  38
ENDBRANCH  22  23
ENDBRANCH   5  22
TORSDOF 10
ENDMDL
