MODEL 1
REMARK VINA RESULT:      -7.5      0.000      0.000
REMARK  Name = pdb/CHEMBL3950525.pdb
REMARK                            x       y       z     vdW  Elec       q    Type
REMARK                         _______ _______ _______ _____ _____    ______ ____
ROOT
ATOM      1  C   LIG    1      -26.074  82.379  37.158  0.00  0.00    +0.323 A 
ATOM      2  N   LIG    1      -27.312  81.896  37.357  0.00  0.00    -0.201 NA
ATOM      3  C   LIG    1      -28.336  82.705  36.957  0.00  0.00    +0.145 A 
ATOM      4  C   LIG    1      -28.181  83.981  36.439  0.00  0.00    +0.105 A 
ATOM      5  C   LIG    1      -26.855  84.335  36.266  0.00  0.00    +0.145 A 
ATOM      6  N   LIG    1      -25.797  83.566  36.591  0.00  0.00    -0.201 NA
ENDROOT
BRANCH   4   7
ATOM      7  N   LIG    1      -29.169  84.862  35.971  0.00  0.00    -0.196 NA
ATOM      8  C   LIG    1      -29.763  84.893  34.830  0.00  0.00    +0.285 C 
BRANCH   8   9
ATOM      9  N   LIG    1      -30.745  85.754  34.390  0.00  0.00    -0.269 N 
ATOM     10  H   LIG    1      -31.467  85.943  35.067  0.00  0.00    +0.157 HD
BRANCH   9  11
ATOM     11  C   LIG    1      -30.783  86.522  33.200  0.00  0.00    +0.043 A 
ATOM     12  C   LIG    1      -29.881  87.607  32.949  0.00  0.00    +0.005 A 
ATOM     13  C   LIG    1      -29.970  88.251  31.688  0.00  0.00    +0.011 A 
ATOM     14  C   LIG    1      -30.883  87.871  30.709  0.00  0.00    +0.013 A 
ATOM     15  C   LIG    1      -31.749  86.812  30.940  0.00  0.00    +0.057 A 
ATOM     16  C   LIG    1      -31.697  86.162  32.181  0.00  0.00    +0.036 A 
BRANCH  12  17
ATOM     17  C   LIG    1      -28.767  88.062  33.838  0.00  0.00    +0.002 A 
ATOM     18  C   LIG    1      -27.600  87.300  34.039  0.00  0.00    +0.119 A 
ATOM     19  N   LIG    1      -26.639  87.546  34.970  0.00  0.00    -0.263 NA
ATOM     20  C   LIG    1      -26.860  88.581  35.799  0.00  0.00    +0.111 A 
ATOM     21  C   LIG    1      -27.971  89.397  35.708  0.00  0.00    +0.020 A 
ATOM     22  C   LIG    1      -28.892  89.167  34.685  0.00  0.00    +0.011 A 
ENDBRANCH  12  17
BRANCH  15  23
ATOM     23  C   LIG    1      -32.722  86.402  29.867  0.00  0.00    +0.417 C 
ATOM     24  F   LIG    1      -33.039  87.435  29.036  0.00  0.00    -0.166 F 
ATOM     25  F   LIG    1      -33.903  85.969  30.387  0.00  0.00    -0.166 F 
ATOM     26  F   LIG    1      -32.272  85.402  29.063  0.00  0.00    -0.166 F 
ENDBRANCH  15  23
ENDBRANCH   9  11
ENDBRANCH   8   9
BRANCH   8  27
ATOM     27  O   LIG    1      -29.528  83.990  33.863  0.00  0.00    -0.481 OA
ATOM     28  H   LIG    1      -30.143  83.248  33.912  0.00  0.00    +0.295 HD
ENDBRANCH   8  27
ENDBRANCH   4   7
BRANCH   1  29
ATOM     29  O   LIG    1      -25.020  81.579  37.602  0.00  0.00    -0.424 OA
BRANCH  29  33
ATOM     30  C   LIG    1      -23.150  79.301  34.625  0.00  0.00    +0.002 A 
ATOM     31  C   LIG    1      -22.675  80.581  34.926  0.00  0.00    +0.013 A 
ATOM     32  C   LIG    1      -23.255  81.322  35.948  0.00  0.00    +0.047 A 
ATOM     33  C   LIG    1      -24.364  80.833  36.644  0.00  0.00    +0.132 A 
ATOM     34  C   LIG    1      -24.814  79.537  36.390  0.00  0.00    +0.047 A 
ATOM     35  C   LIG    1      -24.205  78.778  35.385  0.00  0.00    +0.013 A 
BRANCH  30  39
ATOM     36  C   LIG    1      -24.854  77.289  31.151  0.00  0.00    +0.233 A 
ATOM     37  N   LIG    1      -24.537  77.878  32.267  0.00  0.00    -0.127 NA
ATOM     38  N   LIG    1      -23.181  77.934  32.490  0.00  0.00    -0.209 N 
ATOM     39  C   LIG    1      -22.524  78.547  33.546  0.00  0.00    +0.093 A 
ATOM     40  C   LIG    1      -21.180  78.318  33.292  0.00  0.00    +0.141 A 
ATOM     41  N   LIG    1      -20.985  77.597  32.149  0.00  0.00    -0.234 NA
ATOM     42  C   LIG    1      -22.193  77.398  31.679  0.00  0.00    +0.155 A 
ATOM     43  C   LIG    1      -22.609  76.808  30.475  0.00  0.00    +0.053 A 
ATOM     44  C   LIG    1      -23.897  76.787  30.162  0.00  0.00    +0.072 A 
BRANCH  36  45
ATOM     45  O   LIG    1      -26.174  77.117  30.890  0.00  0.00    -0.476 OA
BRANCH  45  47
ATOM     46  C   LIG    1      -27.065  75.230  32.110  0.00  0.00    +0.048 C 
ATOM     47  C   LIG    1      -27.161  76.721  31.867  0.00  0.00    +0.227 C 
ENDBRANCH  45  47
ENDBRANCH  36  45
ENDBRANCH  30  39
ENDBRANCH  29  33
ENDBRANCH   1  29
TORSDOF 11
ENDMDL
MODEL 2
REMARK VINA RESULT:      -7.1     18.812     23.624
REMARK  Name = pdb/CHEMBL3950525.pdb
REMARK                            x       y       z     vdW  Elec       q    Type
REMARK                         _______ _______ _______ _____ _____    ______ ____
ROOT
ATOM      1  C   LIG    1      -28.908  78.115  10.992  0.00  0.00    +0.323 A 
ATOM      2  N   LIG    1      -28.928  77.133  11.909  0.00  0.00    -0.201 NA
ATOM      3  C   LIG    1      -27.883  77.119  12.786  0.00  0.00    +0.145 A 
ATOM      4  C   LIG    1      -26.801  77.985  12.744  0.00  0.00    +0.105 A 
ATOM      5  C   LIG    1      -26.928  78.957  11.768  0.00  0.00    +0.145 A 
ATOM      6  N   LIG    1      -27.956  79.061  10.903  0.00  0.00    -0.201 NA
ENDROOT
BRANCH   4   7
ATOM      7  N   LIG    1      -25.708  78.064  13.622  0.00  0.00    -0.196 NA
ATOM      8  C   LIG    1      -25.619  78.646  14.766  0.00  0.00    +0.285 C 
BRANCH   8   9
ATOM      9  N   LIG    1      -24.544  78.701  15.625  0.00  0.00    -0.269 N 
ATOM     10  H   LIG    1      -24.778  78.962  16.570  0.00  0.00    +0.157 HD
BRANCH   9  11
ATOM     11  C   LIG    1      -23.208  78.285  15.403  0.00  0.00    +0.043 A 
ATOM     12  C   LIG    1      -22.110  79.204  15.336  0.00  0.00    +0.005 A 
ATOM     13  C   LIG    1      -20.810  78.656  15.185  0.00  0.00    +0.011 A 
ATOM     14  C   LIG    1      -20.571  77.288  15.102  0.00  0.00    +0.013 A 
ATOM     15  C   LIG    1      -21.628  76.392  15.181  0.00  0.00    +0.057 A 
ATOM     16  C   LIG    1      -22.928  76.900  15.317  0.00  0.00    +0.036 A 
BRANCH  12  17
ATOM     17  C   LIG    1      -22.178  80.686  15.528  0.00  0.00    +0.002 A 
ATOM     18  C   LIG    1      -22.126  81.287  16.800  0.00  0.00    +0.119 A 
ATOM     19  N   LIG    1      -22.374  82.596  17.072  0.00  0.00    -0.263 NA
ATOM     20  C   LIG    1      -22.750  83.363  16.033  0.00  0.00    +0.111 A 
ATOM     21  C   LIG    1      -22.847  82.886  14.740  0.00  0.00    +0.020 A 
ATOM     22  C   LIG    1      -22.501  81.558  14.485  0.00  0.00    +0.011 A 
ENDBRANCH  12  17
BRANCH  15  23
ATOM     23  C   LIG    1      -21.353  74.914  15.104  0.00  0.00    +0.417 C 
ATOM     24  F   LIG    1      -20.506  74.495  16.086  0.00  0.00    -0.166 F 
ATOM     25  F   LIG    1      -20.760  74.565  13.930  0.00  0.00    -0.166 F 
ATOM     26  F   LIG    1      -22.464  74.138  15.214  0.00  0.00    -0.166 F 
ENDBRANCH  15  23
ENDBRANCH   9  11
ENDBRANCH   8   9
BRANCH   8  27
ATOM     27  O   LIG    1      -26.654  79.278  15.343  0.00  0.00    -0.481 OA
ATOM     28  H   LIG    1      -27.479  79.117  14.868  0.00  0.00    +0.295 HD
ENDBRANCH   8  27
ENDBRANCH   4   7
BRANCH   1  29
ATOM     29  O   LIG    1      -29.950  78.115  10.063  0.00  0.00    -0.424 OA
BRANCH  29  33
ATOM     30  C   LIG    1      -32.717  81.225  10.532  0.00  0.00    +0.002 A 
ATOM     31  C   LIG    1      -31.867  81.208   9.422  0.00  0.00    +0.013 A 
ATOM     32  C   LIG    1      -30.984  80.153   9.231  0.00  0.00    +0.047 A 
ATOM     33  C   LIG    1      -30.879  79.129  10.176  0.00  0.00    +0.132 A 
ATOM     34  C   LIG    1      -31.757  79.106  11.260  0.00  0.00    +0.047 A 
ATOM     35  C   LIG    1      -32.671  80.151  11.431  0.00  0.00    +0.013 A 
BRANCH  30  39
ATOM     36  C   LIG    1      -31.996  85.389  11.613  0.00  0.00    +0.233 A 
ATOM     37  N   LIG    1      -32.024  84.109  11.373  0.00  0.00    -0.127 NA
ATOM     38  N   LIG    1      -33.280  83.637  11.073  0.00  0.00    -0.209 N 
ATOM     39  C   LIG    1      -33.631  82.346  10.709  0.00  0.00    +0.093 A 
ATOM     40  C   LIG    1      -35.003  82.407  10.512  0.00  0.00    +0.141 A 
ATOM     41  N   LIG    1      -35.503  83.657  10.741  0.00  0.00    -0.234 NA
ATOM     42  C   LIG    1      -34.452  84.376  11.054  0.00  0.00    +0.155 A 
ATOM     43  C   LIG    1      -34.338  85.756  11.289  0.00  0.00    +0.053 A 
ATOM     44  C   LIG    1      -33.146  86.290  11.512  0.00  0.00    +0.072 A 
BRANCH  36  45
ATOM     45  O   LIG    1      -30.810  85.924  11.998  0.00  0.00    -0.476 OA
BRANCH  45  47
ATOM     46  C   LIG    1      -29.642  87.424  10.505  0.00  0.00    +0.048 C 
ATOM     47  C   LIG    1      -29.651  86.054  11.146  0.00  0.00    +0.227 C 
ENDBRANCH  45  47
ENDBRANCH  36  45
ENDBRANCH  30  39
ENDBRANCH  29  33
ENDBRANCH   1  29
TORSDOF 11
ENDMDL
MODEL 3
REMARK VINA RESULT:      -7.1     18.541     21.628
REMARK  Name = pdb/CHEMBL3950525.pdb
REMARK                            x       y       z     vdW  Elec       q    Type
REMARK                         _______ _______ _______ _____ _____    ______ ____
ROOT
ATOM      1  C   LIG    1      -36.829  66.886  19.596  0.00  0.00    +0.323 A 
ATOM      2  N   LIG    1      -37.483  66.153  20.513  0.00  0.00    -0.201 NA
ATOM      3  C   LIG    1      -38.274  66.854  21.378  0.00  0.00    +0.145 A 
ATOM      4  C   LIG    1      -38.383  68.235  21.409  0.00  0.00    +0.105 A 
ATOM      5  C   LIG    1      -37.677  68.855  20.394  0.00  0.00    +0.145 A 
ATOM      6  N   LIG    1      -36.919  68.222  19.476  0.00  0.00    -0.201 NA
ENDROOT
BRANCH   4   7
ATOM      7  N   LIG    1      -39.194  69.030  22.235  0.00  0.00    -0.196 NA
ATOM      8  C   LIG    1      -40.302  69.626  21.963  0.00  0.00    +0.285 C 
BRANCH   8   9
ATOM      9  N   LIG    1      -41.097  70.390  22.789  0.00  0.00    -0.269 N 
ATOM     10  H   LIG    1      -41.781  69.865  23.312  0.00  0.00    +0.157 HD
BRANCH   9  11
ATOM     11  C   LIG    1      -40.973  71.762  23.120  0.00  0.00    +0.043 A 
ATOM     12  C   LIG    1      -41.976  72.732  22.793  0.00  0.00    +0.005 A 
ATOM     13  C   LIG    1      -41.769  74.061  23.246  0.00  0.00    +0.011 A 
ATOM     14  C   LIG    1      -40.651  74.444  23.980  0.00  0.00    +0.013 A 
ATOM     15  C   LIG    1      -39.683  73.506  24.312  0.00  0.00    +0.057 A 
ATOM     16  C   LIG    1      -39.850  72.186  23.870  0.00  0.00    +0.036 A 
BRANCH  12  17
ATOM     17  C   LIG    1      -43.285  72.466  22.121  0.00  0.00    +0.002 A 
ATOM     18  C   LIG    1      -44.440  72.093  22.835  0.00  0.00    +0.119 A 
ATOM     19  N   LIG    1      -45.604  71.650  22.290  0.00  0.00    -0.263 NA
ATOM     20  C   LIG    1      -45.624  71.511  20.952  0.00  0.00    +0.111 A 
ATOM     21  C   LIG    1      -44.552  71.835  20.145  0.00  0.00    +0.020 A 
ATOM     22  C   LIG    1      -43.404  72.369  20.732  0.00  0.00    +0.011 A 
ENDBRANCH  12  17
BRANCH  15  23
ATOM     23  C   LIG    1      -38.486  73.931  25.120  0.00  0.00    +0.417 C 
ATOM     24  F   LIG    1      -37.501  72.988  25.118  0.00  0.00    -0.166 F 
ATOM     25  F   LIG    1      -38.799  74.137  26.428  0.00  0.00    -0.166 F 
ATOM     26  F   LIG    1      -37.903  75.079  24.684  0.00  0.00    -0.166 F 
ENDBRANCH  15  23
ENDBRANCH   9  11
ENDBRANCH   8   9
BRANCH   8  27
ATOM     27  O   LIG    1      -40.905  69.530  20.766  0.00  0.00    -0.481 OA
ATOM     28  H   LIG    1      -40.736  68.676  20.350  0.00  0.00    +0.295 HD
ENDBRANCH   8  27
ENDBRANCH   4   7
BRANCH   1  29
ATOM     29  O   LIG    1      -35.985  66.185  18.733  0.00  0.00    -0.424 OA
BRANCH  29  33
ATOM     30  C   LIG    1      -32.009  67.501  18.630  0.00  0.00    +0.002 A 
ATOM     31  C   LIG    1      -32.522  66.923  19.794  0.00  0.00    +0.013 A 
ATOM     32  C   LIG    1      -33.823  66.435  19.820  0.00  0.00    +0.047 A 
ATOM     33  C   LIG    1      -34.661  66.577  18.711  0.00  0.00    +0.132 A 
ATOM     34  C   LIG    1      -34.145  67.103  17.527  0.00  0.00    +0.047 A 
ATOM     35  C   LIG    1      -32.823  67.560  17.491  0.00  0.00    +0.013 A 
BRANCH  30  39
ATOM     36  C   LIG    1      -28.203  65.518  19.410  0.00  0.00    +0.233 A 
ATOM     37  N   LIG    1      -29.424  65.950  19.278  0.00  0.00    -0.127 NA
ATOM     38  N   LIG    1      -29.499  67.274  18.913  0.00  0.00    -0.209 N 
ATOM     39  C   LIG    1      -30.642  68.007  18.632  0.00  0.00    +0.093 A 
ATOM     40  C   LIG    1      -30.166  69.272  18.315  0.00  0.00    +0.141 A 
ATOM     41  N   LIG    1      -28.806  69.347  18.393  0.00  0.00    -0.234 NA
ATOM     42  C   LIG    1      -28.431  68.136  18.732  0.00  0.00    +0.155 A 
ATOM     43  C   LIG    1      -27.143  67.591  18.858  0.00  0.00    +0.053 A 
ATOM     44  C   LIG    1      -26.998  66.303  19.135  0.00  0.00    +0.072 A 
BRANCH  36  45
ATOM     45  O   LIG    1      -28.036  64.245  19.847  0.00  0.00    -0.476 OA
BRANCH  45  47
ATOM     46  C   LIG    1      -27.671  62.838  17.915  0.00  0.00    +0.048 C 
ATOM     47  C   LIG    1      -27.133  63.284  19.258  0.00  0.00    +0.227 C 
ENDBRANCH  45  47
ENDBRANCH  36  45
ENDBRANCH  30  39
ENDBRANCH  29  33
ENDBRANCH   1  29
TORSDOF 11
ENDMDL
MODEL 4
REMARK VINA RESULT:      -6.8      2.450      3.819
REMARK  Name = pdb/CHEMBL3950525.pdb
REMARK                            x       y       z     vdW  Elec       q    Type
REMARK                         _______ _______ _______ _____ _____    ______ ____
ROOT
ATOM      1  C   LIG    1      -25.916  82.377  37.205  0.00  0.00    +0.323 A 
ATOM      2  N   LIG    1      -27.173  81.928  37.360  0.00  0.00    -0.201 NA
ATOM      3  C   LIG    1      -28.162  82.795  36.995  0.00  0.00    +0.145 A 
ATOM      4  C   LIG    1      -27.955  84.093  36.554  0.00  0.00    +0.105 A 
ATOM      5  C   LIG    1      -26.615  84.408  36.418  0.00  0.00    +0.145 A 
ATOM      6  N   LIG    1      -25.589  83.585  36.712  0.00  0.00    -0.201 NA
ENDROOT
BRANCH   4   7
ATOM      7  N   LIG    1      -28.905  85.033  36.126  0.00  0.00    -0.196 NA
ATOM      8  C   LIG    1      -29.451  85.176  34.969  0.00  0.00    +0.285 C 
BRANCH   8   9
ATOM      9  N   LIG    1      -30.396  86.094  34.567  0.00  0.00    -0.269 N 
ATOM     10  H   LIG    1      -31.328  85.907  34.900  0.00  0.00    +0.157 HD
BRANCH   9  11
ATOM     11  C   LIG    1      -30.205  87.331  33.902  0.00  0.00    +0.043 A 
ATOM     12  C   LIG    1      -30.861  87.659  32.671  0.00  0.00    +0.005 A 
ATOM     13  C   LIG    1      -30.646  88.959  32.144  0.00  0.00    +0.011 A 
ATOM     14  C   LIG    1      -29.838  89.903  32.769  0.00  0.00    +0.013 A 
ATOM     15  C   LIG    1      -29.212  89.598  33.969  0.00  0.00    +0.057 A 
ATOM     16  C   LIG    1      -29.393  88.317  34.511  0.00  0.00    +0.036 A 
BRANCH  12  17
ATOM     17  C   LIG    1      -31.850  86.810  31.936  0.00  0.00    +0.002 A 
ATOM     18  C   LIG    1      -33.218  86.784  32.268  0.00  0.00    +0.119 A 
ATOM     19  N   LIG    1      -34.137  85.906  31.784  0.00  0.00    -0.263 NA
ATOM     20  C   LIG    1      -33.676  84.952  30.957  0.00  0.00    +0.111 A 
ATOM     21  C   LIG    1      -32.354  84.868  30.565  0.00  0.00    +0.020 A 
ATOM     22  C   LIG    1      -31.457  85.838  31.013  0.00  0.00    +0.011 A 
ENDBRANCH  12  17
BRANCH  15  23
ATOM     23  C   LIG    1      -28.353  90.634  34.642  0.00  0.00    +0.417 C 
ATOM     24  F   LIG    1      -27.230  90.095  35.195  0.00  0.00    -0.166 F 
ATOM     25  F   LIG    1      -29.007  91.255  35.662  0.00  0.00    -0.166 F 
ATOM     26  F   LIG    1      -27.922  91.622  33.812  0.00  0.00    -0.166 F 
ENDBRANCH  15  23
ENDBRANCH   9  11
ENDBRANCH   8   9
BRANCH   8  27
ATOM     27  O   LIG    1      -29.195  84.353  33.938  0.00  0.00    -0.481 OA
ATOM     28  H   LIG    1      -29.463  84.743  33.096  0.00  0.00    +0.295 HD
ENDBRANCH   8  27
ENDBRANCH   4   7
BRANCH   1  29
ATOM     29  O   LIG    1      -24.897  81.516  37.615  0.00  0.00    -0.424 OA
BRANCH  29  33
ATOM     30  C   LIG    1      -23.149  79.245  34.560  0.00  0.00    +0.002 A 
ATOM     31  C   LIG    1      -22.704  80.548  34.803  0.00  0.00    +0.013 A 
ATOM     32  C   LIG    1      -23.241  81.289  35.848  0.00  0.00    +0.047 A 
ATOM     33  C   LIG    1      -24.280  80.774  36.628  0.00  0.00    +0.132 A 
ATOM     34  C   LIG    1      -24.696  79.457  36.431  0.00  0.00    +0.047 A 
ATOM     35  C   LIG    1      -24.128  78.700  35.401  0.00  0.00    +0.013 A 
BRANCH  30  39
ATOM     36  C   LIG    1      -25.000  77.241  31.157  0.00  0.00    +0.233 A 
ATOM     37  N   LIG    1      -24.635  77.828  32.260  0.00  0.00    -0.127 NA
ATOM     38  N   LIG    1      -23.271  77.881  32.426  0.00  0.00    -0.209 N 
ATOM     39  C   LIG    1      -22.570  78.492  33.454  0.00  0.00    +0.093 A 
ATOM     40  C   LIG    1      -21.237  78.261  33.144  0.00  0.00    +0.141 A 
ATOM     41  N   LIG    1      -21.091  77.542  31.993  0.00  0.00    -0.234 NA
ATOM     42  C   LIG    1      -22.319  77.346  31.574  0.00  0.00    +0.155 A 
ATOM     43  C   LIG    1      -22.786  76.757  30.387  0.00  0.00    +0.053 A 
ATOM     44  C   LIG    1      -24.086  76.739  30.129  0.00  0.00    +0.072 A 
BRANCH  36  45
ATOM     45  O   LIG    1      -26.330  77.071  30.951  0.00  0.00    -0.476 OA
BRANCH  45  47
ATOM     46  C   LIG    1      -28.517  76.967  31.975  0.00  0.00    +0.048 C 
ATOM     47  C   LIG    1      -27.193  76.260  31.777  0.00  0.00    +0.227 C 
ENDBRANCH  45  47
ENDBRANCH  36  45
ENDBRANCH  30  39
ENDBRANCH  29  33
ENDBRANCH   1  29
TORSDOF 11
ENDMDL
MODEL 5
REMARK VINA RESULT:      -6.7      6.558     11.768
REMARK  Name = pdb/CHEMBL3950525.pdb
REMARK                            x       y       z     vdW  Elec       q    Type
REMARK                         _______ _______ _______ _____ _____    ______ ____
ROOT
ATOM      1  C   LIG    1      -29.143  75.718  32.037  0.00  0.00    +0.323 A 
ATOM      2  N   LIG    1      -29.246  76.357  33.215  0.00  0.00    -0.201 NA
ATOM      3  C   LIG    1      -28.144  77.061  33.606  0.00  0.00    +0.145 A 
ATOM      4  C   LIG    1      -26.942  77.097  32.917  0.00  0.00    +0.105 A 
ATOM      5  C   LIG    1      -26.990  76.418  31.713  0.00  0.00    +0.145 A 
ATOM      6  N   LIG    1      -28.059  75.746  31.242  0.00  0.00    -0.201 NA
ENDROOT
BRANCH   4   7
ATOM      7  N   LIG    1      -25.778  77.819  33.226  0.00  0.00    -0.196 NA
ATOM      8  C   LIG    1      -24.717  77.435  33.844  0.00  0.00    +0.285 C 
BRANCH   8   9
ATOM      9  N   LIG    1      -23.573  78.150  34.125  0.00  0.00    -0.269 N 
ATOM     10  H   LIG    1      -23.552  78.558  35.046  0.00  0.00    +0.157 HD
BRANCH   9  11
ATOM     11  C   LIG    1      -22.378  78.244  33.370  0.00  0.00    +0.043 A 
ATOM     12  C   LIG    1      -21.212  78.930  33.845  0.00  0.00    +0.005 A 
ATOM     13  C   LIG    1      -20.053  78.888  33.028  0.00  0.00    +0.011 A 
ATOM     14  C   LIG    1      -20.012  78.220  31.809  0.00  0.00    +0.013 A 
ATOM     15  C   LIG    1      -21.132  77.541  31.350  0.00  0.00    +0.057 A 
ATOM     16  C   LIG    1      -22.299  77.572  32.126  0.00  0.00    +0.036 A 
BRANCH  12  17
ATOM     17  C   LIG    1      -21.051  79.591  35.177  0.00  0.00    +0.002 A 
ATOM     18  C   LIG    1      -21.212  78.896  36.391  0.00  0.00    +0.119 A 
ATOM     19  N   LIG    1      -21.273  79.458  37.628  0.00  0.00    -0.263 NA
ATOM     20  C   LIG    1      -21.227  80.801  37.678  0.00  0.00    +0.111 A 
ATOM     21  C   LIG    1      -21.081  81.593  36.556  0.00  0.00    +0.020 A 
ATOM     22  C   LIG    1      -20.934  80.977  35.312  0.00  0.00    +0.011 A 
ENDBRANCH  12  17
BRANCH  15  23
ATOM     23  C   LIG    1      -21.068  76.810  30.036  0.00  0.00    +0.417 C 
ATOM     24  F   LIG    1      -20.779  75.487  30.195  0.00  0.00    -0.166 F 
ATOM     25  F   LIG    1      -20.097  77.306  29.221  0.00  0.00    -0.166 F 
ATOM     26  F   LIG    1      -22.223  76.855  29.319  0.00  0.00    -0.166 F 
ENDBRANCH  15  23
ENDBRANCH   9  11
ENDBRANCH   8   9
BRANCH   8  27
ATOM     27  O   LIG    1      -24.546  76.175  34.281  0.00  0.00    -0.481 OA
ATOM     28  H   LIG    1      -23.775  76.100  34.858  0.00  0.00    +0.295 HD
ENDBRANCH   8  27
ENDBRANCH   4   7
BRANCH   1  29
ATOM     29  O   LIG    1      -30.249  74.960  31.647  0.00  0.00    -0.424 OA
BRANCH  29  33
ATOM     30  C   LIG    1      -33.301  76.897  29.531  0.00  0.00    +0.002 A 
ATOM     31  C   LIG    1      -33.494  76.548  30.871  0.00  0.00    +0.013 A 
ATOM     32  C   LIG    1      -32.468  75.954  31.596  0.00  0.00    +0.047 A 
ATOM     33  C   LIG    1      -31.255  75.631  30.982  0.00  0.00    +0.132 A 
ATOM     34  C   LIG    1      -31.031  76.021  29.662  0.00  0.00    +0.047 A 
ATOM     35  C   LIG    1      -32.052  76.653  28.945  0.00  0.00    +0.013 A 
BRANCH  30  39
ATOM     36  C   LIG    1      -34.897  80.955  29.614  0.00  0.00    +0.233 A 
ATOM     37  N   LIG    1      -34.339  79.790  29.774  0.00  0.00    -0.127 NA
ATOM     38  N   LIG    1      -34.825  78.829  28.919  0.00  0.00    -0.209 N 
ATOM     39  C   LIG    1      -34.396  77.517  28.795  0.00  0.00    +0.093 A 
ATOM     40  C   LIG    1      -35.202  76.987  27.797  0.00  0.00    +0.141 A 
ATOM     41  N   LIG    1      -36.096  77.899  27.316  0.00  0.00    -0.234 NA
ATOM     42  C   LIG    1      -35.836  78.996  27.987  0.00  0.00    +0.155 A 
ATOM     43  C   LIG    1      -36.366  80.288  27.847  0.00  0.00    +0.053 A 
ATOM     44  C   LIG    1      -35.891  81.279  28.589  0.00  0.00    +0.072 A 
BRANCH  36  45
ATOM     45  O   LIG    1      -34.536  81.943  30.471  0.00  0.00    -0.476 OA
BRANCH  45  47
ATOM     46  C   LIG    1      -35.347  84.219  30.425  0.00  0.00    +0.048 C 
ATOM     47  C   LIG    1      -34.202  83.292  30.079  0.00  0.00    +0.227 C 
ENDBRANCH  45  47
ENDBRANCH  36  45
ENDBRANCH  30  39
ENDBRANCH  29  33
ENDBRANCH   1  29
TORSDOF 11
ENDMDL
MODEL 6
REMARK VINA RESULT:      -6.7      4.074     11.140
REMARK  Name = pdb/CHEMBL3950525.pdb
REMARK                            x       y       z     vdW  Elec       q    Type
REMARK                         _______ _______ _______ _____ _____    ______ ____
ROOT
ATOM      1  C   LIG    1      -26.094  82.711  37.352  0.00  0.00    +0.323 A 
ATOM      2  N   LIG    1      -26.692  81.509  37.283  0.00  0.00    -0.201 NA
ATOM      3  C   LIG    1      -25.922  80.490  36.802  0.00  0.00    +0.145 A 
ATOM      4  C   LIG    1      -24.626  80.631  36.331  0.00  0.00    +0.105 A 
ATOM      5  C   LIG    1      -24.132  81.914  36.488  0.00  0.00    +0.145 A 
ATOM      6  N   LIG    1      -24.819  82.953  37.001  0.00  0.00    -0.201 NA
ENDROOT
BRANCH   4   7
ATOM      7  N   LIG    1      -23.754  79.638  35.856  0.00  0.00    -0.196 NA
ATOM      8  C   LIG    1      -23.865  78.879  34.823  0.00  0.00    +0.285 C 
BRANCH   8   9
ATOM      9  N   LIG    1      -22.992  77.919  34.358  0.00  0.00    -0.269 N 
ATOM     10  H   LIG    1      -23.091  77.018  34.798  0.00  0.00    +0.157 HD
BRANCH   9  11
ATOM     11  C   LIG    1      -22.109  77.984  33.252  0.00  0.00    +0.043 A 
ATOM     12  C   LIG    1      -20.805  78.572  33.334  0.00  0.00    +0.005 A 
ATOM     13  C   LIG    1      -19.986  78.507  32.177  0.00  0.00    +0.011 A 
ATOM     14  C   LIG    1      -20.399  77.905  30.992  0.00  0.00    +0.013 A 
ATOM     15  C   LIG    1      -21.655  77.321  30.910  0.00  0.00    +0.057 A 
ATOM     16  C   LIG    1      -22.495  77.379  32.032  0.00  0.00    +0.036 A 
BRANCH  12  17
ATOM     17  C   LIG    1      -20.164  79.147  34.557  0.00  0.00    +0.002 A 
ATOM     18  C   LIG    1      -19.291  78.405  35.375  0.00  0.00    +0.119 A 
ATOM     19  N   LIG    1      -18.825  78.786  36.594  0.00  0.00    -0.263 NA
ATOM     20  C   LIG    1      -19.288  79.954  37.074  0.00  0.00    +0.111 A 
ATOM     21  C   LIG    1      -20.156  80.766  36.370  0.00  0.00    +0.020 A 
ATOM     22  C   LIG    1      -20.543  80.384  35.085  0.00  0.00    +0.011 A 
ENDBRANCH  12  17
BRANCH  15  23
ATOM     23  C   LIG    1      -22.083  76.661  29.628  0.00  0.00    +0.417 C 
ATOM     24  F   LIG    1      -23.111  77.322  29.024  0.00  0.00    -0.166 F 
ATOM     25  F   LIG    1      -22.529  75.391  29.831  0.00  0.00    -0.166 F 
ATOM     26  F   LIG    1      -21.098  76.571  28.694  0.00  0.00    -0.166 F 
ENDBRANCH  15  23
ENDBRANCH   9  11
ENDBRANCH   8   9
BRANCH   8  27
ATOM     27  O   LIG    1      -24.894  78.966  33.963  0.00  0.00    -0.481 OA
ATOM     28  H   LIG    1      -25.625  78.393  34.225  0.00  0.00    +0.295 HD
ENDBRANCH   8  27
ENDBRANCH   4   7
BRANCH   1  29
ATOM     29  O   LIG    1      -26.885  83.769  37.802  0.00  0.00    -0.424 OA
BRANCH  29  33
ATOM     30  C   LIG    1      -29.675  85.180  35.013  0.00  0.00    +0.002 A 
ATOM     31  C   LIG    1      -30.113  84.543  36.178  0.00  0.00    +0.013 A 
ATOM     32  C   LIG    1      -29.197  84.120  37.133  0.00  0.00    +0.047 A 
ATOM     33  C   LIG    1      -27.824  84.259  36.916  0.00  0.00    +0.132 A 
ATOM     34  C   LIG    1      -27.376  84.939  35.784  0.00  0.00    +0.047 A 
ATOM     35  C   LIG    1      -28.302  85.397  34.841  0.00  0.00    +0.013 A 
BRANCH  30  39
ATOM     36  C   LIG    1      -30.057  88.893  32.757  0.00  0.00    +0.233 A 
ATOM     37  N   LIG    1      -29.824  87.895  33.560  0.00  0.00    -0.127 NA
ATOM     38  N   LIG    1      -30.684  86.836  33.380  0.00  0.00    -0.209 N 
ATOM     39  C   LIG    1      -30.658  85.611  34.027  0.00  0.00    +0.093 A 
ATOM     40  C   LIG    1      -31.725  84.913  33.479  0.00  0.00    +0.141 A 
ATOM     41  N   LIG    1      -32.397  85.646  32.544  0.00  0.00    -0.234 NA
ATOM     42  C   LIG    1      -31.743  86.782  32.489  0.00  0.00    +0.155 A 
ATOM     43  C   LIG    1      -31.912  87.882  31.632  0.00  0.00    +0.053 A 
ATOM     44  C   LIG    1      -31.072  88.905  31.702  0.00  0.00    +0.072 A 
BRANCH  36  45
ATOM     45  O   LIG    1      -29.308  90.012  32.920  0.00  0.00    -0.476 OA
BRANCH  45  47
ATOM     46  C   LIG    1      -28.072  90.845  34.823  0.00  0.00    +0.048 C 
ATOM     47  C   LIG    1      -29.381  90.891  34.064  0.00  0.00    +0.227 C 
ENDBRANCH  45  47
ENDBRANCH  36  45
ENDBRANCH  30  39
ENDBRANCH  29  33
ENDBRANCH   1  29
TORSDOF 11
ENDMDL
MODEL 7
REMARK VINA RESULT:      -6.6     12.584     17.963
REMARK  Name = pdb/CHEMBL3950525.pdb
REMARK                            x       y       z     vdW  Elec       q    Type
REMARK                         _______ _______ _______ _____ _____    ______ ____
ROOT
ATOM      1  C   LIG    1      -36.860  80.103  28.270  0.00  0.00    +0.323 A 
ATOM      2  N   LIG    1      -35.788  79.301  28.381  0.00  0.00    -0.201 NA
ATOM      3  C   LIG    1      -35.964  78.013  27.963  0.00  0.00    +0.145 A 
ATOM      4  C   LIG    1      -37.163  77.485  27.511  0.00  0.00    +0.105 A 
ATOM      5  C   LIG    1      -38.170  78.430  27.424  0.00  0.00    +0.145 A 
ATOM      6  N   LIG    1      -38.050  79.726  27.771  0.00  0.00    -0.201 NA
ENDROOT
BRANCH   4   7
ATOM      7  N   LIG    1      -37.423  76.192  27.030  0.00  0.00    -0.196 NA
ATOM      8  C   LIG    1      -37.288  75.719  25.841  0.00  0.00    +0.285 C 
BRANCH   8   9
ATOM      9  N   LIG    1      -37.531  74.441  25.386  0.00  0.00    -0.269 N 
ATOM     10  H   LIG    1      -36.842  73.761  25.666  0.00  0.00    +0.157 HD
BRANCH   9  11
ATOM     11  C   LIG    1      -38.684  73.935  24.735  0.00  0.00    +0.043 A 
ATOM     12  C   LIG    1      -38.898  72.535  24.515  0.00  0.00    +0.005 A 
ATOM     13  C   LIG    1      -40.127  72.150  23.920  0.00  0.00    +0.011 A 
ATOM     14  C   LIG    1      -41.108  73.065  23.552  0.00  0.00    +0.013 A 
ATOM     15  C   LIG    1      -40.914  74.421  23.777  0.00  0.00    +0.057 A 
ATOM     16  C   LIG    1      -39.705  74.838  24.352  0.00  0.00    +0.036 A 
BRANCH  12  17
ATOM     17  C   LIG    1      -38.006  71.419  24.955  0.00  0.00    +0.002 A 
ATOM     18  C   LIG    1      -37.234  70.665  24.050  0.00  0.00    +0.119 A 
ATOM     19  N   LIG    1      -36.555  69.523  24.342  0.00  0.00    -0.263 NA
ATOM     20  C   LIG    1      -36.683  69.054  25.595  0.00  0.00    +0.111 A 
ATOM     21  C   LIG    1      -37.421  69.698  26.570  0.00  0.00    +0.020 A 
ATOM     22  C   LIG    1      -38.032  70.913  26.258  0.00  0.00    +0.011 A 
ENDBRANCH  12  17
BRANCH  15  23
ATOM     23  C   LIG    1      -41.990  75.398  23.388  0.00  0.00    +0.417 C 
ATOM     24  F   LIG    1      -42.779  75.745  24.445  0.00  0.00    -0.166 F 
ATOM     25  F   LIG    1      -42.833  74.885  22.451  0.00  0.00    -0.166 F 
ATOM     26  F   LIG    1      -41.520  76.567  22.876  0.00  0.00    -0.166 F 
ENDBRANCH  15  23
ENDBRANCH   9  11
ENDBRANCH   8   9
BRANCH   8  27
ATOM     27  O   LIG    1      -36.803  76.445  24.820  0.00  0.00    -0.481 OA
ATOM     28  H   LIG    1      -37.382  76.406  24.048  0.00  0.00    +0.295 HD
ENDBRANCH   8  27
ENDBRANCH   4   7
BRANCH   1  29
ATOM     29  O   LIG    1      -36.704  81.410  28.734  0.00  0.00    -0.424 OA
BRANCH  29  33
ATOM     30  C   LIG    1      -37.114  84.563  26.006  0.00  0.00    +0.002 A 
ATOM     31  C   LIG    1      -36.133  83.588  25.803  0.00  0.00    +0.013 A 
ATOM     32  C   LIG    1      -36.025  82.510  26.673  0.00  0.00    +0.047 A 
ATOM     33  C   LIG    1      -36.844  82.418  27.801  0.00  0.00    +0.132 A 
ATOM     34  C   LIG    1      -37.862  83.355  27.986  0.00  0.00    +0.047 A 
ATOM     35  C   LIG    1      -37.993  84.420  27.088  0.00  0.00    +0.013 A 
BRANCH  30  39
ATOM     36  C   LIG    1      -40.043  85.527  22.921  0.00  0.00    +0.233 A 
ATOM     37  N   LIG    1      -39.242  85.046  23.827  0.00  0.00    -0.127 NA
ATOM     38  N   LIG    1      -38.186  85.877  24.121  0.00  0.00    -0.209 N 
ATOM     39  C   LIG    1      -37.203  85.685  25.079  0.00  0.00    +0.093 A 
ATOM     40  C   LIG    1      -36.396  86.808  24.971  0.00  0.00    +0.141 A 
ATOM     41  N   LIG    1      -36.829  87.665  24.000  0.00  0.00    -0.234 NA
ATOM     42  C   LIG    1      -37.911  87.096  23.523  0.00  0.00    +0.155 A 
ATOM     43  C   LIG    1      -38.838  87.566  22.579  0.00  0.00    +0.053 A 
ATOM     44  C   LIG    1      -39.917  86.848  22.303  0.00  0.00    +0.072 A 
BRANCH  36  45
ATOM     45  O   LIG    1      -41.067  84.737  22.511  0.00  0.00    -0.476 OA
BRANCH  45  47
ATOM     46  C   LIG    1      -39.832  83.716  20.700  0.00  0.00    +0.048 C 
ATOM     47  C   LIG    1      -41.191  84.173  21.187  0.00  0.00    +0.227 C 
ENDBRANCH  45  47
ENDBRANCH  36  45
ENDBRANCH  30  39
ENDBRANCH  29  33
ENDBRANCH   1  29
TORSDOF 11
ENDMDL
MODEL 8
REMARK VINA RESULT:      -6.5      7.507     12.879
REMARK  Name = pdb/CHEMBL3950525.pdb
REMARK                            x       y       z     vdW  Elec       q    Type
REMARK                         _______ _______ _______ _____ _____    ______ ____
ROOT
ATOM      1  C   LIG    1      -35.192  83.251  29.366  0.00  0.00    +0.323 A 
ATOM      2  N   LIG    1      -34.635  82.398  30.243  0.00  0.00    -0.201 NA
ATOM      3  C   LIG    1      -34.532  81.102  29.827  0.00  0.00    +0.145 A 
ATOM      4  C   LIG    1      -35.016  80.617  28.622  0.00  0.00    +0.105 A 
ATOM      5  C   LIG    1      -35.538  81.609  27.811  0.00  0.00    +0.145 A 
ATOM      6  N   LIG    1      -35.623  82.914  28.138  0.00  0.00    -0.201 NA
ENDROOT
BRANCH   4   7
ATOM      7  N   LIG    1      -34.921  79.316  28.101  0.00  0.00    -0.196 NA
ATOM      8  C   LIG    1      -34.040  78.815  27.309  0.00  0.00    +0.285 C 
BRANCH   8   9
ATOM      9  N   LIG    1      -33.950  77.530  26.819  0.00  0.00    -0.269 N 
ATOM     10  H   LIG    1      -33.365  77.434  26.004  0.00  0.00    +0.157 HD
BRANCH   9  11
ATOM     11  C   LIG    1      -34.425  76.326  27.395  0.00  0.00    +0.043 A 
ATOM     12  C   LIG    1      -35.780  75.880  27.253  0.00  0.00    +0.005 A 
ATOM     13  C   LIG    1      -36.113  74.619  27.812  0.00  0.00    +0.011 A 
ATOM     14  C   LIG    1      -35.189  73.820  28.478  0.00  0.00    +0.013 A 
ATOM     15  C   LIG    1      -33.873  74.239  28.606  0.00  0.00    +0.057 A 
ATOM     16  C   LIG    1      -33.512  75.486  28.076  0.00  0.00    +0.036 A 
BRANCH  12  17
ATOM     17  C   LIG    1      -36.861  76.554  26.469  0.00  0.00    +0.002 A 
ATOM     18  C   LIG    1      -37.712  77.523  27.033  0.00  0.00    +0.119 A 
ATOM     19  N   LIG    1      -38.830  78.036  26.453  0.00  0.00    -0.263 NA
ATOM     20  C   LIG    1      -39.170  77.526  25.256  0.00  0.00    +0.111 A 
ATOM     21  C   LIG    1      -38.421  76.565  24.605  0.00  0.00    +0.020 A 
ATOM     22  C   LIG    1      -37.233  76.126  25.192  0.00  0.00    +0.011 A 
ENDBRANCH  12  17
BRANCH  15  23
ATOM     23  C   LIG    1      -32.880  73.358  29.316  0.00  0.00    +0.417 C 
ATOM     24  F   LIG    1      -31.624  73.887  29.313  0.00  0.00    -0.166 F 
ATOM     25  F   LIG    1      -32.768  72.136  28.727  0.00  0.00    -0.166 F 
ATOM     26  F   LIG    1      -33.181  73.123  30.621  0.00  0.00    -0.166 F 
ENDBRANCH  15  23
ENDBRANCH   9  11
ENDBRANCH   8   9
BRANCH   8  27
ATOM     27  O   LIG    1      -32.981  79.512  26.865  0.00  0.00    -0.481 OA
ATOM     28  H   LIG    1      -32.992  79.604  25.904  0.00  0.00    +0.295 HD
ENDBRANCH   8  27
ENDBRANCH   4   7
BRANCH   1  29
ATOM     29  O   LIG    1      -35.341  84.570  29.798  0.00  0.00    -0.424 OA
BRANCH  29  33
ATOM     30  C   LIG    1      -32.065  86.219  31.823  0.00  0.00    +0.002 A 
ATOM     31  C   LIG    1      -31.889  85.647  30.559  0.00  0.00    +0.013 A 
ATOM     32  C   LIG    1      -32.978  85.147  29.858  0.00  0.00    +0.047 A 
ATOM     33  C   LIG    1      -34.254  85.141  30.428  0.00  0.00    +0.132 A 
ATOM     34  C   LIG    1      -34.453  85.755  31.665  0.00  0.00    +0.047 A 
ATOM     35  C   LIG    1      -33.360  86.292  32.354  0.00  0.00    +0.013 A 
BRANCH  30  39
ATOM     36  C   LIG    1      -29.503  84.399  34.847  0.00  0.00    +0.233 A 
ATOM     37  N   LIG    1      -30.406  84.797  33.998  0.00  0.00    -0.127 NA
ATOM     38  N   LIG    1      -30.171  86.057  33.500  0.00  0.00    -0.209 N 
ATOM     39  C   LIG    1      -30.904  86.734  32.537  0.00  0.00    +0.093 A 
ATOM     40  C   LIG    1      -30.246  87.947  32.396  0.00  0.00    +0.141 A 
ATOM     41  N   LIG    1      -29.162  88.046  33.221  0.00  0.00    -0.234 NA
ATOM     42  C   LIG    1      -29.127  86.897  33.853  0.00  0.00    +0.155 A 
ATOM     43  C   LIG    1      -28.174  86.387  34.749  0.00  0.00    +0.053 A 
ATOM     44  C   LIG    1      -28.300  85.151  35.210  0.00  0.00    +0.072 A 
BRANCH  36  45
ATOM     45  O   LIG    1      -29.699  83.200  35.450  0.00  0.00    -0.476 OA
BRANCH  45  47
ATOM     46  C   LIG    1      -30.873  83.895  37.446  0.00  0.00    +0.048 C 
ATOM     47  C   LIG    1      -30.811  82.888  36.318  0.00  0.00    +0.227 C 
ENDBRANCH  45  47
ENDBRANCH  36  45
ENDBRANCH  30  39
ENDBRANCH  29  33
ENDBRANCH   1  29
TORSDOF 11
ENDMDL
MODEL 9
REMARK VINA RESULT:      -6.5      3.717      5.245
REMARK  Name = pdb/CHEMBL3950525.pdb
REMARK                            x       y       z     vdW  Elec       q    Type
REMARK                         _______ _______ _______ _____ _____    ______ ____
ROOT
ATOM      1  C   LIG    1      -25.798  81.291  36.954  0.00  0.00    +0.323 A 
ATOM      2  N   LIG    1      -27.102  81.264  37.278  0.00  0.00    -0.201 NA
ATOM      3  C   LIG    1      -27.737  82.473  37.285  0.00  0.00    +0.145 A 
ATOM      4  C   LIG    1      -27.120  83.692  37.054  0.00  0.00    +0.105 A 
ATOM      5  C   LIG    1      -25.786  83.565  36.708  0.00  0.00    +0.145 A 
ATOM      6  N   LIG    1      -25.111  82.401  36.632  0.00  0.00    -0.201 NA
ENDROOT
BRANCH   4   7
ATOM      7  N   LIG    1      -27.699  84.971  37.006  0.00  0.00    -0.196 NA
ATOM      8  C   LIG    1      -28.132  85.635  35.992  0.00  0.00    +0.285 C 
BRANCH   8   9
ATOM      9  N   LIG    1      -28.715  86.882  35.962  0.00  0.00    -0.269 N 
ATOM     10  H   LIG    1      -29.692  86.893  36.208  0.00  0.00    +0.157 HD
BRANCH   9  11
ATOM     11  C   LIG    1      -28.096  88.147  35.797  0.00  0.00    +0.043 A 
ATOM     12  C   LIG    1      -28.435  89.043  34.731  0.00  0.00    +0.005 A 
ATOM     13  C   LIG    1      -27.799  90.311  34.719  0.00  0.00    +0.011 A 
ATOM     14  C   LIG    1      -26.879  90.704  35.686  0.00  0.00    +0.013 A 
ATOM     15  C   LIG    1      -26.557  89.847  36.728  0.00  0.00    +0.057 A 
ATOM     16  C   LIG    1      -27.158  88.581  36.764  0.00  0.00    +0.036 A 
BRANCH  12  17
ATOM     17  C   LIG    1      -29.484  88.827  33.687  0.00  0.00    +0.002 A 
ATOM     18  C   LIG    1      -29.248  88.070  32.523  0.00  0.00    +0.119 A 
ATOM     19  N   LIG    1      -30.075  87.989  31.446  0.00  0.00    -0.263 NA
ATOM     20  C   LIG    1      -31.188  88.742  31.487  0.00  0.00    +0.111 A 
ATOM     21  C   LIG    1      -31.524  89.533  32.569  0.00  0.00    +0.020 A 
ATOM     22  C   LIG    1      -30.695  89.524  33.692  0.00  0.00    +0.011 A 
ENDBRANCH  12  17
BRANCH  15  23
ATOM     23  C   LIG    1      -25.571  90.291  37.776  0.00  0.00    +0.417 C 
ATOM     24  F   LIG    1      -24.447  90.835  37.229  0.00  0.00    -0.166 F 
ATOM     25  F   LIG    1      -25.143  89.254  38.547  0.00  0.00    -0.166 F 
ATOM     26  F   LIG    1      -26.058  91.226  38.635  0.00  0.00    -0.166 F 
ENDBRANCH  15  23
ENDBRANCH   9  11
ENDBRANCH   8   9
BRANCH   8  27
ATOM     27  O   LIG    1      -28.125  85.141  34.743  0.00  0.00    -0.481 OA
ATOM     28  H   LIG    1      -28.574  84.287  34.694  0.00  0.00    +0.295 HD
ENDBRANCH   8  27
ENDBRANCH   4   7
BRANCH   1  29
ATOM     29  O   LIG    1      -25.128  80.067  36.986  0.00  0.00    -0.424 OA
BRANCH  29  33
ATOM     30  C   LIG    1      -24.421  78.331  33.239  0.00  0.00    +0.002 A 
ATOM     31  C   LIG    1      -23.533  79.284  33.745  0.00  0.00    +0.013 A 
ATOM     32  C   LIG    1      -23.730  79.825  35.010  0.00  0.00    +0.047 A 
ATOM     33  C   LIG    1      -24.854  79.481  35.766  0.00  0.00    +0.132 A 
ATOM     34  C   LIG    1      -25.719  78.493  35.296  0.00  0.00    +0.047 A 
ATOM     35  C   LIG    1      -25.497  77.922  34.038  0.00  0.00    +0.013 A 
BRANCH  30  39
ATOM     36  C   LIG    1      -20.734  77.524  31.054  0.00  0.00    +0.233 A 
ATOM     37  N   LIG    1      -21.718  77.892  31.822  0.00  0.00    -0.127 NA
ATOM     38  N   LIG    1      -22.957  77.583  31.309  0.00  0.00    -0.209 N 
ATOM     39  C   LIG    1      -24.191  77.782  31.909  0.00  0.00    +0.093 A 
ATOM     40  C   LIG    1      -25.103  77.296  30.983  0.00  0.00    +0.141 A 
ATOM     41  N   LIG    1      -24.494  76.820  29.857  0.00  0.00    -0.234 NA
ATOM     42  C   LIG    1      -23.212  76.984  30.086  0.00  0.00    +0.155 A 
ATOM     43  C   LIG    1      -22.100  76.585  29.328  0.00  0.00    +0.053 A 
ATOM     44  C   LIG    1      -20.877  76.785  29.798  0.00  0.00    +0.072 A 
BRANCH  36  45
ATOM     45  O   LIG    1      -19.479  77.862  31.443  0.00  0.00    -0.476 OA
BRANCH  45  47
ATOM     46  C   LIG    1      -18.547  77.853  33.674  0.00  0.00    +0.048 C 
ATOM     47  C   LIG    1      -19.168  78.696  32.581  0.00  0.00    +0.227 C 
ENDBRANCH  45  47
ENDBRANCH  36  45
ENDBRANCH  30  39
ENDBRANCH  29  33
ENDBRANCH   1  29
TORSDOF 11
ENDMDL
