MODEL 1
REMARK VINA RESULT:      -6.5      0.000      0.000
REMARK  Name = pdb/CHEMBL3916359.pdb
REMARK                            x       y       z     vdW  Elec       q    Type
REMARK                         _______ _______ _______ _____ _____    ______ ____
ROOT
ATOM      1  C   LIG    1      -36.838  71.121  25.046  0.00  0.00    +0.147 A 
ATOM      2  N   LIG    1      -35.946  70.789  26.045  0.00  0.00    -0.197 N 
ATOM      3  N   LIG    1      -35.371  71.700  26.883  0.00  0.00    -0.148 NA
ATOM      4  C   LIG    1      -34.545  71.186  27.764  0.00  0.00    +0.143 A 
ATOM      5  C   LIG    1      -34.252  69.706  27.800  0.00  0.00    +0.049 A 
ATOM      6  C   LIG    1      -34.878  68.880  26.952  0.00  0.00    +0.051 A 
ATOM      7  C   LIG    1      -35.771  69.423  26.008  0.00  0.00    +0.156 A 
ATOM      8  N   LIG    1      -36.474  68.875  25.040  0.00  0.00    -0.233 NA
ATOM      9  C   LIG    1      -37.131  69.926  24.424  0.00  0.00    +0.157 A 
ENDROOT
BRANCH   4  10
ATOM     10  N   LIG    1      -33.927  72.037  28.673  0.00  0.00    -0.307 N 
ATOM     11  C   LIG    1      -34.640  73.179  29.291  0.00  0.00    +0.108 C 
ATOM     12  C   LIG    1      -34.097  73.261  30.731  0.00  0.00    +0.029 C 
ATOM     13  C   LIG    1      -33.372  71.944  30.946  0.00  0.00    +0.021 C 
ATOM     14  C   LIG    1      -32.843  71.614  29.562  0.00  0.00    +0.107 C 
BRANCH  11  15
ATOM     15  C   LIG    1      -34.392  74.481  28.556  0.00  0.00    +0.011 A 
ATOM     16  C   LIG    1      -35.459  75.108  27.896  0.00  0.00    +0.129 A 
ATOM     17  F   LIG    1      -36.661  74.516  27.869  0.00  0.00    -0.205 F 
ATOM     18  C   LIG    1      -35.312  76.350  27.276  0.00  0.00    +0.041 A 
ATOM     19  C   LIG    1      -34.078  76.995  27.309  0.00  0.00    +0.041 A 
ATOM     20  C   LIG    1      -33.011  76.387  27.959  0.00  0.00    +0.124 A 
ATOM     21  F   LIG    1      -31.826  77.009  28.005  0.00  0.00    -0.205 F 
ATOM     22  C   LIG    1      -33.156  75.147  28.577  0.00  0.00    +0.046 A 
ENDBRANCH  11  15
ENDBRANCH   4  10
BRANCH   1  24
ATOM     23  C   LIG    1      -38.532  72.959  25.142  0.00  0.00    +0.249 C 
ATOM     24  N   LIG    1      -37.246  72.440  24.819  0.00  0.00    -0.265 N 
ATOM     25  H   LIG    1      -36.552  73.001  24.338  0.00  0.00    +0.157 HD
ATOM     26  O   LIG    1      -39.379  72.259  25.659  0.00  0.00    -0.270 OA
BRANCH  23  30
ATOM     27  C   LIG    1      -39.144  77.058  23.966  0.00  0.00    +0.048 A 
ATOM     28  C   LIG    1      -37.918  76.623  24.464  0.00  0.00    +0.025 A 
ATOM     29  C   LIG    1      -37.742  75.287  24.835  0.00  0.00    +0.015 A 
ATOM     30  C   LIG    1      -38.802  74.375  24.738  0.00  0.00    +0.037 A 
ATOM     31  C   LIG    1      -40.043  74.819  24.256  0.00  0.00    +0.015 A 
ATOM     32  C   LIG    1      -40.206  76.159  23.858  0.00  0.00    +0.025 A 
BRANCH  27  33
ATOM     33  N   LIG    1      -39.245  78.381  23.439  0.00  0.00    -0.221 N 
ATOM     34  H   LIG    1      -38.381  78.807  23.096  0.00  0.00    +0.173 HD
BRANCH  33  36
ATOM     35  C   LIG    1      -39.566  81.050  23.665  0.00  0.00    +0.218 C 
ATOM     36  S   LIG    1      -40.068  79.512  24.408  0.00  0.00    +0.040 S 
ATOM     37  O   LIG    1      -41.493  79.339  24.238  0.00  0.00    -0.155 OA
ATOM     38  O   LIG    1      -39.451  79.428  25.715  0.00  0.00    -0.155 OA
ENDBRANCH  33  36
ENDBRANCH  27  33
ENDBRANCH  23  30
ENDBRANCH   1  24
TORSDOF 6
ENDMDL
MODEL 2
REMARK VINA RESULT:      -6.4     14.012     17.463
REMARK  Name = pdb/CHEMBL3916359.pdb
REMARK                            x       y       z     vdW  Elec       q    Type
REMARK                         _______ _______ _______ _____ _____    ______ ____
ROOT
ATOM      1  C   LIG    1      -19.310  78.924  33.067  0.00  0.00    +0.147 A 
ATOM      2  N   LIG    1      -19.872  78.094  32.119  0.00  0.00    -0.197 N 
ATOM      3  N   LIG    1      -21.218  77.923  31.962  0.00  0.00    -0.148 NA
ATOM      4  C   LIG    1      -21.554  77.086  31.009  0.00  0.00    +0.143 A 
ATOM      5  C   LIG    1      -20.511  76.363  30.191  0.00  0.00    +0.049 A 
ATOM      6  C   LIG    1      -19.211  76.608  30.399  0.00  0.00    +0.051 A 
ATOM      7  C   LIG    1      -18.843  77.510  31.416  0.00  0.00    +0.156 A 
ATOM      8  N   LIG    1      -17.670  77.898  31.871  0.00  0.00    -0.233 NA
ATOM      9  C   LIG    1      -17.949  78.767  32.911  0.00  0.00    +0.157 A 
ENDROOT
BRANCH   4  10
ATOM     10  N   LIG    1      -22.903  76.864  30.762  0.00  0.00    -0.307 N 
ATOM     11  C   LIG    1      -23.845  76.472  31.836  0.00  0.00    +0.108 C 
ATOM     12  C   LIG    1      -25.169  77.181  31.489  0.00  0.00    +0.029 C 
ATOM     13  C   LIG    1      -24.791  78.209  30.437  0.00  0.00    +0.021 C 
ATOM     14  C   LIG    1      -23.648  77.539  29.698  0.00  0.00    +0.107 C 
BRANCH  11  15
ATOM     15  C   LIG    1      -24.049  74.972  31.907  0.00  0.00    +0.011 A 
ATOM     16  C   LIG    1      -24.486  74.396  33.108  0.00  0.00    +0.129 A 
ATOM     17  F   LIG    1      -24.651  75.169  34.192  0.00  0.00    -0.205 F 
ATOM     18  C   LIG    1      -24.774  73.035  33.209  0.00  0.00    +0.041 A 
ATOM     19  C   LIG    1      -24.631  72.215  32.092  0.00  0.00    +0.041 A 
ATOM     20  C   LIG    1      -24.200  72.770  30.893  0.00  0.00    +0.124 A 
ATOM     21  F   LIG    1      -24.074  71.990  29.813  0.00  0.00    -0.205 F 
ATOM     22  C   LIG    1      -23.911  74.129  30.791  0.00  0.00    +0.046 A 
ENDBRANCH  11  15
ENDBRANCH   4  10
BRANCH   1  24
ATOM     23  C   LIG    1      -20.429  79.297  35.274  0.00  0.00    +0.249 C 
ATOM     24  N   LIG    1      -20.088  79.686  33.947  0.00  0.00    -0.265 N 
ATOM     25  H   LIG    1      -20.450  80.537  33.533  0.00  0.00    +0.157 HD
ATOM     26  O   LIG    1      -20.042  78.243  35.736  0.00  0.00    -0.270 OA
BRANCH  23  30
ATOM     27  C   LIG    1      -23.088  82.019  37.293  0.00  0.00    +0.048 A 
ATOM     28  C   LIG    1      -22.466  82.367  36.096  0.00  0.00    +0.025 A 
ATOM     29  C   LIG    1      -21.611  81.466  35.457  0.00  0.00    +0.015 A 
ATOM     30  C   LIG    1      -21.344  80.212  36.024  0.00  0.00    +0.037 A 
ATOM     31  C   LIG    1      -21.954  79.870  37.241  0.00  0.00    +0.015 A 
ATOM     32  C   LIG    1      -22.836  80.771  37.866  0.00  0.00    +0.025 A 
BRANCH  27  33
ATOM     33  N   LIG    1      -24.082  82.888  37.834  0.00  0.00    -0.221 N 
ATOM     34  H   LIG    1      -24.209  82.868  38.849  0.00  0.00    +0.173 HD
BRANCH  33  36
ATOM     35  C   LIG    1      -26.697  82.941  38.496  0.00  0.00    +0.218 C 
ATOM     36  S   LIG    1      -25.612  82.831  37.089  0.00  0.00    +0.040 S 
ATOM     37  O   LIG    1      -25.782  84.002  36.259  0.00  0.00    -0.155 OA
ATOM     38  O   LIG    1      -25.729  81.496  36.541  0.00  0.00    -0.155 OA
ENDBRANCH  33  36
ENDBRANCH  27  33
ENDBRANCH  23  30
ENDBRANCH   1  24
TORSDOF 6
ENDMDL
MODEL 3
REMARK VINA RESULT:      -6.3      3.790      7.514
REMARK  Name = pdb/CHEMBL3916359.pdb
REMARK                            x       y       z     vdW  Elec       q    Type
REMARK                         _______ _______ _______ _____ _____    ______ ____
ROOT
ATOM      1  C   LIG    1      -38.062  76.601  25.126  0.00  0.00    +0.147 A 
ATOM      2  N   LIG    1      -38.791  75.492  24.751  0.00  0.00    -0.197 N 
ATOM      3  N   LIG    1      -38.379  74.207  24.957  0.00  0.00    -0.148 NA
ATOM      4  C   LIG    1      -39.212  73.290  24.523  0.00  0.00    +0.143 A 
ATOM      5  C   LIG    1      -40.500  73.662  23.828  0.00  0.00    +0.049 A 
ATOM      6  C   LIG    1      -40.835  74.950  23.686  0.00  0.00    +0.051 A 
ATOM      7  C   LIG    1      -39.950  75.939  24.156  0.00  0.00    +0.156 A 
ATOM      8  N   LIG    1      -39.989  77.254  24.110  0.00  0.00    -0.233 NA
ATOM      9  C   LIG    1      -38.810  77.677  24.698  0.00  0.00    +0.157 A 
ENDROOT
BRANCH   4  10
ATOM     10  N   LIG    1      -38.886  71.952  24.708  0.00  0.00    -0.307 N 
ATOM     11  C   LIG    1      -38.612  71.388  26.050  0.00  0.00    +0.108 C 
ATOM     12  C   LIG    1      -39.191  69.960  26.012  0.00  0.00    +0.029 C 
ATOM     13  C   LIG    1      -40.067  69.932  24.772  0.00  0.00    +0.021 C 
ATOM     14  C   LIG    1      -39.354  70.881  23.827  0.00  0.00    +0.107 C 
BRANCH  11  15
ATOM     15  C   LIG    1      -37.131  71.352  26.370  0.00  0.00    +0.011 A 
ATOM     16  C   LIG    1      -36.649  72.085  27.464  0.00  0.00    +0.129 A 
ATOM     17  F   LIG    1      -37.490  72.858  28.166  0.00  0.00    -0.205 F 
ATOM     18  C   LIG    1      -35.312  72.022  27.859  0.00  0.00    +0.041 A 
ATOM     19  C   LIG    1      -34.423  71.210  27.159  0.00  0.00    +0.041 A 
ATOM     20  C   LIG    1      -34.885  70.476  26.073  0.00  0.00    +0.124 A 
ATOM     21  F   LIG    1      -34.039  69.684  25.405  0.00  0.00    -0.205 F 
ATOM     22  C   LIG    1      -36.219  70.539  25.676  0.00  0.00    +0.046 A 
ENDBRANCH  11  15
ENDBRANCH   4  10
BRANCH   1  24
ATOM     23  C   LIG    1      -36.615  76.747  27.162  0.00  0.00    +0.249 C 
ATOM     24  N   LIG    1      -36.827  76.496  25.777  0.00  0.00    -0.265 N 
ATOM     25  H   LIG    1      -36.058  76.277  25.153  0.00  0.00    +0.157 HD
ATOM     26  O   LIG    1      -37.532  77.073  27.888  0.00  0.00    -0.270 OA
BRANCH  23  30
ATOM     27  C   LIG    1      -32.566  76.662  28.633  0.00  0.00    +0.048 A 
ATOM     28  C   LIG    1      -33.272  77.859  28.522  0.00  0.00    +0.025 A 
ATOM     29  C   LIG    1      -34.586  77.861  28.046  0.00  0.00    +0.015 A 
ATOM     30  C   LIG    1      -35.201  76.666  27.648  0.00  0.00    +0.037 A 
ATOM     31  C   LIG    1      -34.483  75.464  27.740  0.00  0.00    +0.015 A 
ATOM     32  C   LIG    1      -33.170  75.464  28.246  0.00  0.00    +0.025 A 
BRANCH  27  33
ATOM     33  N   LIG    1      -31.293  76.669  29.277  0.00  0.00    -0.221 N 
ATOM     34  H   LIG    1      -30.479  76.465  28.692  0.00  0.00    +0.173 HD
BRANCH  33  36
ATOM     35  C   LIG    1      -29.681  76.416  31.426  0.00  0.00    +0.218 C 
ATOM     36  S   LIG    1      -31.176  75.762  30.713  0.00  0.00    +0.040 S 
ATOM     37  O   LIG    1      -32.295  76.080  31.571  0.00  0.00    -0.155 OA
ATOM     38  O   LIG    1      -30.911  74.402  30.295  0.00  0.00    -0.155 OA
ENDBRANCH  33  36
ENDBRANCH  27  33
ENDBRANCH  23  30
ENDBRANCH   1  24
TORSDOF 6
ENDMDL
MODEL 4
REMARK VINA RESULT:      -6.2      3.761      7.327
REMARK  Name = pdb/CHEMBL3916359.pdb
REMARK                            x       y       z     vdW  Elec       q    Type
REMARK                         _______ _______ _______ _____ _____    ______ ____
ROOT
ATOM      1  C   LIG    1      -38.364  76.040  27.582  0.00  0.00    +0.147 A 
ATOM      2  N   LIG    1      -37.491  77.090  27.779  0.00  0.00    -0.197 N 
ATOM      3  N   LIG    1      -36.133  76.975  27.697  0.00  0.00    -0.148 NA
ATOM      4  C   LIG    1      -35.476  78.088  27.924  0.00  0.00    +0.143 A 
ATOM      5  C   LIG    1      -36.193  79.369  28.275  0.00  0.00    +0.049 A 
ATOM      6  C   LIG    1      -37.532  79.397  28.313  0.00  0.00    +0.051 A 
ATOM      7  C   LIG    1      -38.244  78.208  28.065  0.00  0.00    +0.156 A 
ATOM      8  N   LIG    1      -39.530  77.929  28.083  0.00  0.00    -0.233 NA
ATOM      9  C   LIG    1      -39.616  76.577  27.799  0.00  0.00    +0.157 A 
ENDROOT
BRANCH   4  10
ATOM     10  N   LIG    1      -34.089  78.071  27.841  0.00  0.00    -0.307 N 
ATOM     11  C   LIG    1      -33.350  76.932  27.249  0.00  0.00    +0.108 C 
ATOM     12  C   LIG    1      -32.150  77.566  26.520  0.00  0.00    +0.029 C 
ATOM     13  C   LIG    1      -32.480  79.046  26.448  0.00  0.00    +0.021 C 
ATOM     14  C   LIG    1      -33.276  79.282  27.719  0.00  0.00    +0.107 C 
BRANCH  11  15
ATOM     15  C   LIG    1      -32.874  75.945  28.296  0.00  0.00    +0.011 A 
ATOM     16  C   LIG    1      -33.472  74.678  28.365  0.00  0.00    +0.129 A 
ATOM     17  F   LIG    1      -34.497  74.384  27.553  0.00  0.00    -0.205 F 
ATOM     18  C   LIG    1      -33.019  73.698  29.249  0.00  0.00    +0.041 A 
ATOM     19  C   LIG    1      -31.942  73.972  30.089  0.00  0.00    +0.041 A 
ATOM     20  C   LIG    1      -31.338  75.223  30.033  0.00  0.00    +0.124 A 
ATOM     21  F   LIG    1      -30.294  75.486  30.828  0.00  0.00    -0.205 F 
ATOM     22  C   LIG    1      -31.790  76.202  29.151  0.00  0.00    +0.046 A 
ENDBRANCH  11  15
ENDBRANCH   4  10
BRANCH   1  24
ATOM     23  C   LIG    1      -37.926  74.199  25.946  0.00  0.00    +0.249 C 
ATOM     24  N   LIG    1      -37.921  74.753  27.257  0.00  0.00    -0.265 N 
ATOM     25  H   LIG    1      -37.641  74.207  28.064  0.00  0.00    +0.157 HD
ATOM     26  O   LIG    1      -38.325  74.841  24.996  0.00  0.00    -0.270 OA
BRANCH  23  30
ATOM     27  C   LIG    1      -36.667  70.084  25.755  0.00  0.00    +0.048 A 
ATOM     28  C   LIG    1      -36.424  70.864  26.883  0.00  0.00    +0.025 A 
ATOM     29  C   LIG    1      -36.845  72.196  26.923  0.00  0.00    +0.015 A 
ATOM     30  C   LIG    1      -37.492  72.772  25.821  0.00  0.00    +0.037 A 
ATOM     31  C   LIG    1      -37.718  71.991  24.677  0.00  0.00    +0.015 A 
ATOM     32  C   LIG    1      -37.316  70.643  24.652  0.00  0.00    +0.025 A 
BRANCH  27  33
ATOM     33  N   LIG    1      -36.378  68.687  25.805  0.00  0.00    -0.221 N 
ATOM     34  H   LIG    1      -36.539  68.215  26.698  0.00  0.00    +0.173 HD
BRANCH  33  36
ATOM     35  C   LIG    1      -34.873  66.464  25.529  0.00  0.00    +0.218 C 
ATOM     36  S   LIG    1      -34.858  68.214  25.202  0.00  0.00    +0.040 S 
ATOM     37  O   LIG    1      -34.823  68.435  23.773  0.00  0.00    -0.155 OA
ATOM     38  O   LIG    1      -33.883  68.822  26.081  0.00  0.00    -0.155 OA
ENDBRANCH  33  36
ENDBRANCH  27  33
ENDBRANCH  23  30
ENDBRANCH   1  24
TORSDOF 6
ENDMDL
MODEL 5
REMARK VINA RESULT:      -6.1      4.125      7.425
REMARK  Name = pdb/CHEMBL3916359.pdb
REMARK                            x       y       z     vdW  Elec       q    Type
REMARK                         _______ _______ _______ _____ _____    ______ ____
ROOT
ATOM      1  C   LIG    1      -39.588  79.196  25.507  0.00  0.00    +0.147 A 
ATOM      2  N   LIG    1      -38.746  79.736  26.457  0.00  0.00    -0.197 N 
ATOM      3  N   LIG    1      -38.002  78.990  27.325  0.00  0.00    -0.148 NA
ATOM      4  C   LIG    1      -37.268  79.691  28.156  0.00  0.00    +0.143 A 
ATOM      5  C   LIG    1      -37.291  81.200  28.148  0.00  0.00    +0.049 A 
ATOM      6  C   LIG    1      -38.035  81.852  27.247  0.00  0.00    +0.051 A 
ATOM      7  C   LIG    1      -38.821  81.107  26.347  0.00  0.00    +0.156 A 
ATOM      8  N   LIG    1      -39.670  81.467  25.408  0.00  0.00    -0.233 NA
ATOM      9  C   LIG    1      -40.166  80.284  24.888  0.00  0.00    +0.157 A 
ENDROOT
BRANCH   4  10
ATOM     10  N   LIG    1      -36.461  79.015  29.064  0.00  0.00    -0.307 N 
ATOM     11  C   LIG    1      -35.101  79.489  29.412  0.00  0.00    +0.108 C 
ATOM     12  C   LIG    1      -34.932  79.164  30.909  0.00  0.00    +0.029 C 
ATOM     13  C   LIG    1      -36.335  78.848  31.396  0.00  0.00    +0.021 C 
ATOM     14  C   LIG    1      -36.989  78.224  30.176  0.00  0.00    +0.107 C 
BRANCH  11  15
ATOM     15  C   LIG    1      -34.024  78.804  28.595  0.00  0.00    +0.011 A 
ATOM     16  C   LIG    1      -33.537  79.432  27.439  0.00  0.00    +0.129 A 
ATOM     17  F   LIG    1      -34.078  80.591  27.038  0.00  0.00    -0.205 F 
ATOM     18  C   LIG    1      -32.487  78.892  26.696  0.00  0.00    +0.041 A 
ATOM     19  C   LIG    1      -31.895  77.700  27.104  0.00  0.00    +0.041 A 
ATOM     20  C   LIG    1      -32.365  77.065  28.248  0.00  0.00    +0.124 A 
ATOM     21  F   LIG    1      -31.790  75.926  28.652  0.00  0.00    -0.205 F 
ATOM     22  C   LIG    1      -33.413  77.602  28.991  0.00  0.00    +0.046 A 
ENDBRANCH  11  15
ENDBRANCH   4  10
BRANCH   1  24
ATOM     23  C   LIG    1      -38.874  76.992  24.562  0.00  0.00    +0.249 C 
ATOM     24  N   LIG    1      -39.737  77.814  25.342  0.00  0.00    -0.265 N 
ATOM     25  H   LIG    1      -40.567  77.441  25.788  0.00  0.00    +0.157 HD
ATOM     26  O   LIG    1      -37.919  77.463  23.979  0.00  0.00    -0.270 OA
BRANCH  23  30
ATOM     27  C   LIG    1      -40.086  72.885  24.097  0.00  0.00    +0.048 A 
ATOM     28  C   LIG    1      -40.921  73.934  23.717  0.00  0.00    +0.025 A 
ATOM     29  C   LIG    1      -40.504  75.258  23.874  0.00  0.00    +0.015 A 
ATOM     30  C   LIG    1      -39.255  75.550  24.440  0.00  0.00    +0.037 A 
ATOM     31  C   LIG    1      -38.424  74.493  24.841  0.00  0.00    +0.015 A 
ATOM     32  C   LIG    1      -38.838  73.161  24.656  0.00  0.00    +0.025 A 
BRANCH  27  33
ATOM     33  N   LIG    1      -40.466  71.548  23.771  0.00  0.00    -0.221 N 
ATOM     34  H   LIG    1      -40.681  71.356  22.790  0.00  0.00    +0.173 HD
BRANCH  33  36
ATOM     35  C   LIG    1      -41.214  69.137  24.725  0.00  0.00    +0.218 C 
ATOM     36  S   LIG    1      -41.679  70.856  24.744  0.00  0.00    +0.040 S 
ATOM     37  O   LIG    1      -41.561  71.369  26.091  0.00  0.00    -0.155 OA
ATOM     38  O   LIG    1      -42.908  70.992  23.991  0.00  0.00    -0.155 OA
ENDBRANCH  33  36
ENDBRANCH  27  33
ENDBRANCH  23  30
ENDBRANCH   1  24
TORSDOF 6
ENDMDL
MODEL 6
REMARK VINA RESULT:      -6.0      3.606      7.073
REMARK  Name = pdb/CHEMBL3916359.pdb
REMARK                            x       y       z     vdW  Elec       q    Type
REMARK                         _______ _______ _______ _____ _____    ______ ____
ROOT
ATOM      1  C   LIG    1      -35.723  70.612  25.695  0.00  0.00    +0.147 A 
ATOM      2  N   LIG    1      -35.681  69.459  24.938  0.00  0.00    -0.197 N 
ATOM      3  N   LIG    1      -36.406  69.274  23.796  0.00  0.00    -0.148 NA
ATOM      4  C   LIG    1      -36.231  68.106  23.223  0.00  0.00    +0.143 A 
ATOM      5  C   LIG    1      -35.319  67.063  23.821  0.00  0.00    +0.049 A 
ATOM      6  C   LIG    1      -34.629  67.338  24.935  0.00  0.00    +0.051 A 
ATOM      7  C   LIG    1      -34.806  68.591  25.552  0.00  0.00    +0.156 A 
ATOM      8  N   LIG    1      -34.312  69.109  26.656  0.00  0.00    -0.233 NA
ATOM      9  C   LIG    1      -34.889  70.363  26.764  0.00  0.00    +0.157 A 
ENDROOT
BRANCH   4  10
ATOM     10  N   LIG    1      -36.913  67.835  22.042  0.00  0.00    -0.307 N 
ATOM     11  C   LIG    1      -37.699  68.871  21.332  0.00  0.00    +0.108 C 
ATOM     12  C   LIG    1      -37.500  68.570  19.834  0.00  0.00    +0.029 C 
ATOM     13  C   LIG    1      -36.333  67.600  19.787  0.00  0.00    +0.021 C 
ATOM     14  C   LIG    1      -36.484  66.820  21.080  0.00  0.00    +0.107 C 
BRANCH  11  15
ATOM     15  C   LIG    1      -39.170  68.829  21.692  0.00  0.00    +0.011 A 
ATOM     16  C   LIG    1      -39.690  69.795  22.565  0.00  0.00    +0.129 A 
ATOM     17  F   LIG    1      -38.868  70.697  23.120  0.00  0.00    -0.205 F 
ATOM     18  C   LIG    1      -41.051  69.860  22.864  0.00  0.00    +0.041 A 
ATOM     19  C   LIG    1      -41.929  68.947  22.284  0.00  0.00    +0.041 A 
ATOM     20  C   LIG    1      -41.430  67.982  21.416  0.00  0.00    +0.124 A 
ATOM     21  F   LIG    1      -42.270  67.111  20.845  0.00  0.00    -0.205 F 
ATOM     22  C   LIG    1      -40.071  67.917  21.117  0.00  0.00    +0.046 A 
ENDBRANCH  11  15
ENDBRANCH   4  10
BRANCH   1  24
ATOM     23  C   LIG    1      -37.786  72.013  25.900  0.00  0.00    +0.249 C 
ATOM     24  N   LIG    1      -36.514  71.710  25.337  0.00  0.00    -0.265 N 
ATOM     25  H   LIG    1      -36.123  72.260  24.580  0.00  0.00    +0.157 HD
ATOM     26  O   LIG    1      -38.273  71.310  26.762  0.00  0.00    -0.270 OA
BRANCH  23  30
ATOM     27  C   LIG    1      -39.731  75.470  24.220  0.00  0.00    +0.048 A 
ATOM     28  C   LIG    1      -38.488  75.569  24.842  0.00  0.00    +0.025 A 
ATOM     29  C   LIG    1      -37.875  74.433  25.376  0.00  0.00    +0.015 A 
ATOM     30  C   LIG    1      -38.512  73.185  25.319  0.00  0.00    +0.037 A 
ATOM     31  C   LIG    1      -39.774  73.091  24.711  0.00  0.00    +0.015 A 
ATOM     32  C   LIG    1      -40.374  74.233  24.151  0.00  0.00    +0.025 A 
BRANCH  27  33
ATOM     33  N   LIG    1      -40.254  76.609  23.538  0.00  0.00    -0.221 N 
ATOM     34  H   LIG    1      -39.616  77.105  22.912  0.00  0.00    +0.173 HD
BRANCH  33  36
ATOM     35  C   LIG    1      -42.621  77.903  23.633  0.00  0.00    +0.218 C 
ATOM     36  S   LIG    1      -41.073  77.749  24.501  0.00  0.00    +0.040 S 
ATOM     37  O   LIG    1      -41.312  77.182  25.810  0.00  0.00    -0.155 OA
ATOM     38  O   LIG    1      -40.347  78.990  24.340  0.00  0.00    -0.155 OA
ENDBRANCH  33  36
ENDBRANCH  27  33
ENDBRANCH  23  30
ENDBRANCH   1  24
TORSDOF 6
ENDMDL
MODEL 7
REMARK VINA RESULT:      -6.0      4.826     10.030
REMARK  Name = pdb/CHEMBL3916359.pdb
REMARK                            x       y       z     vdW  Elec       q    Type
REMARK                         _______ _______ _______ _____ _____    ______ ____
ROOT
ATOM      1  C   LIG    1      -38.280  74.703  24.850  0.00  0.00    +0.147 A 
ATOM      2  N   LIG    1      -39.425  75.346  24.426  0.00  0.00    -0.197 N 
ATOM      3  N   LIG    1      -40.464  74.715  23.805  0.00  0.00    -0.148 NA
ATOM      4  C   LIG    1      -41.460  75.503  23.474  0.00  0.00    +0.143 A 
ATOM      5  C   LIG    1      -41.415  76.987  23.745  0.00  0.00    +0.049 A 
ATOM      6  C   LIG    1      -40.363  77.519  24.379  0.00  0.00    +0.051 A 
ATOM      7  C   LIG    1      -39.293  76.679  24.743  0.00  0.00    +0.156 A 
ATOM      8  N   LIG    1      -38.134  76.924  25.317  0.00  0.00    -0.233 NA
ATOM      9  C   LIG    1      -37.488  75.701  25.374  0.00  0.00    +0.157 A 
ENDROOT
BRANCH   4  10
ATOM     10  N   LIG    1      -42.573  74.945  22.855  0.00  0.00    -0.307 N 
ATOM     11  C   LIG    1      -43.116  73.626  23.253  0.00  0.00    +0.108 C 
ATOM     12  C   LIG    1      -44.644  73.759  23.109  0.00  0.00    +0.029 C 
ATOM     13  C   LIG    1      -44.890  75.252  22.979  0.00  0.00    +0.021 C 
ATOM     14  C   LIG    1      -43.647  75.743  22.260  0.00  0.00    +0.107 C 
BRANCH  11  15
ATOM     15  C   LIG    1      -42.597  72.501  22.380  0.00  0.00    +0.011 A 
ATOM     16  C   LIG    1      -41.707  71.565  22.926  0.00  0.00    +0.129 A 
ATOM     17  F   LIG    1      -41.277  71.717  24.187  0.00  0.00    -0.205 F 
ATOM     18  C   LIG    1      -41.264  70.460  22.199  0.00  0.00    +0.041 A 
ATOM     19  C   LIG    1      -41.713  70.268  20.894  0.00  0.00    +0.041 A 
ATOM     20  C   LIG    1      -42.596  71.186  20.338  0.00  0.00    +0.124 A 
ATOM     21  F   LIG    1      -43.041  70.999  19.090  0.00  0.00    -0.205 F 
ATOM     22  C   LIG    1      -43.038  72.290  21.063  0.00  0.00    +0.046 A 
ENDBRANCH  11  15
ENDBRANCH   4  10
BRANCH   1  24
ATOM     23  C   LIG    1      -37.765  72.422  25.741  0.00  0.00    +0.249 C 
ATOM     24  N   LIG    1      -38.097  73.324  24.690  0.00  0.00    -0.265 N 
ATOM     25  H   LIG    1      -38.164  73.016  23.727  0.00  0.00    +0.157 HD
ATOM     26  O   LIG    1      -37.624  72.813  26.882  0.00  0.00    -0.270 OA
BRANCH  23  30
ATOM     27  C   LIG    1      -37.106  68.365  24.451  0.00  0.00    +0.048 A 
ATOM     28  C   LIG    1      -37.814  69.269  23.664  0.00  0.00    +0.025 A 
ATOM     29  C   LIG    1      -38.012  70.582  24.101  0.00  0.00    +0.015 A 
ATOM     30  C   LIG    1      -37.526  70.998  25.348  0.00  0.00    +0.037 A 
ATOM     31  C   LIG    1      -36.830  70.080  26.150  0.00  0.00    +0.015 A 
ATOM     32  C   LIG    1      -36.610  68.768  25.693  0.00  0.00    +0.025 A 
BRANCH  27  33
ATOM     33  N   LIG    1      -36.775  67.087  23.908  0.00  0.00    -0.221 N 
ATOM     34  H   LIG    1      -36.477  66.368  24.571  0.00  0.00    +0.173 HD
BRANCH  33  36
ATOM     35  C   LIG    1      -35.031  65.444  22.668  0.00  0.00    +0.218 C 
ATOM     36  S   LIG    1      -35.703  67.091  22.586  0.00  0.00    +0.040 S 
ATOM     37  O   LIG    1      -36.458  67.240  21.361  0.00  0.00    -0.155 OA
ATOM     38  O   LIG    1      -34.650  68.019  22.939  0.00  0.00    -0.155 OA
ENDBRANCH  33  36
ENDBRANCH  27  33
ENDBRANCH  23  30
ENDBRANCH   1  24
TORSDOF 6
ENDMDL
MODEL 8
REMARK VINA RESULT:      -5.9      3.479      7.120
REMARK  Name = pdb/CHEMBL3916359.pdb
REMARK                            x       y       z     vdW  Elec       q    Type
REMARK                         _______ _______ _______ _____ _____    ______ ____
ROOT
ATOM      1  C   LIG    1      -38.807  78.041  26.858  0.00  0.00    +0.147 A 
ATOM      2  N   LIG    1      -37.680  78.740  27.240  0.00  0.00    -0.197 N 
ATOM      3  N   LIG    1      -36.437  78.183  27.337  0.00  0.00    -0.148 NA
ATOM      4  C   LIG    1      -35.496  79.012  27.722  0.00  0.00    +0.143 A 
ATOM      5  C   LIG    1      -35.802  80.453  28.055  0.00  0.00    +0.049 A 
ATOM      6  C   LIG    1      -37.049  80.921  27.913  0.00  0.00    +0.051 A 
ATOM      7  C   LIG    1      -38.063  80.039  27.493  0.00  0.00    +0.156 A 
ATOM      8  N   LIG    1      -39.357  80.200  27.318  0.00  0.00    -0.233 NA
ATOM      9  C   LIG    1      -39.834  78.958  26.937  0.00  0.00    +0.157 A 
ENDROOT
BRANCH   4  10
ATOM     10  N   LIG    1      -34.194  78.539  27.829  0.00  0.00    -0.307 N 
ATOM     11  C   LIG    1      -33.846  77.125  27.558  0.00  0.00    +0.108 C 
ATOM     12  C   LIG    1      -32.458  77.171  26.891  0.00  0.00    +0.029 C 
ATOM     13  C   LIG    1      -32.264  78.627  26.506  0.00  0.00    +0.021 C 
ATOM     14  C   LIG    1      -33.013  79.372  27.596  0.00  0.00    +0.107 C 
BRANCH  11  15
ATOM     15  C   LIG    1      -33.800  76.289  28.822  0.00  0.00    +0.011 A 
ATOM     16  C   LIG    1      -33.727  74.893  28.718  0.00  0.00    +0.129 A 
ATOM     17  F   LIG    1      -33.769  74.316  27.508  0.00  0.00    -0.205 F 
ATOM     18  C   LIG    1      -33.595  74.077  29.842  0.00  0.00    +0.041 A 
ATOM     19  C   LIG    1      -33.528  74.654  31.108  0.00  0.00    +0.041 A 
ATOM     20  C   LIG    1      -33.598  76.037  31.229  0.00  0.00    +0.124 A 
ATOM     21  F   LIG    1      -33.521  76.597  32.442  0.00  0.00    -0.205 F 
ATOM     22  C   LIG    1      -33.731  76.852  30.107  0.00  0.00    +0.046 A 
ENDBRANCH  11  15
ENDBRANCH   4  10
BRANCH   1  24
ATOM     23  C   LIG    1      -38.756  76.185  25.182  0.00  0.00    +0.249 C 
ATOM     24  N   LIG    1      -38.762  76.685  26.515  0.00  0.00    -0.265 N 
ATOM     25  H   LIG    1      -38.794  76.064  27.315  0.00  0.00    +0.157 HD
ATOM     26  O   LIG    1      -38.783  76.939  24.230  0.00  0.00    -0.270 OA
BRANCH  23  30
ATOM     27  C   LIG    1      -38.784  71.888  24.877  0.00  0.00    +0.048 A 
ATOM     28  C   LIG    1      -37.869  72.551  25.693  0.00  0.00    +0.025 A 
ATOM     29  C   LIG    1      -37.882  73.945  25.779  0.00  0.00    +0.015 A 
ATOM     30  C   LIG    1      -38.795  74.697  25.025  0.00  0.00    +0.037 A 
ATOM     31  C   LIG    1      -39.702  74.030  24.188  0.00  0.00    +0.015 A 
ATOM     32  C   LIG    1      -39.702  72.624  24.127  0.00  0.00    +0.025 A 
BRANCH  27  33
ATOM     33  N   LIG    1      -38.859  70.464  24.938  0.00  0.00    -0.221 N 
ATOM     34  H   LIG    1      -38.738  70.035  25.859  0.00  0.00    +0.173 HD
BRANCH  33  36
ATOM     35  C   LIG    1      -39.078  69.341  22.495  0.00  0.00    +0.218 C 
ATOM     36  S   LIG    1      -37.909  69.615  23.810  0.00  0.00    +0.040 S 
ATOM     37  O   LIG    1      -36.848  70.476  23.336  0.00  0.00    -0.155 OA
ATOM     38  O   LIG    1      -37.622  68.337  24.424  0.00  0.00    -0.155 OA
ENDBRANCH  33  36
ENDBRANCH  27  33
ENDBRANCH  23  30
ENDBRANCH   1  24
TORSDOF 6
ENDMDL
MODEL 9
REMARK VINA RESULT:      -5.9     20.028     22.185
REMARK  Name = pdb/CHEMBL3916359.pdb
REMARK                            x       y       z     vdW  Elec       q    Type
REMARK                         _______ _______ _______ _____ _____    ______ ____
ROOT
ATOM      1  C   LIG    1      -22.772  83.017  15.580  0.00  0.00    +0.147 A 
ATOM      2  N   LIG    1      -23.487  81.987  15.004  0.00  0.00    -0.197 N 
ATOM      3  N   LIG    1      -24.158  82.098  13.820  0.00  0.00    -0.148 NA
ATOM      4  C   LIG    1      -24.783  81.008  13.443  0.00  0.00    +0.143 A 
ATOM      5  C   LIG    1      -24.768  79.758  14.290  0.00  0.00    +0.049 A 
ATOM      6  C   LIG    1      -24.066  79.731  15.429  0.00  0.00    +0.051 A 
ATOM      7  C   LIG    1      -23.386  80.896  15.837  0.00  0.00    +0.156 A 
ATOM      8  N   LIG    1      -22.675  81.173  16.909  0.00  0.00    -0.233 NA
ATOM      9  C   LIG    1      -22.300  82.498  16.767  0.00  0.00    +0.157 A 
ENDROOT
BRANCH   4  10
ATOM     10  N   LIG    1      -25.477  81.020  12.239  0.00  0.00    -0.307 N 
ATOM     11  C   LIG    1      -25.018  81.813  11.075  0.00  0.00    +0.108 C 
ATOM     12  C   LIG    1      -25.364  80.956   9.842  0.00  0.00    +0.029 C 
ATOM     13  C   LIG    1      -25.676  79.580  10.404  0.00  0.00    +0.021 C 
ATOM     14  C   LIG    1      -26.279  79.893  11.761  0.00  0.00    +0.107 C 
BRANCH  11  15
ATOM     15  C   LIG    1      -25.699  83.164  10.991  0.00  0.00    +0.011 A 
ATOM     16  C   LIG    1      -24.943  84.327  11.200  0.00  0.00    +0.129 A 
ATOM     17  F   LIG    1      -23.650  84.224  11.537  0.00  0.00    -0.205 F 
ATOM     18  C   LIG    1      -25.495  85.599  11.051  0.00  0.00    +0.041 A 
ATOM     19  C   LIG    1      -26.831  85.732  10.681  0.00  0.00    +0.041 A 
ATOM     20  C   LIG    1      -27.594  84.590  10.469  0.00  0.00    +0.124 A 
ATOM     21  F   LIG    1      -28.875  84.712  10.100  0.00  0.00    -0.205 F 
ATOM     22  C   LIG    1      -27.045  83.319  10.619  0.00  0.00    +0.046 A 
ENDBRANCH  11  15
ENDBRANCH   4  10
BRANCH   1  24
ATOM     23  C   LIG    1      -21.622  84.655  14.078  0.00  0.00    +0.249 C 
ATOM     24  N   LIG    1      -22.659  84.275  14.977  0.00  0.00    -0.265 N 
ATOM     25  H   LIG    1      -23.363  84.936  15.285  0.00  0.00    +0.157 HD
ATOM     26  O   LIG    1      -20.746  83.874  13.767  0.00  0.00    -0.270 OA
BRANCH  23  30
ATOM     27  C   LIG    1      -21.501  88.717  12.650  0.00  0.00    +0.048 A 
ATOM     28  C   LIG    1      -20.351  87.931  12.698  0.00  0.00    +0.025 A 
ATOM     29  C   LIG    1      -20.416  86.615  13.161  0.00  0.00    +0.015 A 
ATOM     30  C   LIG    1      -21.630  86.076  13.610  0.00  0.00    +0.037 A 
ATOM     31  C   LIG    1      -22.783  86.875  13.581  0.00  0.00    +0.015 A 
ATOM     32  C   LIG    1      -22.717  88.191  13.088  0.00  0.00    +0.025 A 
BRANCH  27  33
ATOM     33  N   LIG    1      -21.438  89.995  12.018  0.00  0.00    -0.221 N 
ATOM     34  H   LIG    1      -21.634  90.810  12.605  0.00  0.00    +0.173 HD
BRANCH  33  36
ATOM     35  C   LIG    1      -21.395  91.454   9.749  0.00  0.00    +0.218 C 
ATOM     36  S   LIG    1      -22.299  90.151  10.558  0.00  0.00    +0.040 S 
ATOM     37  O   LIG    1      -22.169  88.930   9.794  0.00  0.00    -0.155 OA
ATOM     38  O   LIG    1      -23.598  90.673  10.925  0.00  0.00    -0.155 OA
ENDBRANCH  33  36
ENDBRANCH  27  33
ENDBRANCH  23  30
ENDBRANCH   1  24
TORSDOF 6
ENDMDL
