MODEL 1
REMARK VINA RESULT:      -5.8      0.000      0.000
REMARK  Name = pdb/CHEMBL3891891.pdb
REMARK                            x       y       z     vdW  Elec       q    Type
REMARK                         _______ _______ _______ _____ _____    ______ ____
ROOT
ATOM      1  C   LIG    1      -24.286  77.636  32.451  0.00  0.00    +0.131 A 
ATOM      2  C   LIG    1      -24.229  78.303  33.655  0.00  0.00    +0.183 A 
ATOM      3  N   LIG    1      -23.216  78.969  34.294  0.00  0.00    -0.211 NA
ATOM      4  C   LIG    1      -23.462  79.508  35.471  0.00  0.00    +0.126 A 
ATOM      5  C   LIG    1      -24.841  79.451  36.090  0.00  0.00    +0.063 A 
ATOM      6  C   LIG    1      -25.799  78.812  35.410  0.00  0.00    +0.118 A 
ATOM      7  N   LIG    1      -25.516  78.225  34.188  0.00  0.00    -0.220 N 
ATOM      8  N   LIG    1      -26.371  77.556  33.375  0.00  0.00    -0.171 NA
ATOM      9  C   LIG    1      -25.612  77.188  32.339  0.00  0.00    +0.164 A 
ENDROOT
BRANCH   4  10
ATOM     10  N   LIG    1      -22.433  80.167  36.134  0.00  0.00    -0.308 N 
ATOM     11  C   LIG    1      -21.324  80.837  35.425  0.00  0.00    +0.108 C 
ATOM     12  C   LIG    1      -21.211  82.223  36.097  0.00  0.00    +0.029 C 
ATOM     13  C   LIG    1      -22.348  82.288  37.111  0.00  0.00    +0.021 C 
ATOM     14  C   LIG    1      -22.644  80.837  37.421  0.00  0.00    +0.107 C 
BRANCH  11  15
ATOM     15  C   LIG    1      -20.043  80.024  35.519  0.00  0.00    +0.011 A 
ATOM     16  C   LIG    1      -19.613  79.253  34.430  0.00  0.00    +0.129 A 
ATOM     17  F   LIG    1      -20.363  79.190  33.321  0.00  0.00    -0.205 F 
ATOM     18  C   LIG    1      -18.420  78.523  34.468  0.00  0.00    +0.041 A 
ATOM     19  C   LIG    1      -17.633  78.543  35.618  0.00  0.00    +0.041 A 
ATOM     20  C   LIG    1      -18.055  79.284  36.712  0.00  0.00    +0.124 A 
ATOM     21  F   LIG    1      -17.318  79.294  37.830  0.00  0.00    -0.205 F 
ATOM     22  C   LIG    1      -19.236  80.018  36.669  0.00  0.00    +0.046 A 
ENDBRANCH  11  15
ENDBRANCH   4  10
BRANCH   1  24
ATOM     23  C   LIG    1      -22.214  76.705  31.885  0.00  0.00    +0.208 C 
ATOM     24  N   LIG    1      -23.292  77.318  31.522  0.00  0.00    -0.211 NA
BRANCH  23  25
ATOM     25  C   LIG    1      -21.190  76.390  30.852  0.00  0.00    +0.132 C 
ATOM     26  C   LIG    1      -20.616  77.517  29.998  0.00  0.00    +0.033 C 
ATOM     27  C   LIG    1      -21.584  76.552  29.387  0.00  0.00    +0.033 C 
BRANCH  25  28
ATOM     28  C   LIG    1      -20.298  75.314  31.191  0.00  0.00    +0.079 C 
ATOM     29  N   LIG    1      -19.540  74.467  31.456  0.00  0.00    -0.195 NA
ENDBRANCH  25  28
ENDBRANCH  23  25
BRANCH  23  30
ATOM     30  O   LIG    1      -21.844  76.320  33.123  0.00  0.00    -0.494 OA
ATOM     31  H   LIG    1      -21.148  75.638  33.087  0.00  0.00    +0.293 HD
ENDBRANCH  23  30
ENDBRANCH   1  24
TORSDOF 6
ENDMDL
MODEL 2
REMARK VINA RESULT:      -5.7     20.913     23.310
REMARK  Name = pdb/CHEMBL3891891.pdb
REMARK                            x       y       z     vdW  Elec       q    Type
REMARK                         _______ _______ _______ _____ _____    ______ ____
ROOT
ATOM      1  C   LIG    1      -32.116  93.923  23.261  0.00  0.00    +0.131 A 
ATOM      2  C   LIG    1      -32.316  93.504  21.964  0.00  0.00    +0.183 A 
ATOM      3  N   LIG    1      -33.334  92.811  21.364  0.00  0.00    -0.211 NA
ATOM      4  C   LIG    1      -33.237  92.536  20.080  0.00  0.00    +0.126 A 
ATOM      5  C   LIG    1      -32.062  93.019  19.258  0.00  0.00    +0.063 A 
ATOM      6  C   LIG    1      -31.109  93.714  19.890  0.00  0.00    +0.118 A 
ATOM      7  N   LIG    1      -31.212  93.967  21.247  0.00  0.00    -0.220 N 
ATOM      8  N   LIG    1      -30.346  94.661  22.027  0.00  0.00    -0.171 NA
ATOM      9  C   LIG    1      -30.892  94.611  23.243  0.00  0.00    +0.164 A 
ENDROOT
BRANCH   4  10
ATOM     10  N   LIG    1      -34.257  91.816  19.469  0.00  0.00    -0.308 N 
ATOM     11  C   LIG    1      -34.090  90.421  19.013  0.00  0.00    +0.108 C 
ATOM     12  C   LIG    1      -35.335  89.682  19.549  0.00  0.00    +0.029 C 
ATOM     13  C   LIG    1      -36.107  90.709  20.371  0.00  0.00    +0.021 C 
ATOM     14  C   LIG    1      -35.669  92.039  19.798  0.00  0.00    +0.107 C 
BRANCH  11  15
ATOM     15  C   LIG    1      -33.961  90.350  17.500  0.00  0.00    +0.011 A 
ATOM     16  C   LIG    1      -33.512  89.175  16.882  0.00  0.00    +0.129 A 
ATOM     17  F   LIG    1      -33.142  88.127  17.633  0.00  0.00    -0.205 F 
ATOM     18  C   LIG    1      -33.417  89.063  15.491  0.00  0.00    +0.041 A 
ATOM     19  C   LIG    1      -33.764  90.144  14.684  0.00  0.00    +0.041 A 
ATOM     20  C   LIG    1      -34.191  91.321  15.280  0.00  0.00    +0.124 A 
ATOM     21  F   LIG    1      -34.506  92.375  14.516  0.00  0.00    -0.205 F 
ATOM     22  C   LIG    1      -34.295  91.429  16.663  0.00  0.00    +0.046 A 
ENDBRANCH  11  15
ENDBRANCH   4  10
BRANCH   1  24
ATOM     23  C   LIG    1      -32.612  92.637  25.154  0.00  0.00    +0.208 C 
ATOM     24  N   LIG    1      -32.841  93.683  24.432  0.00  0.00    -0.211 NA
BRANCH  23  25
ATOM     25  C   LIG    1      -33.413  92.435  26.392  0.00  0.00    +0.132 C 
ATOM     26  C   LIG    1      -32.800  92.785  27.745  0.00  0.00    +0.033 C 
ATOM     27  C   LIG    1      -32.964  91.347  27.361  0.00  0.00    +0.033 C 
BRANCH  25  28
ATOM     28  C   LIG    1      -34.826  92.659  26.243  0.00  0.00    +0.079 C 
ATOM     29  N   LIG    1      -35.965  92.883  26.118  0.00  0.00    -0.195 NA
ENDBRANCH  25  28
ENDBRANCH  23  25
BRANCH  23  30
ATOM     30  O   LIG    1      -31.738  91.635  24.927  0.00  0.00    -0.494 OA
ATOM     31  H   LIG    1      -31.905  91.210  24.066  0.00  0.00    +0.293 HD
ENDBRANCH  23  30
ENDBRANCH   1  24
TORSDOF 6
ENDMDL
MODEL 3
REMARK VINA RESULT:      -5.6      2.187      5.113
REMARK  Name = pdb/CHEMBL3891891.pdb
REMARK                            x       y       z     vdW  Elec       q    Type
REMARK                         _______ _______ _______ _____ _____    ______ ____
ROOT
ATOM      1  C   LIG    1      -23.513  77.245  30.876  0.00  0.00    +0.131 A 
ATOM      2  C   LIG    1      -22.229  77.551  31.269  0.00  0.00    +0.183 A 
ATOM      3  N   LIG    1      -21.708  77.999  32.455  0.00  0.00    -0.211 NA
ATOM      4  C   LIG    1      -20.412  78.222  32.529  0.00  0.00    +0.126 A 
ATOM      5  C   LIG    1      -19.497  77.943  31.357  0.00  0.00    +0.063 A 
ATOM      6  C   LIG    1      -20.055  77.482  30.232  0.00  0.00    +0.118 A 
ATOM      7  N   LIG    1      -21.424  77.281  30.162  0.00  0.00    -0.220 N 
ATOM      8  N   LIG    1      -22.137  76.812  29.109  0.00  0.00    -0.171 NA
ATOM      9  C   LIG    1      -23.399  76.813  29.545  0.00  0.00    +0.164 A 
ENDROOT
BRANCH   4  10
ATOM     10  N   LIG    1      -19.881  78.695  33.723  0.00  0.00    -0.308 N 
ATOM     11  C   LIG    1      -20.597  78.602  35.011  0.00  0.00    +0.108 C 
ATOM     12  C   LIG    1      -19.551  78.045  36.002  0.00  0.00    +0.029 C 
ATOM     13  C   LIG    1      -18.301  77.768  35.173  0.00  0.00    +0.021 C 
ATOM     14  C   LIG    1      -18.438  78.693  33.985  0.00  0.00    +0.107 C 
BRANCH  11  15
ATOM     15  C   LIG    1      -21.153  79.953  35.430  0.00  0.00    +0.011 A 
ATOM     16  C   LIG    1      -22.465  80.314  35.094  0.00  0.00    +0.129 A 
ATOM     17  F   LIG    1      -23.215  79.485  34.353  0.00  0.00    -0.205 F 
ATOM     18  C   LIG    1      -23.020  81.534  35.495  0.00  0.00    +0.041 A 
ATOM     19  C   LIG    1      -22.257  82.430  36.239  0.00  0.00    +0.041 A 
ATOM     20  C   LIG    1      -20.950  82.098  36.562  0.00  0.00    +0.124 A 
ATOM     21  F   LIG    1      -20.199  82.961  37.258  0.00  0.00    -0.205 F 
ATOM     22  C   LIG    1      -20.401  80.880  36.172  0.00  0.00    +0.046 A 
ENDBRANCH  11  15
ENDBRANCH   4  10
BRANCH   1  24
ATOM     23  C   LIG    1      -25.196  76.469  32.306  0.00  0.00    +0.208 C 
ATOM     24  N   LIG    1      -24.740  77.394  31.528  0.00  0.00    -0.211 NA
BRANCH  23  25
ATOM     25  C   LIG    1      -26.507  76.684  32.977  0.00  0.00    +0.132 C 
ATOM     26  C   LIG    1      -26.556  77.441  34.300  0.00  0.00    +0.033 C 
ATOM     27  C   LIG    1      -26.761  75.958  34.294  0.00  0.00    +0.033 C 
BRANCH  25  28
ATOM     28  C   LIG    1      -27.621  76.863  32.085  0.00  0.00    +0.079 C 
ATOM     29  N   LIG    1      -28.508  77.047  31.348  0.00  0.00    -0.195 NA
ENDBRANCH  25  28
ENDBRANCH  23  25
BRANCH  23  30
ATOM     30  O   LIG    1      -24.653  75.268  32.591  0.00  0.00    -0.494 OA
ATOM     31  H   LIG    1      -23.714  75.235  32.332  0.00  0.00    +0.293 HD
ENDBRANCH  23  30
ENDBRANCH   1  24
TORSDOF 6
ENDMDL
MODEL 4
REMARK VINA RESULT:      -5.5     14.779     19.048
REMARK  Name = pdb/CHEMBL3891891.pdb
REMARK                            x       y       z     vdW  Elec       q    Type
REMARK                         _______ _______ _______ _____ _____    ______ ____
ROOT
ATOM      1  C   LIG    1      -37.665  76.279  25.430  0.00  0.00    +0.131 A 
ATOM      2  C   LIG    1      -38.374  75.178  25.004  0.00  0.00    +0.183 A 
ATOM      3  N   LIG    1      -38.130  73.833  25.087  0.00  0.00    -0.211 NA
ATOM      4  C   LIG    1      -39.005  73.000  24.563  0.00  0.00    +0.126 A 
ATOM      5  C   LIG    1      -40.286  73.499  23.930  0.00  0.00    +0.063 A 
ATOM      6  C   LIG    1      -40.486  74.822  23.900  0.00  0.00    +0.118 A 
ATOM      7  N   LIG    1      -39.541  75.684  24.429  0.00  0.00    -0.220 N 
ATOM      8  N   LIG    1      -39.598  77.038  24.487  0.00  0.00    -0.171 NA
ATOM      9  C   LIG    1      -38.452  77.386  25.075  0.00  0.00    +0.164 A 
ENDROOT
BRANCH   4  10
ATOM     10  N   LIG    1      -38.753  71.634  24.626  0.00  0.00    -0.308 N 
ATOM     11  C   LIG    1      -38.409  70.941  25.883  0.00  0.00    +0.108 C 
ATOM     12  C   LIG    1      -39.319  69.693  25.904  0.00  0.00    +0.029 C 
ATOM     13  C   LIG    1      -40.206  69.805  24.669  0.00  0.00    +0.021 C 
ATOM     14  C   LIG    1      -39.411  70.682  23.727  0.00  0.00    +0.107 C 
BRANCH  11  15
ATOM     15  C   LIG    1      -36.929  70.599  25.935  0.00  0.00    +0.011 A 
ATOM     16  C   LIG    1      -36.051  71.370  26.709  0.00  0.00    +0.129 A 
ATOM     17  F   LIG    1      -36.510  72.447  27.363  0.00  0.00    -0.205 F 
ATOM     18  C   LIG    1      -34.690  71.062  26.808  0.00  0.00    +0.041 A 
ATOM     19  C   LIG    1      -34.176  69.968  26.116  0.00  0.00    +0.041 A 
ATOM     20  C   LIG    1      -35.027  69.206  25.329  0.00  0.00    +0.124 A 
ATOM     21  F   LIG    1      -34.541  68.166  24.641  0.00  0.00    -0.205 F 
ATOM     22  C   LIG    1      -36.382  69.508  25.239  0.00  0.00    +0.046 A 
ENDBRANCH  11  15
ENDBRANCH   4  10
BRANCH   1  24
ATOM     23  C   LIG    1      -36.166  76.003  27.208  0.00  0.00    +0.208 C 
ATOM     24  N   LIG    1      -36.393  76.396  25.998  0.00  0.00    -0.211 NA
BRANCH  23  25
ATOM     25  C   LIG    1      -34.792  76.150  27.759  0.00  0.00    +0.132 C 
ATOM     26  C   LIG    1      -33.883  74.927  27.839  0.00  0.00    +0.033 C 
ATOM     27  C   LIG    1      -34.485  75.479  29.094  0.00  0.00    +0.033 C 
BRANCH  25  28
ATOM     28  C   LIG    1      -34.159  77.411  27.482  0.00  0.00    +0.079 C 
ATOM     29  N   LIG    1      -33.685  78.454  27.253  0.00  0.00    -0.195 NA
ENDBRANCH  25  28
ENDBRANCH  23  25
BRANCH  23  30
ATOM     30  O   LIG    1      -37.036  75.486  28.100  0.00  0.00    -0.494 OA
ATOM     31  H   LIG    1      -37.952  75.544  27.773  0.00  0.00    +0.293 HD
ENDBRANCH  23  30
ENDBRANCH   1  24
TORSDOF 6
ENDMDL
MODEL 5
REMARK VINA RESULT:      -5.5     18.881     21.877
REMARK  Name = pdb/CHEMBL3891891.pdb
REMARK                            x       y       z     vdW  Elec       q    Type
REMARK                         _______ _______ _______ _____ _____    ______ ____
ROOT
ATOM      1  C   LIG    1      -24.247  82.190  12.337  0.00  0.00    +0.131 A 
ATOM      2  C   LIG    1      -23.960  83.537  12.339  0.00  0.00    +0.183 A 
ATOM      3  N   LIG    1      -23.046  84.285  13.032  0.00  0.00    -0.211 NA
ATOM      4  C   LIG    1      -23.013  85.587  12.830  0.00  0.00    +0.126 A 
ATOM      5  C   LIG    1      -23.921  86.248  11.816  0.00  0.00    +0.063 A 
ATOM      6  C   LIG    1      -24.777  85.466  11.148  0.00  0.00    +0.118 A 
ATOM      7  N   LIG    1      -24.817  84.104  11.395  0.00  0.00    -0.220 N 
ATOM      8  N   LIG    1      -25.612  83.180  10.800  0.00  0.00    -0.171 NA
ATOM      9  C   LIG    1      -25.273  82.032  11.391  0.00  0.00    +0.164 A 
ENDROOT
BRANCH   4  10
ATOM     10  N   LIG    1      -22.101  86.354  13.545  0.00  0.00    -0.308 N 
ATOM     11  C   LIG    1      -21.207  87.339  12.903  0.00  0.00    +0.108 C 
ATOM     12  C   LIG    1      -21.339  88.611  13.769  0.00  0.00    +0.029 C 
ATOM     13  C   LIG    1      -22.392  88.287  14.824  0.00  0.00    +0.021 C 
ATOM     14  C   LIG    1      -22.358  86.778  14.924  0.00  0.00    +0.107 C 
BRANCH  11  15
ATOM     15  C   LIG    1      -19.782  86.817  12.824  0.00  0.00    +0.011 A 
ATOM     16  C   LIG    1      -18.792  87.558  12.163  0.00  0.00    +0.129 A 
ATOM     17  F   LIG    1      -19.117  88.706  11.551  0.00  0.00    -0.205 F 
ATOM     18  C   LIG    1      -17.463  87.126  12.104  0.00  0.00    +0.041 A 
ATOM     19  C   LIG    1      -17.100  85.922  12.703  0.00  0.00    +0.041 A 
ATOM     20  C   LIG    1      -18.071  85.166  13.344  0.00  0.00    +0.124 A 
ATOM     21  F   LIG    1      -17.738  83.997  13.905  0.00  0.00    -0.205 F 
ATOM     22  C   LIG    1      -19.390  85.602  13.411  0.00  0.00    +0.046 A 
ENDBRANCH  11  15
ENDBRANCH   4  10
BRANCH   1  24
ATOM     23  C   LIG    1      -23.743  81.243  14.418  0.00  0.00    +0.208 C 
ATOM     24  N   LIG    1      -23.771  81.142  13.130  0.00  0.00    -0.211 NA
BRANCH  23  25
ATOM     25  C   LIG    1      -23.228  80.094  15.211  0.00  0.00    +0.132 C 
ATOM     26  C   LIG    1      -21.999  80.285  16.096  0.00  0.00    +0.033 C 
ATOM     27  C   LIG    1      -21.874  79.510  14.821  0.00  0.00    +0.033 C 
BRANCH  25  28
ATOM     28  C   LIG    1      -24.236  79.187  15.689  0.00  0.00    +0.079 C 
ATOM     29  N   LIG    1      -25.085  78.482  16.072  0.00  0.00    -0.195 NA
ENDBRANCH  25  28
ENDBRANCH  23  25
BRANCH  23  30
ATOM     30  O   LIG    1      -24.095  82.293  15.186  0.00  0.00    -0.494 OA
ATOM     31  H   LIG    1      -23.592  82.304  16.020  0.00  0.00    +0.293 HD
ENDBRANCH  23  30
ENDBRANCH   1  24
TORSDOF 6
ENDMDL
MODEL 6
REMARK VINA RESULT:      -5.3     18.799     21.521
REMARK  Name = pdb/CHEMBL3891891.pdb
REMARK                            x       y       z     vdW  Elec       q    Type
REMARK                         _______ _______ _______ _____ _____    ______ ____
ROOT
ATOM      1  C   LIG    1      -19.446  85.919  13.334  0.00  0.00    +0.131 A 
ATOM      2  C   LIG    1      -19.421  84.566  13.593  0.00  0.00    +0.183 A 
ATOM      3  N   LIG    1      -20.390  83.685  13.994  0.00  0.00    -0.211 NA
ATOM      4  C   LIG    1      -20.058  82.424  14.177  0.00  0.00    +0.126 A 
ATOM      5  C   LIG    1      -18.654  81.932  13.901  0.00  0.00    +0.063 A 
ATOM      6  C   LIG    1      -17.754  82.831  13.486  0.00  0.00    +0.118 A 
ATOM      7  N   LIG    1      -18.114  84.158  13.327  0.00  0.00    -0.220 N 
ATOM      8  N   LIG    1      -17.330  85.182  12.906  0.00  0.00    -0.171 NA
ATOM      9  C   LIG    1      -18.140  86.243  12.934  0.00  0.00    +0.164 A 
ENDROOT
BRANCH   4  10
ATOM     10  N   LIG    1      -21.032  81.529  14.604  0.00  0.00    -0.308 N 
ATOM     11  C   LIG    1      -20.970  80.839  15.908  0.00  0.00    +0.108 C 
ATOM     12  C   LIG    1      -22.381  81.014  16.511  0.00  0.00    +0.029 C 
ATOM     13  C   LIG    1      -23.149  81.888  15.525  0.00  0.00    +0.021 C 
ATOM     14  C   LIG    1      -22.437  81.666  14.209  0.00  0.00    +0.107 C 
BRANCH  11  15
ATOM     15  C   LIG    1      -20.570  79.382  15.741  0.00  0.00    +0.011 A 
ATOM     16  C   LIG    1      -19.287  78.954  16.108  0.00  0.00    +0.129 A 
ATOM     17  F   LIG    1      -18.391  79.843  16.559  0.00  0.00    -0.205 F 
ATOM     18  C   LIG    1      -18.899  77.614  16.002  0.00  0.00    +0.041 A 
ATOM     19  C   LIG    1      -19.797  76.670  15.508  0.00  0.00    +0.041 A 
ATOM     20  C   LIG    1      -21.063  77.081  15.120  0.00  0.00    +0.124 A 
ATOM     21  F   LIG    1      -21.927  76.187  14.624  0.00  0.00    -0.205 F 
ATOM     22  C   LIG    1      -21.452  78.412  15.236  0.00  0.00    +0.046 A 
ENDBRANCH  11  15
ENDBRANCH   4  10
BRANCH   1  24
ATOM     23  C   LIG    1      -21.256  87.171  12.535  0.00  0.00    +0.208 C 
ATOM     24  N   LIG    1      -20.452  86.874  13.502  0.00  0.00    -0.211 NA
BRANCH  23  25
ATOM     25  C   LIG    1      -22.310  88.194  12.773  0.00  0.00    +0.132 C 
ATOM     26  C   LIG    1      -23.506  88.270  11.828  0.00  0.00    +0.033 C 
ATOM     27  C   LIG    1      -22.446  89.325  11.759  0.00  0.00    +0.033 C 
BRANCH  25  28
ATOM     28  C   LIG    1      -22.556  88.501  14.156  0.00  0.00    +0.079 C 
ATOM     29  N   LIG    1      -22.729  88.717  15.291  0.00  0.00    -0.195 NA
ENDBRANCH  25  28
ENDBRANCH  23  25
BRANCH  23  30
ATOM     30  O   LIG    1      -21.262  86.695  11.273  0.00  0.00    -0.494 OA
ATOM     31  H   LIG    1      -21.278  87.421  10.623  0.00  0.00    +0.293 HD
ENDBRANCH  23  30
ENDBRANCH   1  24
TORSDOF 6
ENDMDL
MODEL 7
REMARK VINA RESULT:      -5.3     14.047     17.167
REMARK  Name = pdb/CHEMBL3891891.pdb
REMARK                            x       y       z     vdW  Elec       q    Type
REMARK                         _______ _______ _______ _____ _____    ______ ____
ROOT
ATOM      1  C   LIG    1      -34.209  70.485  28.068  0.00  0.00    +0.131 A 
ATOM      2  C   LIG    1      -33.933  71.814  28.296  0.00  0.00    +0.183 A 
ATOM      3  N   LIG    1      -34.511  72.969  27.839  0.00  0.00    -0.211 NA
ATOM      4  C   LIG    1      -34.008  74.122  28.229  0.00  0.00    +0.126 A 
ATOM      5  C   LIG    1      -32.853  74.188  29.204  0.00  0.00    +0.063 A 
ATOM      6  C   LIG    1      -32.344  73.029  29.639  0.00  0.00    +0.118 A 
ATOM      7  N   LIG    1      -32.866  71.826  29.196  0.00  0.00    -0.220 N 
ATOM      8  N   LIG    1      -32.474  70.576  29.546  0.00  0.00    -0.171 NA
ATOM      9  C   LIG    1      -33.279  69.775  28.844  0.00  0.00    +0.164 A 
ENDROOT
BRANCH   4  10
ATOM     10  N   LIG    1      -34.578  75.298  27.753  0.00  0.00    -0.308 N 
ATOM     11  C   LIG    1      -35.960  75.705  28.075  0.00  0.00    +0.108 C 
ATOM     12  C   LIG    1      -35.845  77.186  28.495  0.00  0.00    +0.029 C 
ATOM     13  C   LIG    1      -34.355  77.511  28.469  0.00  0.00    +0.021 C 
ATOM     14  C   LIG    1      -33.778  76.501  27.502  0.00  0.00    +0.107 C 
BRANCH  11  15
ATOM     15  C   LIG    1      -36.885  75.493  26.887  0.00  0.00    +0.011 A 
ATOM     16  C   LIG    1      -37.731  74.377  26.838  0.00  0.00    +0.129 A 
ATOM     17  F   LIG    1      -37.685  73.463  27.818  0.00  0.00    -0.205 F 
ATOM     18  C   LIG    1      -38.621  74.171  25.779  0.00  0.00    +0.041 A 
ATOM     19  C   LIG    1      -38.671  75.087  24.730  0.00  0.00    +0.041 A 
ATOM     20  C   LIG    1      -37.826  76.186  24.752  0.00  0.00    +0.124 A 
ATOM     21  F   LIG    1      -37.850  77.061  23.739  0.00  0.00    -0.205 F 
ATOM     22  C   LIG    1      -36.949  76.396  25.811  0.00  0.00    +0.046 A 
ENDBRANCH  11  15
ENDBRANCH   4  10
BRANCH   1  24
ATOM     23  C   LIG    1      -34.800  69.640  25.965  0.00  0.00    +0.208 C 
ATOM     24  N   LIG    1      -35.111  69.863  27.199  0.00  0.00    -0.211 NA
BRANCH  23  25
ATOM     25  C   LIG    1      -35.799  68.973  25.088  0.00  0.00    +0.132 C 
ATOM     26  C   LIG    1      -37.163  69.624  24.876  0.00  0.00    +0.033 C 
ATOM     27  C   LIG    1      -37.056  68.407  25.742  0.00  0.00    +0.033 C 
BRANCH  25  28
ATOM     28  C   LIG    1      -35.243  68.255  23.972  0.00  0.00    +0.079 C 
ATOM     29  N   LIG    1      -34.824  67.689  23.041  0.00  0.00    -0.195 NA
ENDBRANCH  25  28
ENDBRANCH  23  25
BRANCH  23  30
ATOM     30  O   LIG    1      -33.665  69.965  25.314  0.00  0.00    -0.494 OA
ATOM     31  H   LIG    1      -33.309  69.202  24.823  0.00  0.00    +0.293 HD
ENDBRANCH  23  30
ENDBRANCH   1  24
TORSDOF 6
ENDMDL
MODEL 8
REMARK VINA RESULT:      -5.3     18.684     21.636
REMARK  Name = pdb/CHEMBL3891891.pdb
REMARK                            x       y       z     vdW  Elec       q    Type
REMARK                         _______ _______ _______ _____ _____    ______ ____
ROOT
ATOM      1  C   LIG    1      -19.248  84.863  12.919  0.00  0.00    +0.131 A 
ATOM      2  C   LIG    1      -18.927  83.657  13.502  0.00  0.00    +0.183 A 
ATOM      3  N   LIG    1      -19.691  82.682  14.087  0.00  0.00    -0.211 NA
ATOM      4  C   LIG    1      -19.087  81.621  14.581  0.00  0.00    +0.126 A 
ATOM      5  C   LIG    1      -17.589  81.441  14.463  0.00  0.00    +0.063 A 
ATOM      6  C   LIG    1      -16.895  82.412  13.859  0.00  0.00    +0.118 A 
ATOM      7  N   LIG    1      -17.543  83.534  13.372  0.00  0.00    -0.220 N 
ATOM      8  N   LIG    1      -16.990  84.594  12.730  0.00  0.00    -0.171 NA
ATOM      9  C   LIG    1      -18.026  85.397  12.479  0.00  0.00    +0.164 A 
ENDROOT
BRANCH   4  10
ATOM     10  N   LIG    1      -19.855  80.637  15.194  0.00  0.00    -0.308 N 
ATOM     11  C   LIG    1      -20.550  79.577  14.436  0.00  0.00    +0.108 C 
ATOM     12  C   LIG    1      -20.202  78.270  15.182  0.00  0.00    +0.029 C 
ATOM     13  C   LIG    1      -19.236  78.670  16.292  0.00  0.00    +0.021 C 
ATOM     14  C   LIG    1      -19.542  80.131  16.534  0.00  0.00    +0.107 C 
BRANCH  11  15
ATOM     15  C   LIG    1      -22.045  79.842  14.366  0.00  0.00    +0.011 A 
ATOM     16  C   LIG    1      -22.586  80.569  13.297  0.00  0.00    +0.129 A 
ATOM     17  F   LIG    1      -21.774  81.078  12.359  0.00  0.00    -0.205 F 
ATOM     18  C   LIG    1      -23.961  80.800  13.182  0.00  0.00    +0.041 A 
ATOM     19  C   LIG    1      -24.828  80.310  14.156  0.00  0.00    +0.041 A 
ATOM     20  C   LIG    1      -24.307  79.607  15.232  0.00  0.00    +0.124 A 
ATOM     21  F   LIG    1      -25.129  79.151  16.186  0.00  0.00    -0.205 F 
ATOM     22  C   LIG    1      -22.941  79.369  15.341  0.00  0.00    +0.046 A 
ENDBRANCH  11  15
ENDBRANCH   4  10
BRANCH   1  24
ATOM     23  C   LIG    1      -20.817  86.395  13.737  0.00  0.00    +0.208 C 
ATOM     24  N   LIG    1      -20.460  85.551  12.826  0.00  0.00    -0.211 NA
BRANCH  23  25
ATOM     25  C   LIG    1      -22.119  87.101  13.584  0.00  0.00    +0.132 C 
ATOM     26  C   LIG    1      -22.132  88.618  13.414  0.00  0.00    +0.033 C 
ATOM     27  C   LIG    1      -22.568  88.019  14.716  0.00  0.00    +0.033 C 
BRANCH  25  28
ATOM     28  C   LIG    1      -23.130  86.361  12.879  0.00  0.00    +0.079 C 
ATOM     29  N   LIG    1      -23.983  85.782  12.329  0.00  0.00    -0.195 NA
ENDBRANCH  25  28
ENDBRANCH  23  25
BRANCH  23  30
ATOM     30  O   LIG    1      -20.174  86.725  14.875  0.00  0.00    -0.494 OA
ATOM     31  H   LIG    1      -20.027  87.686  14.931  0.00  0.00    +0.293 HD
ENDBRANCH  23  30
ENDBRANCH   1  24
TORSDOF 6
ENDMDL
MODEL 9
REMARK VINA RESULT:      -5.3     18.878     21.764
REMARK  Name = pdb/CHEMBL3891891.pdb
REMARK                            x       y       z     vdW  Elec       q    Type
REMARK                         _______ _______ _______ _____ _____    ______ ____
ROOT
ATOM      1  C   LIG    1      -24.121  84.988  11.659  0.00  0.00    +0.131 A 
ATOM      2  C   LIG    1      -24.114  83.723  12.203  0.00  0.00    +0.183 A 
ATOM      3  N   LIG    1      -23.249  83.087  13.053  0.00  0.00    -0.211 NA
ATOM      4  C   LIG    1      -23.503  81.841  13.394  0.00  0.00    +0.126 A 
ATOM      5  C   LIG    1      -24.749  81.131  12.912  0.00  0.00    +0.063 A 
ATOM      6  C   LIG    1      -25.574  81.808  12.105  0.00  0.00    +0.118 A 
ATOM      7  N   LIG    1      -25.275  83.107  11.732  0.00  0.00    -0.220 N 
ATOM      8  N   LIG    1      -26.006  83.927  10.936  0.00  0.00    -0.171 NA
ATOM      9  C   LIG    1      -25.290  85.052  10.884  0.00  0.00    +0.164 A 
ENDROOT
BRANCH   4  10
ATOM     10  N   LIG    1      -22.617  81.183  14.241  0.00  0.00    -0.308 N 
ATOM     11  C   LIG    1      -21.757  81.895  15.208  0.00  0.00    +0.108 C 
ATOM     12  C   LIG    1      -21.932  81.120  16.532  0.00  0.00    +0.029 C 
ATOM     13  C   LIG    1      -22.974  80.043  16.249  0.00  0.00    +0.021 C 
ATOM     14  C   LIG    1      -22.889  79.837  14.753  0.00  0.00    +0.107 C 
BRANCH  11  15
ATOM     15  C   LIG    1      -20.315  81.939  14.730  0.00  0.00    +0.011 A 
ATOM     16  C   LIG    1      -19.803  83.098  14.131  0.00  0.00    +0.129 A 
ATOM     17  F   LIG    1      -20.604  84.153  13.929  0.00  0.00    -0.205 F 
ATOM     18  C   LIG    1      -18.470  83.186  13.714  0.00  0.00    +0.041 A 
ATOM     19  C   LIG    1      -17.619  82.095  13.882  0.00  0.00    +0.041 A 
ATOM     20  C   LIG    1      -18.116  80.934  14.454  0.00  0.00    +0.124 A 
ATOM     21  F   LIG    1      -17.314  79.872  14.600  0.00  0.00    -0.205 F 
ATOM     22  C   LIG    1      -19.438  80.850  14.878  0.00  0.00    +0.046 A 
ENDBRANCH  11  15
ENDBRANCH   4  10
BRANCH   1  24
ATOM     23  C   LIG    1      -22.780  86.503  12.837  0.00  0.00    +0.208 C 
ATOM     24  N   LIG    1      -23.179  86.020  11.708  0.00  0.00    -0.211 NA
BRANCH  23  25
ATOM     25  C   LIG    1      -21.773  87.599  12.827  0.00  0.00    +0.132 C 
ATOM     26  C   LIG    1      -22.224  89.027  12.531  0.00  0.00    +0.033 C 
ATOM     27  C   LIG    1      -21.460  88.266  11.492  0.00  0.00    +0.033 C 
BRANCH  25  28
ATOM     28  C   LIG    1      -20.696  87.441  13.767  0.00  0.00    +0.079 C 
ATOM     29  N   LIG    1      -19.811  87.356  14.525  0.00  0.00    -0.195 NA
ENDBRANCH  25  28
ENDBRANCH  23  25
BRANCH  23  30
ATOM     30  O   LIG    1      -23.181  86.172  14.081  0.00  0.00    -0.494 OA
ATOM     31  H   LIG    1      -22.888  85.273  14.318  0.00  0.00    +0.293 HD
ENDBRANCH  23  30
ENDBRANCH   1  24
TORSDOF 6
ENDMDL
