MODEL 1
REMARK VINA RESULT:      -7.0      0.000      0.000
REMARK  Name = pdb/CHEMBL2113063.pdb
REMARK                            x       y       z     vdW  Elec       q    Type
REMARK                         _______ _______ _______ _____ _____    ______ ____
ROOT
ATOM      1  C   LIG    1      -25.572  77.320  36.978  0.00  0.00    +0.046 C 
ATOM      2  C   LIG    1      -24.707  78.476  36.500  0.00  0.00    +0.115 C 
ATOM      3  C   LIG    1      -23.456  78.001  35.692  0.00  0.00    +0.175 C 
ATOM      4  N   LIG    1      -23.291  78.163  34.127  0.00  0.00    -0.307 N 
ATOM      5  C   LIG    1      -22.071  78.561  33.675  0.00  0.00    +0.077 A 
ATOM      6  C   LIG    1      -21.385  79.635  34.193  0.00  0.00    +0.077 A 
ATOM      7  N   LIG    1      -21.948  80.438  35.132  0.00  0.00    -0.311 N 
ATOM      8  C   LIG    1      -20.740  80.414  36.020  0.00  0.00    +0.052 A 
ATOM      9  C   LIG    1      -20.730  80.554  37.433  0.00  0.00    +0.026 A 
ATOM     10  C   LIG    1      -19.672  80.021  38.176  0.00  0.00    +0.002 A 
ATOM     11  C   LIG    1      -18.564  79.470  37.556  0.00  0.00    +0.001 A 
ATOM     12  C   LIG    1      -18.497  79.392  36.165  0.00  0.00    +0.010 A 
ATOM     13  C   LIG    1      -19.603  79.781  35.371  0.00  0.00    +0.008 A 
ATOM     14  C   LIG    1      -23.256  80.336  35.732  0.00  0.00    +0.225 C 
ATOM     15  C   LIG    1      -19.991  79.450  34.059  0.00  0.00    +0.022 A 
ATOM     16  C   LIG    1      -19.269  78.608  33.179  0.00  0.00    +0.052 A 
ATOM     17  C   LIG    1      -17.903  78.190  32.946  0.00  0.00    +0.245 C 
ATOM     18  O   LIG    1      -16.884  78.277  33.539  0.00  0.00    -0.270 OA
ATOM     19  N   LIG    1      -18.005  77.538  31.694  0.00  0.00    -0.307 N 
ATOM     20  H   LIG    1      -17.163  77.196  31.258  0.00  0.00    +0.149 HD
ATOM     21  C   LIG    1      -19.319  77.501  31.080  0.00  0.00    +0.141 C 
ATOM     22  C   LIG    1      -20.091  78.058  32.187  0.00  0.00    -0.008 A 
ATOM     23  C   LIG    1      -21.421  77.980  32.605  0.00  0.00    +0.015 A 
ATOM     24  C   LIG    1      -22.508  77.542  31.882  0.00  0.00    +0.008 A 
ATOM     25  C   LIG    1      -22.582  77.260  30.492  0.00  0.00    +0.010 A 
ATOM     26  C   LIG    1      -23.788  77.211  29.841  0.00  0.00    +0.001 A 
ATOM     27  C   LIG    1      -24.936  77.368  30.604  0.00  0.00    +0.002 A 
ATOM     28  C   LIG    1      -24.933  77.561  32.043  0.00  0.00    +0.026 A 
ATOM     29  C   LIG    1      -23.706  77.664  32.782  0.00  0.00    +0.053 A 
ATOM     30  C   LIG    1      -22.521  76.987  36.371  0.00  0.00    +0.070 C 
ATOM     31  O   LIG    1      -22.817  79.152  36.344  0.00  0.00    -0.328 OA
ATOM     32  C   LIG    1      -24.835  79.812  35.706  0.00  0.00    +0.094 C 
ENDROOT
BRANCH   2  33
ATOM     33  O   LIG    1      -24.403  78.958  37.917  0.00  0.00    -0.384 OA
ATOM     34  H   LIG    1      -24.064  79.868  37.910  0.00  0.00    +0.210 HD
ENDBRANCH   2  33
TORSDOF 1
ENDMDL
MODEL 2
REMARK VINA RESULT:      -6.8      1.989      5.194
REMARK  Name = pdb/CHEMBL2113063.pdb
REMARK                            x       y       z     vdW  Elec       q    Type
REMARK                         _______ _______ _______ _____ _____    ______ ____
ROOT
ATOM      1  C   LIG    1      -19.386  80.170  36.775  0.00  0.00    +0.046 C 
ATOM      2  C   LIG    1      -20.225  78.915  36.583  0.00  0.00    +0.115 C 
ATOM      3  C   LIG    1      -21.084  78.956  35.278  0.00  0.00    +0.175 C 
ATOM      4  N   LIG    1      -20.784  78.094  33.986  0.00  0.00    -0.307 N 
ATOM      5  C   LIG    1      -21.853  77.522  33.367  0.00  0.00    +0.077 A 
ATOM      6  C   LIG    1      -22.815  76.799  34.031  0.00  0.00    +0.077 A 
ATOM      7  N   LIG    1      -22.692  76.521  35.354  0.00  0.00    -0.311 N 
ATOM      8  C   LIG    1      -24.097  76.937  35.675  0.00  0.00    +0.052 A 
ATOM      9  C   LIG    1      -24.559  77.460  36.912  0.00  0.00    +0.026 A 
ATOM     10  C   LIG    1      -25.702  78.266  36.941  0.00  0.00    +0.002 A 
ATOM     11  C   LIG    1      -26.473  78.461  35.807  0.00  0.00    +0.001 A 
ATOM     12  C   LIG    1      -26.098  77.892  34.590  0.00  0.00    +0.010 A 
ATOM     13  C   LIG    1      -24.873  77.193  34.472  0.00  0.00    +0.008 A 
ATOM     14  C   LIG    1      -21.630  76.897  36.256  0.00  0.00    +0.225 C 
ATOM     15  C   LIG    1      -24.057  76.890  33.365  0.00  0.00    +0.022 A 
ATOM     16  C   LIG    1      -24.343  77.229  32.020  0.00  0.00    +0.052 A 
ATOM     17  C   LIG    1      -25.494  77.481  31.180  0.00  0.00    +0.245 C 
ATOM     18  O   LIG    1      -26.647  77.666  31.367  0.00  0.00    -0.270 OA
ATOM     19  N   LIG    1      -24.918  77.488  29.888  0.00  0.00    -0.307 N 
ATOM     20  H   LIG    1      -25.526  77.585  29.089  0.00  0.00    +0.149 HD
ATOM     21  C   LIG    1      -23.489  77.251  29.806  0.00  0.00    +0.141 C 
ATOM     22  C   LIG    1      -23.185  77.270  31.234  0.00  0.00    -0.008 A 
ATOM     23  C   LIG    1      -22.050  77.543  32.001  0.00  0.00    +0.015 A 
ATOM     24  C   LIG    1      -20.742  77.610  31.577  0.00  0.00    +0.008 A 
ATOM     25  C   LIG    1      -20.205  77.225  30.319  0.00  0.00    +0.010 A 
ATOM     26  C   LIG    1      -18.864  76.981  30.165  0.00  0.00    +0.001 A 
ATOM     27  C   LIG    1      -18.041  77.202  31.260  0.00  0.00    +0.002 A 
ATOM     28  C   LIG    1      -18.513  77.689  32.544  0.00  0.00    +0.026 A 
ATOM     29  C   LIG    1      -19.908  77.925  32.788  0.00  0.00    +0.053 A 
ATOM     30  C   LIG    1      -22.021  80.160  35.087  0.00  0.00    +0.070 C 
ATOM     31  O   LIG    1      -22.055  78.226  36.104  0.00  0.00    -0.328 OA
ATOM     32  C   LIG    1      -20.060  77.366  36.544  0.00  0.00    +0.094 C 
ENDROOT
BRANCH   2  33
ATOM     33  O   LIG    1      -21.016  79.134  37.872  0.00  0.00    -0.384 OA
ATOM     34  H   LIG    1      -21.874  79.548  37.686  0.00  0.00    +0.210 HD
ENDBRANCH   2  33
TORSDOF 1
ENDMDL
MODEL 3
REMARK VINA RESULT:      -6.8      2.440      7.026
REMARK  Name = pdb/CHEMBL2113063.pdb
REMARK                            x       y       z     vdW  Elec       q    Type
REMARK                         _______ _______ _______ _____ _____    ______ ____
ROOT
ATOM      1  C   LIG    1      -18.339  76.385  32.929  0.00  0.00    +0.046 C 
ATOM      2  C   LIG    1      -19.566  76.835  32.151  0.00  0.00    +0.115 C 
ATOM      3  C   LIG    1      -20.856  76.882  33.032  0.00  0.00    +0.175 C 
ATOM      4  N   LIG    1      -21.555  78.215  33.520  0.00  0.00    -0.307 N 
ATOM      5  C   LIG    1      -22.914  78.255  33.460  0.00  0.00    +0.077 A 
ATOM      6  C   LIG    1      -23.634  77.893  32.347  0.00  0.00    +0.077 A 
ATOM      7  N   LIG    1      -23.010  77.570  31.184  0.00  0.00    -0.311 N 
ATOM      8  C   LIG    1      -23.820  76.325  30.978  0.00  0.00    +0.052 A 
ATOM      9  C   LIG    1      -23.404  75.153  30.293  0.00  0.00    +0.026 A 
ATOM     10  C   LIG    1      -24.000  73.924  30.595  0.00  0.00    +0.002 A 
ATOM     11  C   LIG    1      -25.081  73.842  31.457  0.00  0.00    +0.001 A 
ATOM     12  C   LIG    1      -25.574  74.985  32.084  0.00  0.00    +0.010 A 
ATOM     13  C   LIG    1      -24.916  76.228  31.930  0.00  0.00    +0.008 A 
ATOM     14  C   LIG    1      -21.595  77.535  30.906  0.00  0.00    +0.225 C 
ATOM     15  C   LIG    1      -24.906  77.400  32.711  0.00  0.00    +0.022 A 
ATOM     16  C   LIG    1      -25.647  77.596  33.902  0.00  0.00    +0.052 A 
ATOM     17  C   LIG    1      -26.870  77.123  34.516  0.00  0.00    +0.245 C 
ATOM     18  O   LIG    1      -27.629  76.242  34.306  0.00  0.00    -0.270 OA
ATOM     19  N   LIG    1      -27.024  78.025  35.595  0.00  0.00    -0.307 N 
ATOM     20  H   LIG    1      -27.852  77.957  36.166  0.00  0.00    +0.149 HD
ATOM     21  C   LIG    1      -26.013  79.056  35.736  0.00  0.00    +0.141 C 
ATOM     22  C   LIG    1      -25.084  78.591  34.711  0.00  0.00    -0.008 A 
ATOM     23  C   LIG    1      -23.713  78.728  34.481  0.00  0.00    +0.015 A 
ATOM     24  C   LIG    1      -22.849  79.633  35.055  0.00  0.00    +0.008 A 
ATOM     25  C   LIG    1      -23.164  80.764  35.855  0.00  0.00    +0.010 A 
ATOM     26  C   LIG    1      -22.260  81.781  36.033  0.00  0.00    +0.001 A 
ATOM     27  C   LIG    1      -21.002  81.627  35.470  0.00  0.00    +0.002 A 
ATOM     28  C   LIG    1      -20.585  80.453  34.725  0.00  0.00    +0.026 A 
ATOM     29  C   LIG    1      -21.491  79.370  34.465  0.00  0.00    +0.053 A 
ATOM     30  C   LIG    1      -21.244  75.598  33.785  0.00  0.00    +0.070 C 
ATOM     31  O   LIG    1      -21.509  76.448  31.789  0.00  0.00    -0.328 OA
ATOM     32  C   LIG    1      -20.033  78.005  31.232  0.00  0.00    +0.094 C 
ENDROOT
BRANCH   2  33
ATOM     33  O   LIG    1      -19.501  75.655  31.182  0.00  0.00    -0.384 OA
ATOM     34  H   LIG    1      -20.392  75.381  30.909  0.00  0.00    +0.210 HD
ENDBRANCH   2  33
TORSDOF 1
ENDMDL
MODEL 4
REMARK VINA RESULT:      -6.7      1.976      5.163
REMARK  Name = pdb/CHEMBL2113063.pdb
REMARK                            x       y       z     vdW  Elec       q    Type
REMARK                         _______ _______ _______ _____ _____    ______ ____
ROOT
ATOM      1  C   LIG    1      -23.259  80.819  37.578  0.00  0.00    +0.046 C 
ATOM      2  C   LIG    1      -23.258  79.395  37.040  0.00  0.00    +0.115 C 
ATOM      3  C   LIG    1      -22.769  79.310  35.558  0.00  0.00    +0.175 C 
ATOM      4  N   LIG    1      -21.370  78.723  35.112  0.00  0.00    -0.307 N 
ATOM      5  C   LIG    1      -21.362  77.921  34.012  0.00  0.00    +0.077 A 
ATOM      6  C   LIG    1      -22.233  76.872  33.833  0.00  0.00    +0.077 A 
ATOM      7  N   LIG    1      -23.098  76.507  34.813  0.00  0.00    -0.311 N 
ATOM      8  C   LIG    1      -24.276  76.439  33.886  0.00  0.00    +0.052 A 
ATOM      9  C   LIG    1      -25.635  76.662  34.232  0.00  0.00    +0.026 A 
ATOM     10  C   LIG    1      -26.543  77.072  33.251  0.00  0.00    +0.002 A 
ATOM     11  C   LIG    1      -26.177  77.141  31.917  0.00  0.00    +0.001 A 
ATOM     12  C   LIG    1      -24.871  76.846  31.525  0.00  0.00    +0.010 A 
ATOM     13  C   LIG    1      -23.877  76.571  32.494  0.00  0.00    +0.008 A 
ATOM     14  C   LIG    1      -23.273  77.092  36.120  0.00  0.00    +0.225 C 
ATOM     15  C   LIG    1      -22.471  76.650  32.459  0.00  0.00    +0.022 A 
ATOM     16  C   LIG    1      -21.700  77.026  31.332  0.00  0.00    +0.052 A 
ATOM     17  C   LIG    1      -21.796  77.002  29.888  0.00  0.00    +0.245 C 
ATOM     18  O   LIG    1      -22.661  76.806  29.106  0.00  0.00    -0.270 OA
ATOM     19  N   LIG    1      -20.473  77.321  29.501  0.00  0.00    -0.307 N 
ATOM     20  H   LIG    1      -20.242  77.312  28.520  0.00  0.00    +0.149 HD
ATOM     21  C   LIG    1      -19.514  77.542  30.567  0.00  0.00    +0.141 C 
ATOM     22  C   LIG    1      -20.435  77.502  31.699  0.00  0.00    -0.008 A 
ATOM     23  C   LIG    1      -20.436  78.025  32.994  0.00  0.00    +0.015 A 
ATOM     24  C   LIG    1      -19.368  78.533  33.699  0.00  0.00    +0.008 A 
ATOM     25  C   LIG    1      -17.987  78.465  33.372  0.00  0.00    +0.010 A 
ATOM     26  C   LIG    1      -17.022  78.660  34.327  0.00  0.00    +0.001 A 
ATOM     27  C   LIG    1      -17.442  79.003  35.603  0.00  0.00    +0.002 A 
ATOM     28  C   LIG    1      -18.833  79.185  35.978  0.00  0.00    +0.026 A 
ATOM     29  C   LIG    1      -19.897  78.957  35.041  0.00  0.00    +0.053 A 
ATOM     30  C   LIG    1      -23.498  80.184  34.523  0.00  0.00    +0.070 C 
ATOM     31  O   LIG    1      -23.768  78.236  35.475  0.00  0.00    -0.328 OA
ATOM     32  C   LIG    1      -22.708  77.983  37.406  0.00  0.00    +0.094 C 
ENDROOT
BRANCH   2  33
ATOM     33  O   LIG    1      -24.765  79.225  37.224  0.00  0.00    -0.384 OA
ATOM     34  H   LIG    1      -25.192  80.079  37.402  0.00  0.00    +0.210 HD
ENDBRANCH   2  33
TORSDOF 1
ENDMDL
MODEL 5
REMARK VINA RESULT:      -6.7     17.616     21.201
REMARK  Name = pdb/CHEMBL2113063.pdb
REMARK                            x       y       z     vdW  Elec       q    Type
REMARK                         _______ _______ _______ _____ _____    ______ ____
ROOT
ATOM      1  C   LIG    1      -43.845  78.102  25.969  0.00  0.00    +0.046 C 
ATOM      2  C   LIG    1      -42.476  77.981  25.318  0.00  0.00    +0.115 C 
ATOM      3  C   LIG    1      -41.846  76.561  25.497  0.00  0.00    +0.175 C 
ATOM      4  N   LIG    1      -41.706  75.495  24.337  0.00  0.00    -0.307 N 
ATOM      5  C   LIG    1      -40.533  74.808  24.272  0.00  0.00    +0.077 A 
ATOM      6  C   LIG    1      -39.298  75.411  24.317  0.00  0.00    +0.077 A 
ATOM      7  N   LIG    1      -39.180  76.764  24.323  0.00  0.00    -0.311 N 
ATOM      8  C   LIG    1      -38.204  76.774  25.462  0.00  0.00    +0.052 A 
ATOM      9  C   LIG    1      -38.028  77.814  26.412  0.00  0.00    +0.026 A 
ATOM     10  C   LIG    1      -37.496  77.521  27.672  0.00  0.00    +0.002 A 
ATOM     11  C   LIG    1      -37.014  76.258  27.973  0.00  0.00    +0.001 A 
ATOM     12  C   LIG    1      -37.090  75.230  27.034  0.00  0.00    +0.010 A 
ATOM     13  C   LIG    1      -37.753  75.433  25.800  0.00  0.00    +0.008 A 
ATOM     14  C   LIG    1      -40.227  77.756  24.294  0.00  0.00    +0.225 C 
ATOM     15  C   LIG    1      -38.337  74.542  24.879  0.00  0.00    +0.022 A 
ATOM     16  C   LIG    1      -38.352  73.131  25.002  0.00  0.00    +0.052 A 
ATOM     17  C   LIG    1      -37.564  72.081  25.611  0.00  0.00    +0.245 C 
ATOM     18  O   LIG    1      -36.683  72.041  26.398  0.00  0.00    -0.270 OA
ATOM     19  N   LIG    1      -38.123  70.920  25.029  0.00  0.00    -0.307 N 
ATOM     20  H   LIG    1      -37.707  70.026  25.240  0.00  0.00    +0.149 HD
ATOM     21  C   LIG    1      -39.203  71.117  24.081  0.00  0.00    +0.141 C 
ATOM     22  C   LIG    1      -39.392  72.553  24.264  0.00  0.00    -0.008 A 
ATOM     23  C   LIG    1      -40.452  73.443  24.081  0.00  0.00    +0.015 A 
ATOM     24  C   LIG    1      -41.613  73.238  23.369  0.00  0.00    +0.008 A 
ATOM     25  C   LIG    1      -41.927  72.167  22.490  0.00  0.00    +0.010 A 
ATOM     26  C   LIG    1      -42.933  72.280  21.565  0.00  0.00    +0.001 A 
ATOM     27  C   LIG    1      -43.684  73.446  21.573  0.00  0.00    +0.002 A 
ATOM     28  C   LIG    1      -43.479  74.537  22.510  0.00  0.00    +0.026 A 
ATOM     29  C   LIG    1      -42.417  74.504  23.476  0.00  0.00    +0.053 A 
ATOM     30  C   LIG    1      -41.714  76.024  26.932  0.00  0.00    +0.070 C 
ATOM     31  O   LIG    1      -40.592  77.322  25.578  0.00  0.00    -0.328 OA
ATOM     32  C   LIG    1      -41.785  78.222  23.941  0.00  0.00    +0.094 C 
ENDROOT
BRANCH   2  33
ATOM     33  O   LIG    1      -41.857  79.066  26.197  0.00  0.00    -0.384 OA
ATOM     34  H   LIG    1      -42.489  79.786  26.355  0.00  0.00    +0.210 HD
ENDBRANCH   2  33
TORSDOF 1
ENDMDL
MODEL 6
REMARK VINA RESULT:      -6.5      2.384      5.767
REMARK  Name = pdb/CHEMBL2113063.pdb
REMARK                            x       y       z     vdW  Elec       q    Type
REMARK                         _______ _______ _______ _____ _____    ______ ____
ROOT
ATOM      1  C   LIG    1      -22.192  72.981  32.095  0.00  0.00    +0.046 C 
ATOM      2  C   LIG    1      -22.807  74.342  31.804  0.00  0.00    +0.115 C 
ATOM      3  C   LIG    1      -22.467  75.404  32.899  0.00  0.00    +0.175 C 
ATOM      4  N   LIG    1      -21.461  76.607  32.693  0.00  0.00    -0.307 N 
ATOM      5  C   LIG    1      -21.837  77.816  33.191  0.00  0.00    +0.077 A 
ATOM      6  C   LIG    1      -23.072  78.377  32.966  0.00  0.00    +0.077 A 
ATOM      7  N   LIG    1      -23.965  77.789  32.128  0.00  0.00    -0.311 N 
ATOM      8  C   LIG    1      -25.106  77.916  33.093  0.00  0.00    +0.052 A 
ATOM      9  C   LIG    1      -26.232  77.056  33.185  0.00  0.00    +0.026 A 
ATOM     10  C   LIG    1      -26.933  76.956  34.391  0.00  0.00    +0.002 A 
ATOM     11  C   LIG    1      -26.634  77.775  35.466  0.00  0.00    +0.001 A 
ATOM     12  C   LIG    1      -25.588  78.695  35.386  0.00  0.00    +0.010 A 
ATOM     13  C   LIG    1      -24.754  78.733  34.244  0.00  0.00    +0.008 A 
ATOM     14  C   LIG    1      -23.820  76.566  31.378  0.00  0.00    +0.225 C 
ATOM     15  C   LIG    1      -23.445  79.214  34.041  0.00  0.00    +0.022 A 
ATOM     16  C   LIG    1      -22.641  79.839  35.024  0.00  0.00    +0.052 A 
ATOM     17  C   LIG    1      -22.806  80.619  36.232  0.00  0.00    +0.245 C 
ATOM     18  O   LIG    1      -23.710  80.877  36.949  0.00  0.00    -0.270 OA
ATOM     19  N   LIG    1      -21.490  81.083  36.463  0.00  0.00    -0.307 N 
ATOM     20  H   LIG    1      -21.329  81.718  37.231  0.00  0.00    +0.149 HD
ATOM     21  C   LIG    1      -20.477  80.685  35.504  0.00  0.00    +0.141 C 
ATOM     22  C   LIG    1      -21.277  79.749  34.720  0.00  0.00    -0.008 A 
ATOM     23  C   LIG    1      -21.001  78.643  33.914  0.00  0.00    +0.015 A 
ATOM     24  C   LIG    1      -19.787  78.269  33.383  0.00  0.00    +0.008 A 
ATOM     25  C   LIG    1      -18.575  79.010  33.351  0.00  0.00    +0.010 A 
ATOM     26  C   LIG    1      -17.573  78.695  32.470  0.00  0.00    +0.001 A 
ATOM     27  C   LIG    1      -17.752  77.578  31.667  0.00  0.00    +0.002 A 
ATOM     28  C   LIG    1      -18.923  76.721  31.720  0.00  0.00    +0.026 A 
ATOM     29  C   LIG    1      -20.028  77.016  32.588  0.00  0.00    +0.053 A 
ATOM     30  C   LIG    1      -22.815  75.053  34.356  0.00  0.00    +0.070 C 
ATOM     31  O   LIG    1      -23.825  75.883  32.604  0.00  0.00    -0.328 OA
ATOM     32  C   LIG    1      -22.876  75.399  30.660  0.00  0.00    +0.094 C 
ENDROOT
BRANCH   2  33
ATOM     33  O   LIG    1      -24.238  73.811  31.855  0.00  0.00    -0.384 OA
ATOM     34  H   LIG    1      -24.252  72.842  31.785  0.00  0.00    +0.210 HD
ENDBRANCH   2  33
TORSDOF 1
ENDMDL
MODEL 7
REMARK VINA RESULT:      -6.5     14.823     18.673
REMARK  Name = pdb/CHEMBL2113063.pdb
REMARK                            x       y       z     vdW  Elec       q    Type
REMARK                         _______ _______ _______ _____ _____    ______ ____
ROOT
ATOM      1  C   LIG    1      -35.942  67.825  25.211  0.00  0.00    +0.046 C 
ATOM      2  C   LIG    1      -36.375  68.755  26.335  0.00  0.00    +0.115 C 
ATOM      3  C   LIG    1      -36.359  70.260  25.914  0.00  0.00    +0.175 C 
ATOM      4  N   LIG    1      -37.656  71.127  25.656  0.00  0.00    -0.307 N 
ATOM      5  C   LIG    1      -37.655  72.396  26.149  0.00  0.00    +0.077 A 
ATOM      6  C   LIG    1      -37.301  72.708  27.440  0.00  0.00    +0.077 A 
ATOM      7  N   LIG    1      -37.029  71.732  28.345  0.00  0.00    -0.311 N 
ATOM      8  C   LIG    1      -35.765  72.386  28.819  0.00  0.00    +0.052 A 
ATOM      9  C   LIG    1      -34.625  71.728  29.352  0.00  0.00    +0.026 A 
ATOM     10  C   LIG    1      -33.371  72.343  29.277  0.00  0.00    +0.002 A 
ATOM     11  C   LIG    1      -33.232  73.638  28.809  0.00  0.00    +0.001 A 
ATOM     12  C   LIG    1      -34.343  74.350  28.356  0.00  0.00    +0.010 A 
ATOM     13  C   LIG    1      -35.609  73.724  28.271  0.00  0.00    +0.008 A 
ATOM     14  C   LIG    1      -37.045  70.302  28.155  0.00  0.00    +0.225 C 
ATOM     15  C   LIG    1      -36.760  74.010  27.511  0.00  0.00    +0.022 A 
ATOM     16  C   LIG    1      -36.901  75.100  26.619  0.00  0.00    +0.052 A 
ATOM     17  C   LIG    1      -36.375  76.436  26.438  0.00  0.00    +0.245 C 
ATOM     18  O   LIG    1      -35.476  77.055  26.894  0.00  0.00    -0.270 OA
ATOM     19  N   LIG    1      -37.242  76.962  25.452  0.00  0.00    -0.307 N 
ATOM     20  H   LIG    1      -37.134  77.927  25.178  0.00  0.00    +0.149 HD
ATOM     21  C   LIG    1      -38.301  76.090  24.977  0.00  0.00    +0.141 C 
ATOM     22  C   LIG    1      -37.891  74.864  25.657  0.00  0.00    -0.008 A 
ATOM     23  C   LIG    1      -38.077  73.498  25.432  0.00  0.00    +0.015 A 
ATOM     24  C   LIG    1      -38.992  72.898  24.597  0.00  0.00    +0.008 A 
ATOM     25  C   LIG    1      -40.091  73.495  23.924  0.00  0.00    +0.010 A 
ATOM     26  C   LIG    1      -41.131  72.735  23.449  0.00  0.00    +0.001 A 
ATOM     27  C   LIG    1      -41.031  71.358  23.580  0.00  0.00    +0.002 A 
ATOM     28  C   LIG    1      -39.890  70.680  24.169  0.00  0.00    +0.026 A 
ATOM     29  C   LIG    1      -38.787  71.414  24.724  0.00  0.00    +0.053 A 
ATOM     30  C   LIG    1      -35.044  70.820  25.345  0.00  0.00    +0.070 C 
ATOM     31  O   LIG    1      -35.938  70.463  27.307  0.00  0.00    -0.328 OA
ATOM     32  C   LIG    1      -37.554  68.945  27.336  0.00  0.00    +0.094 C 
ENDROOT
BRANCH   2  33
ATOM     33  O   LIG    1      -35.224  68.338  27.249  0.00  0.00    -0.384 OA
ATOM     34  H   LIG    1      -34.371  68.413  26.790  0.00  0.00    +0.210 HD
ENDBRANCH   2  33
TORSDOF 1
ENDMDL
MODEL 8
REMARK VINA RESULT:      -6.4     17.751     21.529
REMARK  Name = pdb/CHEMBL2113063.pdb
REMARK                            x       y       z     vdW  Elec       q    Type
REMARK                         _______ _______ _______ _____ _____    ______ ____
ROOT
ATOM      1  C   LIG    1      -41.723  79.733  27.244  0.00  0.00    +0.046 C 
ATOM      2  C   LIG    1      -40.689  79.110  26.317  0.00  0.00    +0.115 C 
ATOM      3  C   LIG    1      -40.965  77.598  26.035  0.00  0.00    +0.175 C 
ATOM      4  N   LIG    1      -41.499  77.030  24.658  0.00  0.00    -0.307 N 
ATOM      5  C   LIG    1      -40.923  75.885  24.200  0.00  0.00    +0.077 A 
ATOM      6  C   LIG    1      -39.563  75.696  24.131  0.00  0.00    +0.077 A 
ATOM      7  N   LIG    1      -38.701  76.704  24.422  0.00  0.00    -0.311 N 
ATOM      8  C   LIG    1      -37.846  75.850  25.310  0.00  0.00    +0.052 A 
ATOM      9  C   LIG    1      -37.075  76.294  26.417  0.00  0.00    +0.026 A 
ATOM     10  C   LIG    1      -36.752  75.398  27.441  0.00  0.00    +0.002 A 
ATOM     11  C   LIG    1      -37.056  74.051  27.340  0.00  0.00    +0.001 A 
ATOM     12  C   LIG    1      -37.737  73.561  26.227  0.00  0.00    +0.010 A 
ATOM     13  C   LIG    1      -38.218  74.446  25.233  0.00  0.00    +0.008 A 
ATOM     14  C   LIG    1      -39.004  78.053  24.834  0.00  0.00    +0.225 C 
ATOM     15  C   LIG    1      -39.240  74.328  24.271  0.00  0.00    +0.022 A 
ATOM     16  C   LIG    1      -40.045  73.181  24.069  0.00  0.00    +0.052 A 
ATOM     17  C   LIG    1      -39.964  71.747  24.248  0.00  0.00    +0.245 C 
ATOM     18  O   LIG    1      -39.229  71.010  24.809  0.00  0.00    -0.270 OA
ATOM     19  N   LIG    1      -41.105  71.299  23.542  0.00  0.00    -0.307 N 
ATOM     20  H   LIG    1      -41.259  70.306  23.453  0.00  0.00    +0.149 HD
ATOM     21  C   LIG    1      -41.922  72.314  22.904  0.00  0.00    +0.141 C 
ATOM     22  C   LIG    1      -41.258  73.497  23.445  0.00  0.00    -0.008 A 
ATOM     23  C   LIG    1      -41.636  74.819  23.690  0.00  0.00    +0.015 A 
ATOM     24  C   LIG    1      -42.737  75.486  23.201  0.00  0.00    +0.008 A 
ATOM     25  C   LIG    1      -43.636  75.070  22.183  0.00  0.00    +0.010 A 
ATOM     26  C   LIG    1      -44.438  75.972  21.533  0.00  0.00    +0.001 A 
ATOM     27  C   LIG    1      -44.398  77.291  21.960  0.00  0.00    +0.002 A 
ATOM     28  C   LIG    1      -43.575  77.763  23.060  0.00  0.00    +0.026 A 
ATOM     29  C   LIG    1      -42.680  76.882  23.756  0.00  0.00    +0.053 A 
ATOM     30  C   LIG    1      -41.102  76.666  27.251  0.00  0.00    +0.070 C 
ATOM     31  O   LIG    1      -39.499  77.512  26.031  0.00  0.00    -0.328 OA
ATOM     32  C   LIG    1      -40.039  79.353  24.922  0.00  0.00    +0.094 C 
ENDROOT
BRANCH   2  33
ATOM     33  O   LIG    1      -39.531  79.377  27.276  0.00  0.00    -0.384 OA
ATOM     34  H   LIG    1      -38.713  78.963  26.956  0.00  0.00    +0.210 HD
ENDBRANCH   2  33
TORSDOF 1
ENDMDL
MODEL 9
REMARK VINA RESULT:      -6.3     18.580     20.344
REMARK  Name = pdb/CHEMBL2113063.pdb
REMARK                            x       y       z     vdW  Elec       q    Type
REMARK                         _______ _______ _______ _____ _____    ______ ____
ROOT
ATOM      1  C   LIG    1      -17.902  81.161  14.062  0.00  0.00    +0.046 C 
ATOM      2  C   LIG    1      -19.177  81.080  14.887  0.00  0.00    +0.115 C 
ATOM      3  C   LIG    1      -20.151  79.964  14.386  0.00  0.00    +0.175 C 
ATOM      4  N   LIG    1      -20.416  78.604  15.148  0.00  0.00    -0.307 N 
ATOM      5  C   LIG    1      -21.706  78.176  15.211  0.00  0.00    +0.077 A 
ATOM      6  C   LIG    1      -22.754  78.979  15.595  0.00  0.00    +0.077 A 
ATOM      7  N   LIG    1      -22.537  80.243  16.045  0.00  0.00    -0.311 N 
ATOM      8  C   LIG    1      -23.603  80.841  15.175  0.00  0.00    +0.052 A 
ATOM      9  C   LIG    1      -23.625  82.164  14.660  0.00  0.00    +0.026 A 
ATOM     10  C   LIG    1      -24.350  82.443  13.497  0.00  0.00    +0.002 A 
ATOM     11  C   LIG    1      -25.157  81.486  12.905  0.00  0.00    +0.001 A 
ATOM     12  C   LIG    1      -25.229  80.197  13.433  0.00  0.00    +0.010 A 
ATOM     13  C   LIG    1      -24.403  79.820  14.518  0.00  0.00    +0.008 A 
ATOM     14  C   LIG    1      -21.283  80.941  16.191  0.00  0.00    +0.225 C 
ATOM     15  C   LIG    1      -23.954  78.566  14.977  0.00  0.00    +0.022 A 
ATOM     16  C   LIG    1      -24.298  77.315  14.409  0.00  0.00    +0.052 A 
ATOM     17  C   LIG    1      -25.382  76.720  13.657  0.00  0.00    +0.245 C 
ATOM     18  O   LIG    1      -26.329  77.130  13.080  0.00  0.00    -0.270 OA
ATOM     19  N   LIG    1      -25.062  75.344  13.720  0.00  0.00    -0.307 N 
ATOM     20  H   LIG    1      -25.704  74.679  13.317  0.00  0.00    +0.149 HD
ATOM     21  C   LIG    1      -23.866  74.982  14.459  0.00  0.00    +0.141 C 
ATOM     22  C   LIG    1      -23.354  76.326  14.713  0.00  0.00    -0.008 A 
ATOM     23  C   LIG    1      -22.095  76.874  14.967  0.00  0.00    +0.015 A 
ATOM     24  C   LIG    1      -20.947  76.213  15.342  0.00  0.00    +0.008 A 
ATOM     25  C   LIG    1      -20.808  74.861  15.756  0.00  0.00    +0.010 A 
ATOM     26  C   LIG    1      -19.707  74.445  16.461  0.00  0.00    +0.001 A 
ATOM     27  C   LIG    1      -18.700  75.372  16.684  0.00  0.00    +0.002 A 
ATOM     28  C   LIG    1      -18.737  76.741  16.202  0.00  0.00    +0.026 A 
ATOM     29  C   LIG    1      -19.876  77.256  15.495  0.00  0.00    +0.053 A 
ATOM     30  C   LIG    1      -20.571  80.006  12.907  0.00  0.00    +0.070 C 
ATOM     31  O   LIG    1      -21.183  80.929  14.791  0.00  0.00    -0.328 OA
ATOM     32  C   LIG    1      -19.630  80.945  16.373  0.00  0.00    +0.094 C 
ENDROOT
BRANCH   2  33
ATOM     33  O   LIG    1      -19.607  82.503  14.535  0.00  0.00    -0.384 OA
ATOM     34  H   LIG    1      -18.844  83.039  14.264  0.00  0.00    +0.210 HD
ENDBRANCH   2  33
TORSDOF 1
ENDMDL
