MODEL 1
REMARK VINA RESULT:      -6.2      0.000      0.000
REMARK  Name = pdb/CHEMBL3676104.pdb
REMARK                            x       y       z     vdW  Elec       q    Type
REMARK                         _______ _______ _______ _____ _____    ______ ____
ROOT
ATOM      1  C   LIG    1      -25.109  86.429  11.170  0.00  0.00    +0.126 A 
ATOM      2  N   LIG    1      -24.305  86.195  12.195  0.00  0.00    -0.212 NA
ATOM      3  C   LIG    1      -23.388  87.159  12.519  0.00  0.00    +0.170 A 
ATOM      4  C   LIG    1      -22.540  87.287  13.616  0.00  0.00    +0.101 A 
ATOM      5  C   LIG    1      -21.798  88.454  13.337  0.00  0.00    +0.150 A 
ATOM      6  N   LIG    1      -22.174  89.060  12.218  0.00  0.00    -0.173 NA
ATOM      7  N   LIG    1      -23.191  88.302  11.749  0.00  0.00    -0.221 N 
ATOM      8  C   LIG    1      -24.034  88.572  10.689  0.00  0.00    +0.118 A 
ATOM      9  C   LIG    1      -25.011  87.716  10.376  0.00  0.00    +0.063 A 
ENDROOT
BRANCH   1  11
ATOM     10  C   LIG    1      -25.806  84.226  10.109  0.00  0.00    +0.110 C 
ATOM     11  N   LIG    1      -26.075  85.492  10.824  0.00  0.00    -0.308 N 
ATOM     12  C   LIG    1      -27.514  85.774  10.823  0.00  0.00    +0.107 C 
ATOM     13  C   LIG    1      -28.135  84.744   9.891  0.00  0.00    +0.021 C 
ATOM     14  C   LIG    1      -27.192  83.566   9.999  0.00  0.00    +0.029 C 
BRANCH  10  16
ATOM     15  C   LIG    1      -23.537  83.130  10.371  0.00  0.00    +0.220 A 
ATOM     16  C   LIG    1      -24.856  83.285  10.814  0.00  0.00    +0.037 A 
ATOM     17  C   LIG    1      -25.263  82.491  11.899  0.00  0.00    +0.050 A 
ATOM     18  C   LIG    1      -24.361  81.631  12.501  0.00  0.00    +0.142 A 
ATOM     19  F   LIG    1      -24.729  80.897  13.557  0.00  0.00    -0.204 F 
ATOM     20  C   LIG    1      -23.080  81.555  11.998  0.00  0.00    +0.153 A 
ATOM     21  N   LIG    1      -22.649  82.292  10.949  0.00  0.00    -0.218 NA
BRANCH  15  23
ATOM     22  C   LIG    1      -22.101  84.868   9.585  0.00  0.00    +0.279 C 
ATOM     23  O   LIG    1      -23.125  83.912   9.315  0.00  0.00    -0.479 OA
ENDBRANCH  15  23
ENDBRANCH  10  16
ENDBRANCH   1  11
BRANCH   4  24
ATOM     24  C   LIG    1      -22.459  86.479  14.812  0.00  0.00    +0.254 C 
ATOM     25  N   LIG    1      -22.759  85.114  14.505  0.00  0.00    -0.267 N 
ATOM     26  H   LIG    1      -22.856  84.807  13.506  0.00  0.00    +0.157 HD
ATOM     27  O   LIG    1      -22.123  86.841  15.918  0.00  0.00    -0.270 OA
BRANCH  25  28
ATOM     28  C   LIG    1      -22.698  84.174  15.504  0.00  0.00    +0.121 A 
ATOM     29  N   LIG    1      -22.656  84.400  16.859  0.00  0.00    -0.264 N 
ATOM     30  H   LIG    1      -22.785  85.273  17.357  0.00  0.00    +0.190 HD
ATOM     31  N   LIG    1      -22.498  83.274  17.576  0.00  0.00    -0.177 NA
ATOM     32  C   LIG    1      -22.465  82.314  16.644  0.00  0.00    +0.068 A 
ATOM     33  C   LIG    1      -22.599  82.823  15.335  0.00  0.00    +0.068 A 
BRANCH  32  34
ATOM     34  C   LIG    1      -22.274  80.839  16.961  0.00  0.00    +0.040 C 
ATOM     35  C   LIG    1      -21.097  80.109  16.345  0.00  0.00    +0.010 C 
ATOM     36  C   LIG    1      -22.478  79.822  15.858  0.00  0.00    +0.010 C 
ENDBRANCH  32  34
ENDBRANCH  25  28
ENDBRANCH   4  24
TORSDOF 6
ENDMDL
MODEL 2
REMARK VINA RESULT:      -6.1     18.519     21.343
REMARK  Name = pdb/CHEMBL3676104.pdb
REMARK                            x       y       z     vdW  Elec       q    Type
REMARK                         _______ _______ _______ _____ _____    ______ ____
ROOT
ATOM      1  C   LIG    1      -32.282  74.896  31.213  0.00  0.00    +0.126 A 
ATOM      2  N   LIG    1      -31.232  75.701  31.236  0.00  0.00    -0.212 NA
ATOM      3  C   LIG    1      -30.800  76.150  32.455  0.00  0.00    +0.170 A 
ATOM      4  C   LIG    1      -29.653  76.850  32.821  0.00  0.00    +0.101 A 
ATOM      5  C   LIG    1      -29.818  77.073  34.204  0.00  0.00    +0.150 A 
ATOM      6  N   LIG    1      -30.915  76.514  34.698  0.00  0.00    -0.173 NA
ATOM      7  N   LIG    1      -31.485  75.895  33.639  0.00  0.00    -0.221 N 
ATOM      8  C   LIG    1      -32.570  75.040  33.638  0.00  0.00    +0.118 A 
ATOM      9  C   LIG    1      -32.987  74.493  32.493  0.00  0.00    +0.063 A 
ENDROOT
BRANCH   1  11
ATOM     10  C   LIG    1      -33.832  74.978  29.199  0.00  0.00    +0.110 C 
ATOM     11  N   LIG    1      -32.738  74.391  30.001  0.00  0.00    -0.308 N 
ATOM     12  C   LIG    1      -32.427  73.042  29.517  0.00  0.00    +0.107 C 
ATOM     13  C   LIG    1      -33.516  72.706  28.509  0.00  0.00    +0.021 C 
ATOM     14  C   LIG    1      -33.917  74.060  27.967  0.00  0.00    +0.029 C 
BRANCH  10  16
ATOM     15  C   LIG    1      -34.141  77.478  29.466  0.00  0.00    +0.220 A 
ATOM     16  C   LIG    1      -33.602  76.403  28.751  0.00  0.00    +0.037 A 
ATOM     17  C   LIG    1      -32.889  76.707  27.578  0.00  0.00    +0.050 A 
ATOM     18  C   LIG    1      -32.718  78.027  27.199  0.00  0.00    +0.142 A 
ATOM     19  F   LIG    1      -32.011  78.330  26.105  0.00  0.00    -0.204 F 
ATOM     20  C   LIG    1      -33.281  79.018  27.974  0.00  0.00    +0.153 A 
ATOM     21  N   LIG    1      -33.984  78.770  29.103  0.00  0.00    -0.218 NA
BRANCH  15  23
ATOM     22  C   LIG    1      -34.437  77.895  31.798  0.00  0.00    +0.279 C 
ATOM     23  O   LIG    1      -34.832  77.191  30.622  0.00  0.00    -0.479 OA
ENDBRANCH  15  23
ENDBRANCH  10  16
ENDBRANCH   1  11
BRANCH   4  24
ATOM     24  C   LIG    1      -28.508  77.217  32.019  0.00  0.00    +0.254 C 
ATOM     25  N   LIG    1      -27.395  76.375  32.335  0.00  0.00    -0.267 N 
ATOM     26  H   LIG    1      -27.526  75.538  32.954  0.00  0.00    +0.157 HD
ATOM     27  O   LIG    1      -28.464  78.057  31.147  0.00  0.00    -0.270 OA
BRANCH  25  28
ATOM     28  C   LIG    1      -26.215  76.539  31.651  0.00  0.00    +0.121 A 
ATOM     29  N   LIG    1      -25.867  77.585  30.829  0.00  0.00    -0.264 N 
ATOM     30  H   LIG    1      -26.354  78.461  30.683  0.00  0.00    +0.190 HD
ATOM     31  N   LIG    1      -24.681  77.405  30.224  0.00  0.00    -0.177 NA
ATOM     32  C   LIG    1      -24.264  76.225  30.698  0.00  0.00    +0.068 A 
ATOM     33  C   LIG    1      -25.181  75.649  31.603  0.00  0.00    +0.068 A 
BRANCH  32  34
ATOM     34  C   LIG    1      -22.959  75.565  30.284  0.00  0.00    +0.040 C 
ATOM     35  C   LIG    1      -21.666  76.057  30.904  0.00  0.00    +0.010 C 
ATOM     36  C   LIG    1      -21.960  76.365  29.475  0.00  0.00    +0.010 C 
ENDBRANCH  32  34
ENDBRANCH  25  28
ENDBRANCH   4  24
TORSDOF 6
ENDMDL
MODEL 3
REMARK VINA RESULT:      -6.0     19.324     22.540
REMARK  Name = pdb/CHEMBL3676104.pdb
REMARK                            x       y       z     vdW  Elec       q    Type
REMARK                         _______ _______ _______ _____ _____    ______ ____
ROOT
ATOM      1  C   LIG    1      -37.211  71.236  25.507  0.00  0.00    +0.126 A 
ATOM      2  N   LIG    1      -37.125  72.540  25.293  0.00  0.00    -0.212 NA
ATOM      3  C   LIG    1      -38.251  73.190  24.863  0.00  0.00    +0.170 A 
ATOM      4  C   LIG    1      -38.527  74.548  24.717  0.00  0.00    +0.101 A 
ATOM      5  C   LIG    1      -39.829  74.573  24.174  0.00  0.00    +0.150 A 
ATOM      6  N   LIG    1      -40.369  73.367  24.051  0.00  0.00    -0.173 NA
ATOM      7  N   LIG    1      -39.427  72.524  24.533  0.00  0.00    -0.221 N 
ATOM      8  C   LIG    1      -39.542  71.168  24.770  0.00  0.00    +0.118 A 
ATOM      9  C   LIG    1      -38.509  70.489  25.276  0.00  0.00    +0.063 A 
ENDROOT
BRANCH   1  11
ATOM     10  C   LIG    1      -35.068  71.100  26.868  0.00  0.00    +0.110 C 
ATOM     11  N   LIG    1      -36.102  70.540  25.972  0.00  0.00    -0.308 N 
ATOM     12  C   LIG    1      -35.632  69.280  25.387  0.00  0.00    +0.107 C 
ATOM     13  C   LIG    1      -34.167  69.165  25.779  0.00  0.00    +0.021 C 
ATOM     14  C   LIG    1      -34.096  69.926  27.085  0.00  0.00    +0.029 C 
BRANCH  10  16
ATOM     15  C   LIG    1      -34.974  72.670  28.854  0.00  0.00    +0.220 A 
ATOM     16  C   LIG    1      -35.577  71.586  28.206  0.00  0.00    +0.037 A 
ATOM     17  C   LIG    1      -36.631  70.944  28.878  0.00  0.00    +0.050 A 
ATOM     18  C   LIG    1      -37.051  71.415  30.109  0.00  0.00    +0.142 A 
ATOM     19  F   LIG    1      -38.077  70.834  30.741  0.00  0.00    -0.204 F 
ATOM     20  C   LIG    1      -36.400  72.497  30.663  0.00  0.00    +0.153 A 
ATOM     21  N   LIG    1      -35.374  73.137  30.057  0.00  0.00    -0.218 NA
BRANCH  15  23
ATOM     22  C   LIG    1      -32.770  73.582  28.957  0.00  0.00    +0.279 C 
ATOM     23  O   LIG    1      -33.948  73.312  28.198  0.00  0.00    -0.479 OA
ENDBRANCH  15  23
ENDBRANCH  10  16
ENDBRANCH   1  11
BRANCH   4  24
ATOM     24  C   LIG    1      -37.725  75.692  25.088  0.00  0.00    +0.254 C 
ATOM     25  N   LIG    1      -37.091  75.460  26.349  0.00  0.00    -0.267 N 
ATOM     26  H   LIG    1      -37.130  74.509  26.792  0.00  0.00    +0.157 HD
ATOM     27  O   LIG    1      -37.531  76.692  24.433  0.00  0.00    -0.270 OA
BRANCH  25  28
ATOM     28  C   LIG    1      -36.250  76.417  26.862  0.00  0.00    +0.121 A 
ATOM     29  N   LIG    1      -36.582  77.692  27.256  0.00  0.00    -0.264 N 
ATOM     30  H   LIG    1      -37.502  78.102  27.353  0.00  0.00    +0.190 HD
ATOM     31  N   LIG    1      -35.515  78.423  27.622  0.00  0.00    -0.177 NA
ATOM     32  C   LIG    1      -34.490  77.574  27.476  0.00  0.00    +0.068 A 
ATOM     33  C   LIG    1      -34.898  76.304  27.017  0.00  0.00    +0.068 A 
BRANCH  32  34
ATOM     34  C   LIG    1      -33.042  77.948  27.749  0.00  0.00    +0.040 C 
ATOM     35  C   LIG    1      -32.406  79.046  26.918  0.00  0.00    +0.010 C 
ATOM     36  C   LIG    1      -31.995  77.628  26.703  0.00  0.00    +0.010 C 
ENDBRANCH  32  34
ENDBRANCH  25  28
ENDBRANCH   4  24
TORSDOF 6
ENDMDL
MODEL 4
REMARK VINA RESULT:      -5.9     19.780     21.952
REMARK  Name = pdb/CHEMBL3676104.pdb
REMARK                            x       y       z     vdW  Elec       q    Type
REMARK                         _______ _______ _______ _____ _____    ______ ____
ROOT
ATOM      1  C   LIG    1      -41.646  74.989  23.544  0.00  0.00    +0.126 A 
ATOM      2  N   LIG    1      -40.540  75.327  24.188  0.00  0.00    -0.212 NA
ATOM      3  C   LIG    1      -39.616  74.345  24.427  0.00  0.00    +0.170 A 
ATOM      4  C   LIG    1      -38.313  74.410  24.914  0.00  0.00    +0.101 A 
ATOM      5  C   LIG    1      -37.912  73.060  24.993  0.00  0.00    +0.150 A 
ATOM      6  N   LIG    1      -38.827  72.214  24.538  0.00  0.00    -0.173 NA
ATOM      7  N   LIG    1      -39.846  73.005  24.132  0.00  0.00    -0.221 N 
ATOM      8  C   LIG    1      -40.985  72.636  23.442  0.00  0.00    +0.118 A 
ATOM      9  C   LIG    1      -41.884  73.561  23.096  0.00  0.00    +0.063 A 
ENDROOT
BRANCH   1  11
ATOM     10  C   LIG    1      -42.972  77.071  24.151  0.00  0.00    +0.110 C 
ATOM     11  N   LIG    1      -42.598  75.958  23.253  0.00  0.00    -0.308 N 
ATOM     12  C   LIG    1      -43.585  75.827  22.176  0.00  0.00    +0.107 C 
ATOM     13  C   LIG    1      -44.723  76.766  22.545  0.00  0.00    +0.021 C 
ATOM     14  C   LIG    1      -44.036  77.845  23.352  0.00  0.00    +0.029 C 
BRANCH  10  16
ATOM     15  C   LIG    1      -41.500  78.229  25.857  0.00  0.00    +0.220 A 
ATOM     16  C   LIG    1      -41.841  78.003  24.518  0.00  0.00    +0.037 A 
ATOM     17  C   LIG    1      -41.123  78.720  23.546  0.00  0.00    +0.050 A 
ATOM     18  C   LIG    1      -40.106  79.575  23.932  0.00  0.00    +0.142 A 
ATOM     19  F   LIG    1      -39.392  80.236  23.012  0.00  0.00    -0.204 F 
ATOM     20  C   LIG    1      -39.838  79.725  25.276  0.00  0.00    +0.153 A 
ATOM     21  N   LIG    1      -40.511  79.063  26.245  0.00  0.00    -0.218 NA
BRANCH  15  23
ATOM     22  C   LIG    1      -41.454  76.540  27.545  0.00  0.00    +0.279 C 
ATOM     23  O   LIG    1      -42.190  77.522  26.817  0.00  0.00    -0.479 OA
ENDBRANCH  15  23
ENDBRANCH  10  16
ENDBRANCH   1  11
BRANCH   4  24
ATOM     24  C   LIG    1      -37.501  75.570  25.210  0.00  0.00    +0.254 C 
ATOM     25  N   LIG    1      -36.970  75.473  26.535  0.00  0.00    -0.267 N 
ATOM     26  H   LIG    1      -37.075  74.584  27.082  0.00  0.00    +0.157 HD
ATOM     27  O   LIG    1      -37.224  76.480  24.460  0.00  0.00    -0.270 OA
BRANCH  25  28
ATOM     28  C   LIG    1      -36.137  76.463  26.997  0.00  0.00    +0.121 A 
ATOM     29  N   LIG    1      -36.487  77.739  27.371  0.00  0.00    -0.264 N 
ATOM     30  H   LIG    1      -37.414  78.129  27.490  0.00  0.00    +0.190 HD
ATOM     31  N   LIG    1      -35.427  78.504  27.683  0.00  0.00    -0.177 NA
ATOM     32  C   LIG    1      -34.387  77.677  27.523  0.00  0.00    +0.068 A 
ATOM     33  C   LIG    1      -34.778  76.386  27.108  0.00  0.00    +0.068 A 
BRANCH  32  34
ATOM     34  C   LIG    1      -32.941  78.092  27.737  0.00  0.00    +0.040 C 
ATOM     35  C   LIG    1      -32.311  79.067  26.761  0.00  0.00    +0.010 C 
ATOM     36  C   LIG    1      -31.894  77.635  26.743  0.00  0.00    +0.010 C 
ENDBRANCH  32  34
ENDBRANCH  25  28
ENDBRANCH   4  24
TORSDOF 6
ENDMDL
MODEL 5
REMARK VINA RESULT:      -5.7     20.213     22.888
REMARK  Name = pdb/CHEMBL3676104.pdb
REMARK                            x       y       z     vdW  Elec       q    Type
REMARK                         _______ _______ _______ _____ _____    ______ ____
ROOT
ATOM      1  C   LIG    1      -35.041  72.553  29.337  0.00  0.00    +0.126 A 
ATOM      2  N   LIG    1      -35.425  73.704  28.809  0.00  0.00    -0.212 NA
ATOM      3  C   LIG    1      -34.468  74.661  28.602  0.00  0.00    +0.170 A 
ATOM      4  C   LIG    1      -34.518  75.877  27.925  0.00  0.00    +0.101 A 
ATOM      5  C   LIG    1      -33.234  76.428  28.122  0.00  0.00    +0.150 A 
ATOM      6  N   LIG    1      -32.416  75.625  28.790  0.00  0.00    -0.173 NA
ATOM      7  N   LIG    1      -33.152  74.516  29.028  0.00  0.00    -0.221 N 
ATOM      8  C   LIG    1      -32.728  73.314  29.561  0.00  0.00    +0.118 A 
ATOM      9  C   LIG    1      -33.592  72.306  29.705  0.00  0.00    +0.063 A 
ENDROOT
BRANCH   1  11
ATOM     10  C   LIG    1      -36.758  70.891  28.467  0.00  0.00    +0.110 C 
ATOM     11  N   LIG    1      -35.973  71.541  29.537  0.00  0.00    -0.308 N 
ATOM     12  C   LIG    1      -36.542  71.213  30.849  0.00  0.00    +0.107 C 
ATOM     13  C   LIG    1      -37.854  70.498  30.560  0.00  0.00    +0.021 C 
ATOM     14  C   LIG    1      -37.607  69.849  29.216  0.00  0.00    +0.029 C 
BRANCH  10  16
ATOM     15  C   LIG    1      -35.935  70.660  26.082  0.00  0.00    +0.220 A 
ATOM     16  C   LIG    1      -35.935  70.199  27.404  0.00  0.00    +0.037 A 
ATOM     17  C   LIG    1      -35.185  69.043  27.679  0.00  0.00    +0.050 A 
ATOM     18  C   LIG    1      -34.462  68.435  26.668  0.00  0.00    +0.142 A 
ATOM     19  F   LIG    1      -33.717  67.354  26.927  0.00  0.00    -0.204 F 
ATOM     20  C   LIG    1      -34.517  68.968  25.398  0.00  0.00    +0.153 A 
ATOM     21  N   LIG    1      -35.234  70.072  25.087  0.00  0.00    -0.218 NA
BRANCH  15  23
ATOM     22  C   LIG    1      -37.542  71.742  24.687  0.00  0.00    +0.279 C 
ATOM     23  O   LIG    1      -36.658  71.799  25.805  0.00  0.00    -0.479 OA
ENDBRANCH  15  23
ENDBRANCH  10  16
ENDBRANCH   1  11
BRANCH   4  24
ATOM     24  C   LIG    1      -35.587  76.444  27.135  0.00  0.00    +0.254 C 
ATOM     25  N   LIG    1      -36.268  75.412  26.415  0.00  0.00    -0.267 N 
ATOM     26  H   LIG    1      -36.057  74.404  26.613  0.00  0.00    +0.157 HD
ATOM     27  O   LIG    1      -35.941  77.603  27.106  0.00  0.00    -0.270 OA
BRANCH  25  28
ATOM     28  C   LIG    1      -37.346  75.742  25.631  0.00  0.00    +0.121 A 
ATOM     29  N   LIG    1      -37.403  76.712  24.658  0.00  0.00    -0.264 N 
ATOM     30  H   LIG    1      -36.646  77.259  24.268  0.00  0.00    +0.190 HD
ATOM     31  N   LIG    1      -38.633  76.861  24.136  0.00  0.00    -0.177 NA
ATOM     32  C   LIG    1      -39.360  75.941  24.783  0.00  0.00    +0.068 A 
ATOM     33  C   LIG    1      -38.599  75.207  25.717  0.00  0.00    +0.068 A 
BRANCH  32  34
ATOM     34  C   LIG    1      -40.848  75.732  24.554  0.00  0.00    +0.040 C 
ATOM     35  C   LIG    1      -41.290  74.683  23.552  0.00  0.00    +0.010 C 
ATOM     36  C   LIG    1      -41.446  76.129  23.221  0.00  0.00    +0.010 C 
ENDBRANCH  32  34
ENDBRANCH  25  28
ENDBRANCH   4  24
TORSDOF 6
ENDMDL
MODEL 6
REMARK VINA RESULT:      -5.7     19.263     22.390
REMARK  Name = pdb/CHEMBL3676104.pdb
REMARK                            x       y       z     vdW  Elec       q    Type
REMARK                         _______ _______ _______ _____ _____    ______ ____
ROOT
ATOM      1  C   LIG    1      -22.764  74.427  32.155  0.00  0.00    +0.126 A 
ATOM      2  N   LIG    1      -23.103  75.637  32.572  0.00  0.00    -0.212 NA
ATOM      3  C   LIG    1      -24.361  76.085  32.272  0.00  0.00    +0.170 A 
ATOM      4  C   LIG    1      -25.062  77.210  32.702  0.00  0.00    +0.101 A 
ATOM      5  C   LIG    1      -26.276  77.147  31.988  0.00  0.00    +0.150 A 
ATOM      6  N   LIG    1      -26.385  76.062  31.232  0.00  0.00    -0.173 NA
ATOM      7  N   LIG    1      -25.239  75.379  31.455  0.00  0.00    -0.221 N 
ATOM      8  C   LIG    1      -24.910  74.107  31.028  0.00  0.00    +0.118 A 
ATOM      9  C   LIG    1      -23.733  73.573  31.364  0.00  0.00    +0.063 A 
ENDROOT
BRANCH   1  11
ATOM     10  C   LIG    1      -20.243  74.352  31.830  0.00  0.00    +0.110 C 
ATOM     11  N   LIG    1      -21.507  73.919  32.462  0.00  0.00    -0.308 N 
ATOM     12  C   LIG    1      -21.297  72.672  33.205  0.00  0.00    +0.107 C 
ATOM     13  C   LIG    1      -19.894  72.209  32.843  0.00  0.00    +0.021 C 
ATOM     14  C   LIG    1      -19.171  73.502  32.535  0.00  0.00    +0.029 C 
BRANCH  10  16
ATOM     15  C   LIG    1      -20.116  76.724  30.951  0.00  0.00    +0.220 A 
ATOM     16  C   LIG    1      -19.915  75.817  31.998  0.00  0.00    +0.037 A 
ATOM     17  C   LIG    1      -19.347  76.321  33.181  0.00  0.00    +0.050 A 
ATOM     18  C   LIG    1      -19.047  77.669  33.281  0.00  0.00    +0.142 A 
ATOM     19  F   LIG    1      -18.539  78.165  34.415  0.00  0.00    -0.204 F 
ATOM     20  C   LIG    1      -19.290  78.485  32.198  0.00  0.00    +0.153 A 
ATOM     21  N   LIG    1      -19.825  78.041  31.037  0.00  0.00    -0.218 NA
BRANCH  15  23
ATOM     22  C   LIG    1      -21.953  76.779  29.427  0.00  0.00    +0.279 C 
ATOM     23  O   LIG    1      -20.683  76.242  29.792  0.00  0.00    -0.479 OA
ENDBRANCH  15  23
ENDBRANCH  10  16
ENDBRANCH   1  11
BRANCH   4  24
ATOM     24  C   LIG    1      -24.696  78.192  33.698  0.00  0.00    +0.254 C 
ATOM     25  N   LIG    1      -23.298  78.482  33.613  0.00  0.00    -0.267 N 
ATOM     26  H   LIG    1      -22.729  78.110  32.814  0.00  0.00    +0.157 HD
ATOM     27  O   LIG    1      -25.437  78.766  34.465  0.00  0.00    -0.270 OA
BRANCH  25  28
ATOM     28  C   LIG    1      -22.757  79.425  34.453  0.00  0.00    +0.121 A 
ATOM     29  N   LIG    1      -23.260  80.673  34.738  0.00  0.00    -0.264 N 
ATOM     30  H   LIG    1      -24.159  81.063  34.484  0.00  0.00    +0.190 HD
ATOM     31  N   LIG    1      -22.446  81.400  35.522  0.00  0.00    -0.177 NA
ATOM     32  C   LIG    1      -21.417  80.576  35.754  0.00  0.00    +0.068 A 
ATOM     33  C   LIG    1      -21.570  79.325  35.120  0.00  0.00    +0.068 A 
BRANCH  32  34
ATOM     34  C   LIG    1      -20.204  80.958  36.587  0.00  0.00    +0.040 C 
ATOM     35  C   LIG    1      -20.252  80.736  38.086  0.00  0.00    +0.010 C 
ATOM     36  C   LIG    1      -20.314  82.125  37.545  0.00  0.00    +0.010 C 
ENDBRANCH  32  34
ENDBRANCH  25  28
ENDBRANCH   4  24
TORSDOF 6
ENDMDL
MODEL 7
REMARK VINA RESULT:      -5.6     21.857     23.885
REMARK  Name = pdb/CHEMBL3676104.pdb
REMARK                            x       y       z     vdW  Elec       q    Type
REMARK                         _______ _______ _______ _____ _____    ______ ____
ROOT
ATOM      1  C   LIG    1      -36.753  68.503  23.089  0.00  0.00    +0.126 A 
ATOM      2  N   LIG    1      -36.984  69.457  23.977  0.00  0.00    -0.212 NA
ATOM      3  C   LIG    1      -36.126  69.563  25.038  0.00  0.00    +0.170 A 
ATOM      4  C   LIG    1      -36.000  70.539  26.023  0.00  0.00    +0.101 A 
ATOM      5  C   LIG    1      -34.979  70.045  26.863  0.00  0.00    +0.150 A 
ATOM      6  N   LIG    1      -34.449  68.909  26.430  0.00  0.00    -0.173 NA
ATOM      7  N   LIG    1      -35.107  68.646  25.278  0.00  0.00    -0.221 N 
ATOM      8  C   LIG    1      -34.837  67.657  24.352  0.00  0.00    +0.118 A 
ATOM      9  C   LIG    1      -35.580  67.556  23.247  0.00  0.00    +0.063 A 
ENDROOT
BRANCH   1  11
ATOM     10  C   LIG    1      -38.993  67.944  22.026  0.00  0.00    +0.110 C 
ATOM     11  N   LIG    1      -37.581  68.378  21.980  0.00  0.00    -0.308 N 
ATOM     12  C   LIG    1      -37.086  68.338  20.600  0.00  0.00    +0.107 C 
ATOM     13  C   LIG    1      -38.179  67.654  19.791  0.00  0.00    +0.021 C 
ATOM     14  C   LIG    1      -39.440  67.995  20.554  0.00  0.00    +0.029 C 
BRANCH  10  16
ATOM     15  C   LIG    1      -40.365  68.389  24.108  0.00  0.00    +0.220 A 
ATOM     16  C   LIG    1      -39.902  68.817  22.859  0.00  0.00    +0.037 A 
ATOM     17  C   LIG    1      -40.364  70.063  22.399  0.00  0.00    +0.050 A 
ATOM     18  C   LIG    1      -41.209  70.819  23.191  0.00  0.00    +0.142 A 
ATOM     19  F   LIG    1      -41.626  72.022  22.778  0.00  0.00    -0.204 F 
ATOM     20  C   LIG    1      -41.603  70.315  24.412  0.00  0.00    +0.153 A 
ATOM     21  N   LIG    1      -41.193  69.118  24.889  0.00  0.00    -0.218 NA
BRANCH  15  23
ATOM     22  C   LIG    1      -40.794  66.437  25.415  0.00  0.00    +0.279 C 
ATOM     23  O   LIG    1      -39.909  67.175  24.573  0.00  0.00    -0.479 OA
ENDBRANCH  15  23
ENDBRANCH  10  16
ENDBRANCH   1  11
BRANCH   4  24
ATOM     24  C   LIG    1      -36.682  71.807  26.150  0.00  0.00    +0.254 C 
ATOM     25  N   LIG    1      -37.216  72.208  24.884  0.00  0.00    -0.267 N 
ATOM     26  H   LIG    1      -37.204  71.543  24.073  0.00  0.00    +0.157 HD
ATOM     27  O   LIG    1      -36.864  72.442  27.166  0.00  0.00    -0.270 OA
BRANCH  25  28
ATOM     28  C   LIG    1      -37.937  73.374  24.800  0.00  0.00    +0.121 A 
ATOM     29  N   LIG    1      -37.480  74.653  25.009  0.00  0.00    -0.264 N 
ATOM     30  H   LIG    1      -36.526  74.969  25.135  0.00  0.00    +0.190 HD
ATOM     31  N   LIG    1      -38.455  75.576  24.950  0.00  0.00    -0.177 NA
ATOM     32  C   LIG    1      -39.549  74.856  24.674  0.00  0.00    +0.068 A 
ATOM     33  C   LIG    1      -39.277  73.477  24.557  0.00  0.00    +0.068 A 
BRANCH  32  34
ATOM     34  C   LIG    1      -40.938  75.458  24.531  0.00  0.00    +0.040 C 
ATOM     35  C   LIG    1      -41.614  75.411  23.174  0.00  0.00    +0.010 C 
ATOM     36  C   LIG    1      -41.109  76.712  23.701  0.00  0.00    +0.010 C 
ENDBRANCH  32  34
ENDBRANCH  25  28
ENDBRANCH   4  24
TORSDOF 6
ENDMDL
MODEL 8
REMARK VINA RESULT:      -5.5     20.100     22.612
REMARK  Name = pdb/CHEMBL3676104.pdb
REMARK                            x       y       z     vdW  Elec       q    Type
REMARK                         _______ _______ _______ _____ _____    ______ ____
ROOT
ATOM      1  C   LIG    1      -39.001  71.941  24.597  0.00  0.00    +0.126 A 
ATOM      2  N   LIG    1      -38.599  73.201  24.538  0.00  0.00    -0.212 NA
ATOM      3  C   LIG    1      -39.532  74.153  24.226  0.00  0.00    +0.170 A 
ATOM      4  C   LIG    1      -39.467  75.544  24.252  0.00  0.00    +0.101 A 
ATOM      5  C   LIG    1      -40.724  75.952  23.758  0.00  0.00    +0.150 A 
ATOM      6  N   LIG    1      -41.543  74.938  23.508  0.00  0.00    -0.173 NA
ATOM      7  N   LIG    1      -40.836  73.839  23.855  0.00  0.00    -0.221 N 
ATOM      8  C   LIG    1      -41.279  72.533  23.930  0.00  0.00    +0.118 A 
ATOM      9  C   LIG    1      -40.443  71.566  24.318  0.00  0.00    +0.063 A 
ENDROOT
BRANCH   1  11
ATOM     10  C   LIG    1      -38.332  69.494  24.772  0.00  0.00    +0.110 C 
ATOM     11  N   LIG    1      -38.096  70.943  24.939  0.00  0.00    -0.308 N 
ATOM     12  C   LIG    1      -36.934  71.167  25.806  0.00  0.00    +0.107 C 
ATOM     13  C   LIG    1      -36.567  69.799  26.362  0.00  0.00    +0.021 C 
ATOM     14  C   LIG    1      -37.031  68.849  25.280  0.00  0.00    +0.029 C 
BRANCH  10  16
ATOM     15  C   LIG    1      -39.729  68.299  23.029  0.00  0.00    +0.220 A 
ATOM     16  C   LIG    1      -38.593  69.050  23.350  0.00  0.00    +0.037 A 
ATOM     17  C   LIG    1      -37.689  69.322  22.309  0.00  0.00    +0.050 A 
ATOM     18  C   LIG    1      -37.964  68.880  21.027  0.00  0.00    +0.142 A 
ATOM     19  F   LIG    1      -37.128  69.164  20.021  0.00  0.00    -0.204 F 
ATOM     20  C   LIG    1      -39.114  68.153  20.807  0.00  0.00    +0.153 A 
ATOM     21  N   LIG    1      -40.005  67.860  21.781  0.00  0.00    -0.218 NA
BRANCH  15  23
ATOM     22  C   LIG    1      -42.011  68.170  23.721  0.00  0.00    +0.279 C 
ATOM     23  O   LIG    1      -40.626  68.037  24.040  0.00  0.00    -0.479 OA
ENDBRANCH  15  23
ENDBRANCH  10  16
ENDBRANCH   1  11
BRANCH   4  24
ATOM     24  C   LIG    1      -38.409  76.404  24.733  0.00  0.00    +0.254 C 
ATOM     25  N   LIG    1      -38.143  76.132  26.112  0.00  0.00    -0.267 N 
ATOM     26  H   LIG    1      -38.586  75.306  26.582  0.00  0.00    +0.157 HD
ATOM     27  O   LIG    1      -37.765  77.202  24.088  0.00  0.00    -0.270 OA
BRANCH  25  28
ATOM     28  C   LIG    1      -37.139  76.821  26.748  0.00  0.00    +0.121 A 
ATOM     29  N   LIG    1      -37.117  78.160  27.061  0.00  0.00    -0.264 N 
ATOM     30  H   LIG    1      -37.868  78.836  26.993  0.00  0.00    +0.190 HD
ATOM     31  N   LIG    1      -35.949  78.555  27.595  0.00  0.00    -0.177 NA
ATOM     32  C   LIG    1      -35.228  77.428  27.639  0.00  0.00    +0.068 A 
ATOM     33  C   LIG    1      -35.932  76.314  27.135  0.00  0.00    +0.068 A 
BRANCH  32  34
ATOM     34  C   LIG    1      -33.799  77.361  28.152  0.00  0.00    +0.040 C 
ATOM     35  C   LIG    1      -32.762  78.282  27.538  0.00  0.00    +0.010 C 
ATOM     36  C   LIG    1      -32.719  76.822  27.238  0.00  0.00    +0.010 C 
ENDBRANCH  32  34
ENDBRANCH  25  28
ENDBRANCH   4  24
TORSDOF 6
ENDMDL
MODEL 9
REMARK VINA RESULT:      -5.4      2.563      6.499
REMARK  Name = pdb/CHEMBL3676104.pdb
REMARK                            x       y       z     vdW  Elec       q    Type
REMARK                         _______ _______ _______ _____ _____    ______ ____
ROOT
ATOM      1  C   LIG    1      -25.538  80.499  12.796  0.00  0.00    +0.126 A 
ATOM      2  N   LIG    1      -25.418  81.754  12.396  0.00  0.00    -0.212 NA
ATOM      3  C   LIG    1      -25.935  82.085  11.172  0.00  0.00    +0.170 A 
ATOM      4  C   LIG    1      -26.117  83.321  10.556  0.00  0.00    +0.101 A 
ATOM      5  C   LIG    1      -26.630  82.995   9.284  0.00  0.00    +0.150 A 
ATOM      6  N   LIG    1      -26.830  81.693   9.117  0.00  0.00    -0.173 NA
ATOM      7  N   LIG    1      -26.464  81.142  10.297  0.00  0.00    -0.221 N 
ATOM      8  C   LIG    1      -26.617  79.831  10.705  0.00  0.00    +0.118 A 
ATOM      9  C   LIG    1      -26.217  79.461  11.925  0.00  0.00    +0.063 A 
ENDROOT
BRANCH   1  11
ATOM     10  C   LIG    1      -23.627  80.095  14.423  0.00  0.00    +0.110 C 
ATOM     11  N   LIG    1      -25.055  80.124  14.044  0.00  0.00    -0.308 N 
ATOM     12  C   LIG    1      -25.854  79.400  15.039  0.00  0.00    +0.107 C 
ATOM     13  C   LIG    1      -24.850  78.722  15.958  0.00  0.00    +0.021 C 
ATOM     14  C   LIG    1      -23.646  79.635  15.892  0.00  0.00    +0.029 C 
BRANCH  10  16
ATOM     15  C   LIG    1      -21.936  81.641  13.341  0.00  0.00    +0.220 A 
ATOM     16  C   LIG    1      -22.912  81.423  14.321  0.00  0.00    +0.037 A 
ATOM     17  C   LIG    1      -23.153  82.469  15.228  0.00  0.00    +0.050 A 
ATOM     18  C   LIG    1      -22.461  83.661  15.104  0.00  0.00    +0.142 A 
ATOM     19  F   LIG    1      -22.708  84.676  15.940  0.00  0.00    -0.204 F 
ATOM     20  C   LIG    1      -21.524  83.783  14.100  0.00  0.00    +0.153 A 
ATOM     21  N   LIG    1      -21.253  82.799  13.212  0.00  0.00    -0.218 NA
BRANCH  15  23
ATOM     22  C   LIG    1      -22.078  80.869  11.086  0.00  0.00    +0.279 C 
ATOM     23  O   LIG    1      -21.701  80.626  12.440  0.00  0.00    -0.479 OA
ENDBRANCH  15  23
ENDBRANCH  10  16
ENDBRANCH   1  11
BRANCH   4  24
ATOM     24  C   LIG    1      -25.910  84.650  11.088  0.00  0.00    +0.254 C 
ATOM     25  N   LIG    1      -24.511  84.901  11.254  0.00  0.00    -0.267 N 
ATOM     26  H   LIG    1      -23.805  84.226  10.871  0.00  0.00    +0.157 HD
ATOM     27  O   LIG    1      -26.755  85.488  11.310  0.00  0.00    -0.270 OA
BRANCH  25  28
ATOM     28  C   LIG    1      -24.101  86.129  11.714  0.00  0.00    +0.121 A 
ATOM     29  N   LIG    1      -24.360  87.357  11.152  0.00  0.00    -0.264 N 
ATOM     30  H   LIG    1      -24.987  87.582  10.390  0.00  0.00    +0.190 HD
ATOM     31  N   LIG    1      -23.735  88.365  11.784  0.00  0.00    -0.177 NA
ATOM     32  C   LIG    1      -23.086  87.753  12.782  0.00  0.00    +0.068 A 
ATOM     33  C   LIG    1      -23.293  86.358  12.790  0.00  0.00    +0.068 A 
BRANCH  32  34
ATOM     34  C   LIG    1      -22.200  88.481  13.781  0.00  0.00    +0.040 C 
ATOM     35  C   LIG    1      -20.754  88.747  13.412  0.00  0.00    +0.010 C 
ATOM     36  C   LIG    1      -21.072  87.721  14.446  0.00  0.00    +0.010 C 
ENDBRANCH  32  34
ENDBRANCH  25  28
ENDBRANCH   4  24
TORSDOF 6
ENDMDL
