MODEL 1
REMARK VINA RESULT:      -6.9      0.000      0.000
REMARK  Name = pdb/CHEMBL3967906.pdb
REMARK                            x       y       z     vdW  Elec       q    Type
REMARK                         _______ _______ _______ _____ _____    ______ ____
ROOT
ATOM      1  C   LIG    1      -36.392  71.911  26.684  0.00  0.00    +0.149 A 
ATOM      2  N   LIG    1      -37.606  72.449  26.488  0.00  0.00    -0.160 NA
ATOM      3  N   LIG    1      -37.936  72.138  25.211  0.00  0.00    -0.218 N 
ATOM      4  C   LIG    1      -37.033  71.224  24.659  0.00  0.00    +0.129 A 
ATOM      5  C   LIG    1      -36.009  71.135  25.569  0.00  0.00    +0.078 A 
ENDROOT
BRANCH   3   6
ATOM      6  C   LIG    1      -39.092  72.728  24.629  0.00  0.00    +0.067 A 
ATOM      7  C   LIG    1      -40.109  71.946  24.068  0.00  0.00    +0.028 A 
ATOM      8  C   LIG    1      -41.218  72.568  23.483  0.00  0.00    +0.002 A 
ATOM      9  C   LIG    1      -41.318  73.960  23.462  0.00  0.00    +0.000 A 
ATOM     10  C   LIG    1      -40.300  74.740  24.003  0.00  0.00    +0.002 A 
ATOM     11  C   LIG    1      -39.181  74.130  24.569  0.00  0.00    +0.028 A 
ENDBRANCH   3   6
BRANCH   4  12
ATOM     12  N   LIG    1      -37.170  70.489  23.473  0.00  0.00    -0.266 N 
ATOM     13  H   LIG    1      -36.892  70.938  22.608  0.00  0.00    +0.157 HD
ATOM     14  C   LIG    1      -37.818  69.202  23.419  0.00  0.00    +0.251 C 
ATOM     15  O   LIG    1      -38.245  68.669  24.424  0.00  0.00    -0.270 OA
BRANCH  14  16
ATOM     16  C   LIG    1      -37.921  68.504  22.118  0.00  0.00    +0.056 A 
ATOM     17  C   LIG    1      -39.102  68.374  21.384  0.00  0.00    +0.056 A 
ATOM     18 CL   LIG    1      -40.614  69.031  21.893  0.00  0.00    -0.083 Cl
ATOM     19  C   LIG    1      -39.094  67.651  20.192  0.00  0.00    +0.059 A 
ATOM     20  C   LIG    1      -37.918  67.055  19.734  0.00  0.00    +0.134 A 
ATOM     21  F   LIG    1      -37.993  66.349  18.597  0.00  0.00    -0.205 F 
ATOM     22  C   LIG    1      -36.710  67.154  20.434  0.00  0.00    +0.036 A 
ATOM     23  C   LIG    1      -36.742  67.891  21.636  0.00  0.00    +0.027 A 
BRANCH  22  24
ATOM     24  C   LIG    1      -35.463  66.498  19.985  0.00  0.00    +0.074 A 
ATOM     25  N   LIG    1      -34.982  65.542  20.822  0.00  0.00    -0.255 NA
ATOM     26  C   LIG    1      -33.857  64.884  20.455  0.00  0.00    +0.111 A 
ATOM     27  C   LIG    1      -33.160  65.139  19.289  0.00  0.00    +0.020 A 
ATOM     28  C   LIG    1      -33.644  66.130  18.448  0.00  0.00    +0.004 A 
ATOM     29  C   LIG    1      -34.805  66.819  18.798  0.00  0.00    +0.028 A 
ENDBRANCH  22  24
ENDBRANCH  14  16
ENDBRANCH   4  12
BRANCH   1  31
ATOM     30  N   LIG    1      -34.397  72.511  27.838  0.00  0.00    -0.244 NA
ATOM     31  C   LIG    1      -35.617  72.117  27.908  0.00  0.00    +0.236 C 
BRANCH  31  32
ATOM     32  O   LIG    1      -36.298  71.883  29.047  0.00  0.00    -0.491 OA
ATOM     33  H   LIG    1      -36.240  70.967  29.338  0.00  0.00    +0.294 HD
ENDBRANCH  31  32
BRANCH  30  34
ATOM     34  C   LIG    1      -33.629  72.761  29.054  0.00  0.00    +0.180 C 
BRANCH  34  39
ATOM     35  C   LIG    1      -32.735  76.359  28.241  0.00  0.00    +0.215 A 
ATOM     36  N   LIG    1      -31.643  76.613  28.992  0.00  0.00    -0.221 NA
ATOM     37  C   LIG    1      -31.184  75.589  29.743  0.00  0.00    +0.115 A 
ATOM     38  C   LIG    1      -31.782  74.336  29.798  0.00  0.00    +0.025 A 
ATOM     39  C   LIG    1      -32.910  74.090  29.007  0.00  0.00    -0.020 A 
ATOM     40  C   LIG    1      -33.371  75.127  28.190  0.00  0.00    +0.072 A 
BRANCH  35  42
ATOM     41  C   LIG    1      -32.303  77.869  26.518  0.00  0.00    +0.279 C 
ATOM     42  O   LIG    1      -33.261  77.350  27.436  0.00  0.00    -0.480 OA
ENDBRANCH  35  42
ENDBRANCH  34  39
ENDBRANCH  30  34
ENDBRANCH   1  31
TORSDOF 9
ENDMDL
MODEL 2
REMARK VINA RESULT:      -6.8     16.778     19.530
REMARK  Name = pdb/CHEMBL3967906.pdb
REMARK                            x       y       z     vdW  Elec       q    Type
REMARK                         _______ _______ _______ _____ _____    ______ ____
ROOT
ATOM      1  C   LIG    1      -23.028  82.204  15.170  0.00  0.00    +0.149 A 
ATOM      2  N   LIG    1      -24.146  82.063  14.442  0.00  0.00    -0.160 NA
ATOM      3  N   LIG    1      -24.061  80.831  13.886  0.00  0.00    -0.218 N 
ATOM      4  C   LIG    1      -22.998  80.100  14.426  0.00  0.00    +0.129 A 
ATOM      5  C   LIG    1      -22.294  80.998  15.189  0.00  0.00    +0.078 A 
ENDROOT
BRANCH   3   6
ATOM      6  C   LIG    1      -25.011  80.447  12.899  0.00  0.00    +0.067 A 
ATOM      7  C   LIG    1      -25.967  79.456  13.149  0.00  0.00    +0.028 A 
ATOM      8  C   LIG    1      -26.866  79.090  12.140  0.00  0.00    +0.002 A 
ATOM      9  C   LIG    1      -26.819  79.714  10.892  0.00  0.00    +0.000 A 
ATOM     10  C   LIG    1      -25.858  80.688  10.635  0.00  0.00    +0.002 A 
ATOM     11  C   LIG    1      -24.944  81.042  11.627  0.00  0.00    +0.028 A 
ENDBRANCH   3   6
BRANCH   4  12
ATOM     12  N   LIG    1      -22.740  78.729  14.290  0.00  0.00    -0.266 N 
ATOM     13  H   LIG    1      -22.082  78.444  13.574  0.00  0.00    +0.157 HD
ATOM     14  C   LIG    1      -23.472  77.719  15.013  0.00  0.00    +0.251 C 
ATOM     15  O   LIG    1      -24.332  78.017  15.817  0.00  0.00    -0.270 OA
BRANCH  14  16
ATOM     16  C   LIG    1      -23.132  76.294  14.798  0.00  0.00    +0.056 A 
ATOM     17  C   LIG    1      -23.289  75.620  13.585  0.00  0.00    +0.056 A 
ATOM     18 CL   LIG    1      -23.893  76.370  12.152  0.00  0.00    -0.083 Cl
ATOM     19  C   LIG    1      -22.983  74.262  13.508  0.00  0.00    +0.059 A 
ATOM     20  C   LIG    1      -22.527  73.575  14.635  0.00  0.00    +0.134 A 
ATOM     21  F   LIG    1      -22.284  72.264  14.495  0.00  0.00    -0.205 F 
ATOM     22  C   LIG    1      -22.356  74.205  15.873  0.00  0.00    +0.036 A 
ATOM     23  C   LIG    1      -22.670  75.579  15.926  0.00  0.00    +0.027 A 
BRANCH  22  24
ATOM     24  C   LIG    1      -21.911  73.487  17.087  0.00  0.00    +0.074 A 
ATOM     25  N   LIG    1      -20.584  73.197  17.130  0.00  0.00    -0.255 NA
ATOM     26  C   LIG    1      -20.107  72.564  18.228  0.00  0.00    +0.111 A 
ATOM     27  C   LIG    1      -20.892  72.180  19.299  0.00  0.00    +0.020 A 
ATOM     28  C   LIG    1      -22.250  72.459  19.240  0.00  0.00    +0.004 A 
ATOM     29  C   LIG    1      -22.767  73.117  18.125  0.00  0.00    +0.028 A 
ENDBRANCH  22  24
ENDBRANCH  14  16
ENDBRANCH   4  12
BRANCH   1  31
ATOM     30  N   LIG    1      -22.684  84.561  15.201  0.00  0.00    -0.244 NA
ATOM     31  C   LIG    1      -22.668  83.451  15.846  0.00  0.00    +0.236 C 
BRANCH  31  32
ATOM     32  O   LIG    1      -22.361  83.311  17.151  0.00  0.00    -0.491 OA
ATOM     33  H   LIG    1      -23.116  83.452  17.731  0.00  0.00    +0.294 HD
ENDBRANCH  31  32
BRANCH  30  34
ATOM     34  C   LIG    1      -22.370  85.816  15.876  0.00  0.00    +0.180 C 
BRANCH  34  39
ATOM     35  C   LIG    1      -19.923  87.660  13.635  0.00  0.00    +0.215 A 
ATOM     36  N   LIG    1      -20.651  88.655  13.089  0.00  0.00    -0.221 NA
ATOM     37  C   LIG    1      -21.940  88.737  13.482  0.00  0.00    +0.115 A 
ATOM     38  C   LIG    1      -22.539  87.854  14.372  0.00  0.00    +0.025 A 
ATOM     39  C   LIG    1      -21.766  86.831  14.933  0.00  0.00    -0.020 A 
ATOM     40  C   LIG    1      -20.418  86.761  14.570  0.00  0.00    +0.072 A 
BRANCH  35  42
ATOM     41  C   LIG    1      -18.337  86.284  12.624  0.00  0.00    +0.279 C 
ATOM     42  O   LIG    1      -18.593  87.514  13.295  0.00  0.00    -0.480 OA
ENDBRANCH  35  42
ENDBRANCH  34  39
ENDBRANCH  30  34
ENDBRANCH   1  31
TORSDOF 9
ENDMDL
MODEL 3
REMARK VINA RESULT:      -6.8      5.499      8.650
REMARK  Name = pdb/CHEMBL3967906.pdb
REMARK                            x       y       z     vdW  Elec       q    Type
REMARK                         _______ _______ _______ _____ _____    ______ ____
ROOT
ATOM      1  C   LIG    1      -31.973  74.981  30.421  0.00  0.00    +0.149 A 
ATOM      2  N   LIG    1      -32.463  76.228  30.343  0.00  0.00    -0.160 NA
ATOM      3  N   LIG    1      -33.265  76.232  29.251  0.00  0.00    -0.218 N 
ATOM      4  C   LIG    1      -33.458  74.939  28.754  0.00  0.00    +0.129 A 
ATOM      5  C   LIG    1      -32.577  74.150  29.453  0.00  0.00    +0.078 A 
ENDROOT
BRANCH   3   6
ATOM      6  C   LIG    1      -33.793  77.466  28.782  0.00  0.00    +0.067 A 
ATOM      7  C   LIG    1      -35.130  77.822  28.999  0.00  0.00    +0.028 A 
ATOM      8  C   LIG    1      -35.615  79.034  28.497  0.00  0.00    +0.002 A 
ATOM      9  C   LIG    1      -34.773  79.894  27.790  0.00  0.00    +0.000 A 
ATOM     10  C   LIG    1      -33.448  79.536  27.557  0.00  0.00    +0.002 A 
ATOM     11  C   LIG    1      -32.962  78.319  28.034  0.00  0.00    +0.028 A 
ENDBRANCH   3   6
BRANCH   4  12
ATOM     12  N   LIG    1      -34.398  74.512  27.807  0.00  0.00    -0.266 N 
ATOM     13  H   LIG    1      -34.112  74.497  26.835  0.00  0.00    +0.157 HD
ATOM     14  C   LIG    1      -35.776  74.243  28.137  0.00  0.00    +0.251 C 
ATOM     15  O   LIG    1      -36.180  74.336  29.278  0.00  0.00    -0.270 OA
BRANCH  14  16
ATOM     16  C   LIG    1      -36.698  73.803  27.065  0.00  0.00    +0.056 A 
ATOM     17  C   LIG    1      -36.842  72.480  26.644  0.00  0.00    +0.056 A 
ATOM     18 CL   LIG    1      -35.968  71.161  27.333  0.00  0.00    -0.083 Cl
ATOM     19  C   LIG    1      -37.705  72.184  25.589  0.00  0.00    +0.059 A 
ATOM     20  C   LIG    1      -38.418  73.203  24.952  0.00  0.00    +0.134 A 
ATOM     21  F   LIG    1      -39.204  72.849  23.925  0.00  0.00    -0.205 F 
ATOM     22  C   LIG    1      -38.305  74.544  25.336  0.00  0.00    +0.036 A 
ATOM     23  C   LIG    1      -37.428  74.818  26.406  0.00  0.00    +0.027 A 
BRANCH  22  24
ATOM     24  C   LIG    1      -39.022  75.640  24.650  0.00  0.00    +0.074 A 
ATOM     25  N   LIG    1      -38.326  76.801  24.537  0.00  0.00    -0.255 NA
ATOM     26  C   LIG    1      -38.915  77.836  23.893  0.00  0.00    +0.111 A 
ATOM     27  C   LIG    1      -40.190  77.788  23.361  0.00  0.00    +0.020 A 
ATOM     28  C   LIG    1      -40.905  76.607  23.498  0.00  0.00    +0.004 A 
ATOM     29  C   LIG    1      -40.319  75.522  24.149  0.00  0.00    +0.028 A 
ENDBRANCH  22  24
ENDBRANCH  14  16
ENDBRANCH   4  12
BRANCH   1  31
ATOM     30  N   LIG    1      -30.270  75.474  32.013  0.00  0.00    -0.244 NA
ATOM     31  C   LIG    1      -30.963  74.581  31.402  0.00  0.00    +0.236 C 
BRANCH  31  32
ATOM     32  O   LIG    1      -30.868  73.251  31.596  0.00  0.00    -0.491 OA
ATOM     33  H   LIG    1      -30.855  72.751  30.774  0.00  0.00    +0.294 HD
ENDBRANCH  31  32
BRANCH  30  34
ATOM     34  C   LIG    1      -29.292  75.088  33.025  0.00  0.00    +0.180 C 
BRANCH  34  39
ATOM     35  C   LIG    1      -26.295  77.011  31.712  0.00  0.00    +0.215 A 
ATOM     36  N   LIG    1      -25.774  77.609  32.802  0.00  0.00    -0.221 NA
ATOM     37  C   LIG    1      -26.393  77.355  33.976  0.00  0.00    +0.115 A 
ATOM     38  C   LIG    1      -27.522  76.554  34.101  0.00  0.00    +0.025 A 
ATOM     39  C   LIG    1      -28.044  75.937  32.958  0.00  0.00    -0.020 A 
ATOM     40  C   LIG    1      -27.387  76.156  31.744  0.00  0.00    +0.072 A 
BRANCH  35  42
ATOM     41  C   LIG    1      -24.610  78.109  30.533  0.00  0.00    +0.279 C 
ATOM     42  O   LIG    1      -25.714  77.211  30.475  0.00  0.00    -0.480 OA
ENDBRANCH  35  42
ENDBRANCH  34  39
ENDBRANCH  30  34
ENDBRANCH   1  31
TORSDOF 9
ENDMDL
MODEL 4
REMARK VINA RESULT:      -6.7     10.536     15.670
REMARK  Name = pdb/CHEMBL3967906.pdb
REMARK                            x       y       z     vdW  Elec       q    Type
REMARK                         _______ _______ _______ _____ _____    ______ ____
ROOT
ATOM      1  C   LIG    1      -31.349  87.038  30.883  0.00  0.00    +0.149 A 
ATOM      2  N   LIG    1      -32.415  87.827  30.680  0.00  0.00    -0.160 NA
ATOM      3  N   LIG    1      -33.232  87.124  29.858  0.00  0.00    -0.218 N 
ATOM      4  C   LIG    1      -32.792  85.806  29.707  0.00  0.00    +0.129 A 
ATOM      5  C   LIG    1      -31.553  85.769  30.298  0.00  0.00    +0.078 A 
ENDROOT
BRANCH   3   6
ATOM      6  C   LIG    1      -34.372  87.764  29.298  0.00  0.00    +0.067 A 
ATOM      7  C   LIG    1      -34.248  88.765  28.328  0.00  0.00    +0.028 A 
ATOM      8  C   LIG    1      -35.395  89.387  27.823  0.00  0.00    +0.002 A 
ATOM      9  C   LIG    1      -36.661  89.009  28.274  0.00  0.00    +0.000 A 
ATOM     10  C   LIG    1      -36.787  88.025  29.252  0.00  0.00    +0.002 A 
ATOM     11  C   LIG    1      -35.648  87.417  29.777  0.00  0.00    +0.028 A 
ENDBRANCH   3   6
BRANCH   4  12
ATOM     12  N   LIG    1      -33.487  84.725  29.147  0.00  0.00    -0.266 N 
ATOM     13  H   LIG    1      -33.399  84.578  28.147  0.00  0.00    +0.157 HD
ATOM     14  C   LIG    1      -34.423  83.923  29.894  0.00  0.00    +0.251 C 
ATOM     15  O   LIG    1      -34.624  84.125  31.075  0.00  0.00    -0.270 OA
BRANCH  14  16
ATOM     16  C   LIG    1      -35.115  82.806  29.213  0.00  0.00    +0.056 A 
ATOM     17  C   LIG    1      -36.492  82.756  28.982  0.00  0.00    +0.056 A 
ATOM     18 CL   LIG    1      -37.581  84.010  29.448  0.00  0.00    -0.083 Cl
ATOM     19  C   LIG    1      -37.046  81.629  28.374  0.00  0.00    +0.059 A 
ATOM     20  C   LIG    1      -36.235  80.555  28.004  0.00  0.00    +0.134 A 
ATOM     21  F   LIG    1      -36.840  79.492  27.455  0.00  0.00    -0.205 F 
ATOM     22  C   LIG    1      -34.852  80.556  28.218  0.00  0.00    +0.036 A 
ATOM     23  C   LIG    1      -34.314  81.707  28.831  0.00  0.00    +0.027 A 
BRANCH  22  24
ATOM     24  C   LIG    1      -33.982  79.413  27.867  0.00  0.00    +0.074 A 
ATOM     25  N   LIG    1      -33.227  79.585  26.751  0.00  0.00    -0.255 NA
ATOM     26  C   LIG    1      -32.388  78.585  26.390  0.00  0.00    +0.111 A 
ATOM     27  C   LIG    1      -32.266  77.394  27.081  0.00  0.00    +0.020 A 
ATOM     28  C   LIG    1      -33.054  77.215  28.209  0.00  0.00    +0.004 A 
ATOM     29  C   LIG    1      -33.922  78.231  28.607  0.00  0.00    +0.028 A 
ENDBRANCH  22  24
ENDBRANCH  14  16
ENDBRANCH   4  12
BRANCH   1  31
ATOM     30  N   LIG    1      -30.187  87.494  32.912  0.00  0.00    -0.244 NA
ATOM     31  C   LIG    1      -30.167  87.472  31.627  0.00  0.00    +0.236 C 
BRANCH  31  32
ATOM     32  O   LIG    1      -29.110  87.801  30.857  0.00  0.00    -0.491 OA
ATOM     33  H   LIG    1      -28.605  88.541  31.210  0.00  0.00    +0.294 HD
ENDBRANCH  31  32
BRANCH  30  34
ATOM     34  C   LIG    1      -28.999  87.883  33.665  0.00  0.00    +0.180 C 
BRANCH  34  39
ATOM     35  C   LIG    1      -27.468  85.335  36.024  0.00  0.00    +0.215 A 
ATOM     36  N   LIG    1      -28.251  85.378  37.121  0.00  0.00    -0.221 NA
ATOM     37  C   LIG    1      -29.301  86.225  37.072  0.00  0.00    +0.115 A 
ATOM     38  C   LIG    1      -29.585  87.049  35.989  0.00  0.00    +0.025 A 
ATOM     39  C   LIG    1      -28.765  86.985  34.857  0.00  0.00    -0.020 A 
ATOM     40  C   LIG    1      -27.699  86.080  34.877  0.00  0.00    +0.072 A 
BRANCH  35  42
ATOM     41  C   LIG    1      -26.383  83.555  37.067  0.00  0.00    +0.279 C 
ATOM     42  O   LIG    1      -26.379  84.486  35.989  0.00  0.00    -0.480 OA
ENDBRANCH  35  42
ENDBRANCH  34  39
ENDBRANCH  30  34
ENDBRANCH   1  31
TORSDOF 9
ENDMDL
MODEL 5
REMARK VINA RESULT:      -6.5      5.347      8.353
REMARK  Name = pdb/CHEMBL3967906.pdb
REMARK                            x       y       z     vdW  Elec       q    Type
REMARK                         _______ _______ _______ _____ _____    ______ ____
ROOT
ATOM      1  C   LIG    1      -37.301  80.000  27.628  0.00  0.00    +0.149 A 
ATOM      2  N   LIG    1      -36.168  79.294  27.764  0.00  0.00    -0.160 NA
ATOM      3  N   LIG    1      -36.519  78.003  27.554  0.00  0.00    -0.218 N 
ATOM      4  C   LIG    1      -37.829  77.903  27.074  0.00  0.00    +0.129 A 
ATOM      5  C   LIG    1      -38.353  79.167  27.191  0.00  0.00    +0.078 A 
ENDROOT
BRANCH   3   6
ATOM      6  C   LIG    1      -35.573  76.974  27.813  0.00  0.00    +0.067 A 
ATOM      7  C   LIG    1      -34.293  76.995  27.246  0.00  0.00    +0.028 A 
ATOM      8  C   LIG    1      -33.402  75.948  27.507  0.00  0.00    +0.002 A 
ATOM      9  C   LIG    1      -33.778  74.890  28.335  0.00  0.00    +0.000 A 
ATOM     10  C   LIG    1      -35.056  74.857  28.888  0.00  0.00    +0.002 A 
ATOM     11  C   LIG    1      -35.959  75.884  28.614  0.00  0.00    +0.028 A 
ENDBRANCH   3   6
BRANCH   4  12
ATOM     12  N   LIG    1      -38.458  76.781  26.517  0.00  0.00    -0.266 N 
ATOM     13  H   LIG    1      -39.154  76.305  27.080  0.00  0.00    +0.157 HD
ATOM     14  C   LIG    1      -38.054  76.199  25.261  0.00  0.00    +0.251 C 
ATOM     15  O   LIG    1      -37.163  76.688  24.598  0.00  0.00    -0.270 OA
BRANCH  14  16
ATOM     16  C   LIG    1      -38.775  75.009  24.757  0.00  0.00    +0.056 A 
ATOM     17  C   LIG    1      -40.040  75.045  24.164  0.00  0.00    +0.056 A 
ATOM     18 CL   LIG    1      -40.935  76.501  23.922  0.00  0.00    -0.083 Cl
ATOM     19  C   LIG    1      -40.648  73.854  23.769  0.00  0.00    +0.059 A 
ATOM     20  C   LIG    1      -40.004  72.631  23.969  0.00  0.00    +0.134 A 
ATOM     21  F   LIG    1      -40.663  71.525  23.594  0.00  0.00    -0.205 F 
ATOM     22  C   LIG    1      -38.739  72.543  24.561  0.00  0.00    +0.036 A 
ATOM     23  C   LIG    1      -38.143  73.760  24.950  0.00  0.00    +0.027 A 
BRANCH  22  24
ATOM     24  C   LIG    1      -38.058  71.255  24.814  0.00  0.00    +0.074 A 
ATOM     25  N   LIG    1      -37.874  70.950  26.125  0.00  0.00    -0.255 NA
ATOM     26  C   LIG    1      -37.280  69.770  26.427  0.00  0.00    +0.111 A 
ATOM     27  C   LIG    1      -36.835  68.867  25.479  0.00  0.00    +0.020 A 
ATOM     28  C   LIG    1      -37.007  69.193  24.142  0.00  0.00    +0.004 A 
ATOM     29  C   LIG    1      -37.623  70.398  23.804  0.00  0.00    +0.028 A 
ENDBRANCH  22  24
ENDBRANCH  14  16
ENDBRANCH   4  12
BRANCH   1  31
ATOM     30  N   LIG    1      -36.434  82.216  27.513  0.00  0.00    -0.244 NA
ATOM     31  C   LIG    1      -37.382  81.437  27.892  0.00  0.00    +0.236 C 
BRANCH  31  32
ATOM     32  O   LIG    1      -38.510  81.828  28.519  0.00  0.00    -0.491 OA
ATOM     33  H   LIG    1      -38.574  81.491  29.419  0.00  0.00    +0.294 HD
ENDBRANCH  31  32
BRANCH  30  34
ATOM     34  C   LIG    1      -36.525  83.655  27.732  0.00  0.00    +0.180 C 
BRANCH  34  39
ATOM     35  C   LIG    1      -33.812  85.934  29.093  0.00  0.00    +0.215 A 
ATOM     36  N   LIG    1      -33.239  85.222  30.084  0.00  0.00    -0.221 NA
ATOM     37  C   LIG    1      -33.727  83.979  30.285  0.00  0.00    +0.115 A 
ATOM     38  C   LIG    1      -34.777  83.430  29.559  0.00  0.00    +0.025 A 
ATOM     39  C   LIG    1      -35.354  84.182  28.530  0.00  0.00    -0.020 A 
ATOM     40  C   LIG    1      -34.830  85.454  28.281  0.00  0.00    +0.072 A 
BRANCH  35  42
ATOM     41  C   LIG    1      -34.079  88.206  29.538  0.00  0.00    +0.279 C 
ATOM     42  O   LIG    1      -33.363  87.210  28.815  0.00  0.00    -0.480 OA
ENDBRANCH  35  42
ENDBRANCH  34  39
ENDBRANCH  30  34
ENDBRANCH   1  31
TORSDOF 9
ENDMDL
MODEL 6
REMARK VINA RESULT:      -6.5      4.626      6.466
REMARK  Name = pdb/CHEMBL3967906.pdb
REMARK                            x       y       z     vdW  Elec       q    Type
REMARK                         _______ _______ _______ _____ _____    ______ ____
ROOT
ATOM      1  C   LIG    1      -38.412  77.191  25.979  0.00  0.00    +0.149 A 
ATOM      2  N   LIG    1      -39.614  76.778  25.551  0.00  0.00    -0.160 NA
ATOM      3  N   LIG    1      -39.392  75.581  24.954  0.00  0.00    -0.218 N 
ATOM      4  C   LIG    1      -38.089  75.129  25.188  0.00  0.00    +0.129 A 
ATOM      5  C   LIG    1      -37.441  76.186  25.777  0.00  0.00    +0.078 A 
ENDROOT
BRANCH   3   6
ATOM      6  C   LIG    1      -40.444  74.962  24.224  0.00  0.00    +0.067 A 
ATOM      7  C   LIG    1      -40.470  73.580  24.006  0.00  0.00    +0.028 A 
ATOM      8  C   LIG    1      -41.511  73.016  23.261  0.00  0.00    +0.002 A 
ATOM      9  C   LIG    1      -42.526  73.821  22.741  0.00  0.00    +0.000 A 
ATOM     10  C   LIG    1      -42.494  75.198  22.942  0.00  0.00    +0.002 A 
ATOM     11  C   LIG    1      -41.448  75.772  23.665  0.00  0.00    +0.028 A 
ENDBRANCH   3   6
BRANCH   4  12
ATOM     12  N   LIG    1      -37.567  73.850  24.950  0.00  0.00    -0.266 N 
ATOM     13  H   LIG    1      -37.156  73.673  24.041  0.00  0.00    +0.157 HD
ATOM     14  C   LIG    1      -37.724  72.756  25.875  0.00  0.00    +0.251 C 
ATOM     15  O   LIG    1      -38.290  72.906  26.940  0.00  0.00    -0.270 OA
BRANCH  14  16
ATOM     16  C   LIG    1      -37.142  71.438  25.534  0.00  0.00    +0.056 A 
ATOM     17  C   LIG    1      -36.103  70.828  26.239  0.00  0.00    +0.056 A 
ATOM     18 CL   LIG    1      -35.359  71.528  27.630  0.00  0.00    -0.083 Cl
ATOM     19  C   LIG    1      -35.598  69.605  25.798  0.00  0.00    +0.059 A 
ATOM     20  C   LIG    1      -36.120  68.995  24.656  0.00  0.00    +0.134 A 
ATOM     21  F   LIG    1      -35.563  67.837  24.273  0.00  0.00    -0.205 F 
ATOM     22  C   LIG    1      -37.159  69.568  23.914  0.00  0.00    +0.036 A 
ATOM     23  C   LIG    1      -37.655  70.803  24.380  0.00  0.00    +0.027 A 
BRANCH  22  24
ATOM     24  C   LIG    1      -37.700  68.955  22.682  0.00  0.00    +0.074 A 
ATOM     25  N   LIG    1      -37.070  69.319  21.534  0.00  0.00    -0.255 NA
ATOM     26  C   LIG    1      -37.499  68.772  20.372  0.00  0.00    +0.111 A 
ATOM     27  C   LIG    1      -38.551  67.879  20.282  0.00  0.00    +0.020 A 
ATOM     28  C   LIG    1      -39.204  67.527  21.454  0.00  0.00    +0.004 A 
ATOM     29  C   LIG    1      -38.778  68.070  22.666  0.00  0.00    +0.028 A 
ENDBRANCH  22  24
ENDBRANCH  14  16
ENDBRANCH   4  12
BRANCH   1  31
ATOM     30  N   LIG    1      -39.118  79.394  26.551  0.00  0.00    -0.244 NA
ATOM     31  C   LIG    1      -38.190  78.506  26.582  0.00  0.00    +0.236 C 
BRANCH  31  32
ATOM     32  O   LIG    1      -36.981  78.660  27.159  0.00  0.00    -0.491 OA
ATOM     33  H   LIG    1      -36.276  78.216  26.678  0.00  0.00    +0.294 HD
ENDBRANCH  31  32
BRANCH  30  34
ATOM     34  C   LIG    1      -38.922  80.692  27.187  0.00  0.00    +0.180 C 
BRANCH  34  39
ATOM     35  C   LIG    1      -36.857  83.319  25.387  0.00  0.00    +0.215 A 
ATOM     36  N   LIG    1      -37.591  83.639  24.302  0.00  0.00    -0.221 NA
ATOM     37  C   LIG    1      -38.780  83.011  24.178  0.00  0.00    +0.115 A 
ATOM     38  C   LIG    1      -39.253  82.061  25.075  0.00  0.00    +0.025 A 
ATOM     39  C   LIG    1      -38.480  81.747  26.198  0.00  0.00    -0.020 A 
ATOM     40  C   LIG    1      -37.267  82.421  26.362  0.00  0.00    +0.072 A 
BRANCH  35  42
ATOM     41  C   LIG    1      -35.689  85.336  25.405  0.00  0.00    +0.279 C 
ATOM     42  O   LIG    1      -35.634  83.925  25.593  0.00  0.00    -0.480 OA
ENDBRANCH  35  42
ENDBRANCH  34  39
ENDBRANCH  30  34
ENDBRANCH   1  31
TORSDOF 9
ENDMDL
MODEL 7
REMARK VINA RESULT:      -6.5     15.937     22.144
REMARK  Name = pdb/CHEMBL3967906.pdb
REMARK                            x       y       z     vdW  Elec       q    Type
REMARK                         _______ _______ _______ _____ _____    ______ ____
ROOT
ATOM      1  C   LIG    1      -21.250  79.936  34.958  0.00  0.00    +0.149 A 
ATOM      2  N   LIG    1      -20.443  80.382  35.932  0.00  0.00    -0.160 NA
ATOM      3  N   LIG    1      -21.081  81.450  36.468  0.00  0.00    -0.218 N 
ATOM      4  C   LIG    1      -22.388  81.560  35.983  0.00  0.00    +0.129 A 
ATOM      5  C   LIG    1      -22.473  80.641  34.966  0.00  0.00    +0.078 A 
ENDROOT
BRANCH   3   6
ATOM      6  C   LIG    1      -20.396  82.269  37.408  0.00  0.00    +0.067 A 
ATOM      7  C   LIG    1      -20.354  83.662  37.273  0.00  0.00    +0.028 A 
ATOM      8  C   LIG    1      -19.647  84.427  38.207  0.00  0.00    +0.002 A 
ATOM      9  C   LIG    1      -18.992  83.811  39.275  0.00  0.00    +0.000 A 
ATOM     10  C   LIG    1      -19.018  82.425  39.403  0.00  0.00    +0.002 A 
ATOM     11  C   LIG    1      -19.701  81.653  38.463  0.00  0.00    +0.028 A 
ENDBRANCH   3   6
BRANCH   4  12
ATOM     12  N   LIG    1      -23.422  82.370  36.472  0.00  0.00    -0.266 N 
ATOM     13  H   LIG    1      -23.276  83.373  36.464  0.00  0.00    +0.157 HD
ATOM     14  C   LIG    1      -24.600  81.837  37.110  0.00  0.00    +0.251 C 
ATOM     15  O   LIG    1      -24.771  80.640  37.218  0.00  0.00    -0.270 OA
BRANCH  14  16
ATOM     16  C   LIG    1      -25.636  82.774  37.601  0.00  0.00    +0.056 A 
ATOM     17  C   LIG    1      -26.151  82.769  38.900  0.00  0.00    +0.056 A 
ATOM     18 CL   LIG    1      -25.632  81.670  40.125  0.00  0.00    -0.083 Cl
ATOM     19  C   LIG    1      -27.163  83.666  39.241  0.00  0.00    +0.059 A 
ATOM     20  C   LIG    1      -27.664  84.560  38.293  0.00  0.00    +0.134 A 
ATOM     21  F   LIG    1      -28.658  85.371  38.682  0.00  0.00    -0.205 F 
ATOM     22  C   LIG    1      -27.183  84.601  36.979  0.00  0.00    +0.036 A 
ATOM     23  C   LIG    1      -26.159  83.687  36.658  0.00  0.00    +0.027 A 
BRANCH  22  24
ATOM     24  C   LIG    1      -27.727  85.515  35.951  0.00  0.00    +0.074 A 
ATOM     25  N   LIG    1      -26.885  86.507  35.559  0.00  0.00    -0.255 NA
ATOM     26  C   LIG    1      -27.313  87.361  34.600  0.00  0.00    +0.111 A 
ATOM     27  C   LIG    1      -28.561  87.295  34.008  0.00  0.00    +0.020 A 
ATOM     28  C   LIG    1      -29.424  86.293  34.426  0.00  0.00    +0.004 A 
ATOM     29  C   LIG    1      -29.006  85.394  35.408  0.00  0.00    +0.028 A 
ENDBRANCH  22  24
ENDBRANCH  14  16
ENDBRANCH   4  12
BRANCH   1  31
ATOM     30  N   LIG    1      -21.572  77.774  34.009  0.00  0.00    -0.244 NA
ATOM     31  C   LIG    1      -20.877  78.854  34.046  0.00  0.00    +0.236 C 
BRANCH  31  32
ATOM     32  O   LIG    1      -19.800  79.116  33.277  0.00  0.00    -0.491 OA
ATOM     33  H   LIG    1      -19.568  80.050  33.263  0.00  0.00    +0.294 HD
ENDBRANCH  31  32
BRANCH  30  34
ATOM     34  C   LIG    1      -21.234  76.707  33.073  0.00  0.00    +0.180 C 
BRANCH  34  39
ATOM     35  C   LIG    1      -23.917  77.449  30.492  0.00  0.00    +0.215 A 
ATOM     36  N   LIG    1      -23.309  77.242  29.306  0.00  0.00    -0.221 NA
ATOM     37  C   LIG    1      -22.024  76.830  29.357  0.00  0.00    +0.115 A 
ATOM     38  C   LIG    1      -21.315  76.642  30.537  0.00  0.00    +0.025 A 
ATOM     39  C   LIG    1      -21.964  76.856  31.758  0.00  0.00    -0.020 A 
ATOM     40  C   LIG    1      -23.308  77.241  31.721  0.00  0.00    +0.072 A 
BRANCH  35  42
ATOM     41  C   LIG    1      -26.007  77.125  31.470  0.00  0.00    +0.279 C 
ATOM     42  O   LIG    1      -25.234  77.861  30.527  0.00  0.00    -0.480 OA
ENDBRANCH  35  42
ENDBRANCH  34  39
ENDBRANCH  30  34
ENDBRANCH   1  31
TORSDOF 9
ENDMDL
MODEL 8
REMARK VINA RESULT:      -6.5     16.733     21.092
REMARK  Name = pdb/CHEMBL3967906.pdb
REMARK                            x       y       z     vdW  Elec       q    Type
REMARK                         _______ _______ _______ _____ _____    ______ ____
ROOT
ATOM      1  C   LIG    1      -26.248  78.009  13.882  0.00  0.00    +0.149 A 
ATOM      2  N   LIG    1      -25.244  78.109  14.766  0.00  0.00    -0.160 NA
ATOM      3  N   LIG    1      -24.647  79.296  14.500  0.00  0.00    -0.218 N 
ATOM      4  C   LIG    1      -25.395  80.051  13.592  0.00  0.00    +0.129 A 
ATOM      5  C   LIG    1      -26.377  79.203  13.141  0.00  0.00    +0.078 A 
ENDROOT
BRANCH   3   6
ATOM      6  C   LIG    1      -23.421  79.617  15.146  0.00  0.00    +0.067 A 
ATOM      7  C   LIG    1      -23.296  80.748  15.960  0.00  0.00    +0.028 A 
ATOM      8  C   LIG    1      -22.064  81.041  16.555  0.00  0.00    +0.002 A 
ATOM      9  C   LIG    1      -20.963  80.208  16.348  0.00  0.00    +0.000 A 
ATOM     10  C   LIG    1      -21.080  79.091  15.526  0.00  0.00    +0.002 A 
ATOM     11  C   LIG    1      -22.298  78.804  14.910  0.00  0.00    +0.028 A 
ENDBRANCH   3   6
BRANCH   4  12
ATOM     12  N   LIG    1      -25.239  81.405  13.265  0.00  0.00    -0.266 N 
ATOM     13  H   LIG    1      -25.730  82.085  13.833  0.00  0.00    +0.157 HD
ATOM     14  C   LIG    1      -24.542  81.850  12.084  0.00  0.00    +0.251 C 
ATOM     15  O   LIG    1      -24.014  81.059  11.328  0.00  0.00    -0.270 OA
BRANCH  14  16
ATOM     16  C   LIG    1      -24.434  83.302  11.818  0.00  0.00    +0.056 A 
ATOM     17  C   LIG    1      -25.189  83.987  10.863  0.00  0.00    +0.056 A 
ATOM     18 CL   LIG    1      -26.373  83.227   9.863  0.00  0.00    -0.083 Cl
ATOM     19  C   LIG    1      -24.970  85.349  10.662  0.00  0.00    +0.059 A 
ATOM     20  C   LIG    1      -24.000  86.027  11.403  0.00  0.00    +0.134 A 
ATOM     21  F   LIG    1      -23.822  87.328  11.133  0.00  0.00    -0.205 F 
ATOM     22  C   LIG    1      -23.217  85.385  12.369  0.00  0.00    +0.036 A 
ATOM     23  C   LIG    1      -23.458  84.008  12.557  0.00  0.00    +0.027 A 
BRANCH  22  24
ATOM     24  C   LIG    1      -22.160  86.076  13.138  0.00  0.00    +0.074 A 
ATOM     25  N   LIG    1      -22.526  86.487  14.380  0.00  0.00    -0.255 NA
ATOM     26  C   LIG    1      -21.595  87.103  15.147  0.00  0.00    +0.111 A 
ATOM     27  C   LIG    1      -20.300  87.353  14.734  0.00  0.00    +0.020 A 
ATOM     28  C   LIG    1      -19.937  86.950  13.457  0.00  0.00    +0.004 A 
ATOM     29  C   LIG    1      -20.874  86.307  12.649  0.00  0.00    +0.028 A 
ENDBRANCH  22  24
ENDBRANCH  14  16
ENDBRANCH   4  12
BRANCH   1  31
ATOM     30  N   LIG    1      -27.087  76.150  12.650  0.00  0.00    -0.244 NA
ATOM     31  C   LIG    1      -27.079  76.811  13.752  0.00  0.00    +0.236 C 
BRANCH  31  32
ATOM     32  O   LIG    1      -27.774  76.488  14.861  0.00  0.00    -0.491 OA
ATOM     33  H   LIG    1      -28.554  77.036  14.988  0.00  0.00    +0.294 HD
ENDBRANCH  31  32
BRANCH  30  34
ATOM     34  C   LIG    1      -27.879  74.931  12.524  0.00  0.00    +0.180 C 
BRANCH  34  39
ATOM     35  C   LIG    1      -30.725  76.577  10.628  0.00  0.00    +0.215 A 
ATOM     36  N   LIG    1      -31.711  75.658  10.635  0.00  0.00    -0.221 NA
ATOM     37  C   LIG    1      -31.449  74.507  11.291  0.00  0.00    +0.115 A 
ATOM     38  C   LIG    1      -30.239  74.225  11.913  0.00  0.00    +0.025 A 
ATOM     39  C   LIG    1      -29.230  75.194  11.900  0.00  0.00    -0.020 A 
ATOM     40  C   LIG    1      -29.502  76.408  11.263  0.00  0.00    +0.072 A 
BRANCH  35  42
ATOM     41  C   LIG    1      -31.197  78.843  10.901  0.00  0.00    +0.279 C 
ATOM     42  O   LIG    1      -30.917  77.786   9.989  0.00  0.00    -0.480 OA
ENDBRANCH  35  42
ENDBRANCH  34  39
ENDBRANCH  30  34
ENDBRANCH   1  31
TORSDOF 9
ENDMDL
MODEL 9
REMARK VINA RESULT:      -6.2     10.892     16.249
REMARK  Name = pdb/CHEMBL3967906.pdb
REMARK                            x       y       z     vdW  Elec       q    Type
REMARK                         _______ _______ _______ _____ _____    ______ ____
ROOT
ATOM      1  C   LIG    1      -31.255  87.090  30.751  0.00  0.00    +0.149 A 
ATOM      2  N   LIG    1      -32.311  87.891  30.543  0.00  0.00    -0.160 NA
ATOM      3  N   LIG    1      -33.149  87.182  29.748  0.00  0.00    -0.218 N 
ATOM      4  C   LIG    1      -32.732  85.853  29.622  0.00  0.00    +0.129 A 
ATOM      5  C   LIG    1      -31.486  85.811  30.200  0.00  0.00    +0.078 A 
ENDROOT
BRANCH   3   6
ATOM      6  C   LIG    1      -34.286  87.827  29.186  0.00  0.00    +0.067 A 
ATOM      7  C   LIG    1      -35.584  87.362  29.425  0.00  0.00    +0.028 A 
ATOM      8  C   LIG    1      -36.673  88.011  28.832  0.00  0.00    +0.002 A 
ATOM      9  C   LIG    1      -36.472  89.122  28.012  0.00  0.00    +0.000 A 
ATOM     10  C   LIG    1      -35.181  89.577  27.759  0.00  0.00    +0.002 A 
ATOM     11  C   LIG    1      -34.088  88.922  28.327  0.00  0.00    +0.028 A 
ENDBRANCH   3   6
BRANCH   4  12
ATOM     12  N   LIG    1      -33.451  84.771  29.096  0.00  0.00    -0.266 N 
ATOM     13  H   LIG    1      -33.425  84.635  28.092  0.00  0.00    +0.157 HD
ATOM     14  C   LIG    1      -34.328  83.952  29.894  0.00  0.00    +0.251 C 
ATOM     15  O   LIG    1      -34.454  84.139  31.087  0.00  0.00    -0.270 OA
BRANCH  14  16
ATOM     16  C   LIG    1      -35.052  82.834  29.247  0.00  0.00    +0.056 A 
ATOM     17  C   LIG    1      -36.436  82.791  29.066  0.00  0.00    +0.056 A 
ATOM     18 CL   LIG    1      -37.500  84.055  29.564  0.00  0.00    -0.083 Cl
ATOM     19  C   LIG    1      -37.019  81.663  28.487  0.00  0.00    +0.059 A 
ATOM     20  C   LIG    1      -36.228  80.581  28.095  0.00  0.00    +0.134 A 
ATOM     21  F   LIG    1      -36.860  79.519  27.576  0.00  0.00    -0.205 F 
ATOM     22  C   LIG    1      -34.838  80.576  28.258  0.00  0.00    +0.036 A 
ATOM     23  C   LIG    1      -34.271  81.727  28.843  0.00  0.00    +0.027 A 
BRANCH  22  24
ATOM     24  C   LIG    1      -33.989  79.425  27.884  0.00  0.00    +0.074 A 
ATOM     25  N   LIG    1      -33.236  79.605  26.767  0.00  0.00    -0.255 NA
ATOM     26  C   LIG    1      -32.414  78.598  26.385  0.00  0.00    +0.111 A 
ATOM     27  C   LIG    1      -32.309  77.393  27.054  0.00  0.00    +0.020 A 
ATOM     28  C   LIG    1      -33.096  77.207  28.182  0.00  0.00    +0.004 A 
ATOM     29  C   LIG    1      -33.945  78.230  28.602  0.00  0.00    +0.028 A 
ENDBRANCH  22  24
ENDBRANCH  14  16
ENDBRANCH   4  12
BRANCH   1  31
ATOM     30  N   LIG    1      -30.047  87.535  32.756  0.00  0.00    -0.244 NA
ATOM     31  C   LIG    1      -30.057  87.522  31.471  0.00  0.00    +0.236 C 
BRANCH  31  32
ATOM     32  O   LIG    1      -29.020  87.861  30.680  0.00  0.00    -0.491 OA
ATOM     33  H   LIG    1      -28.613  88.696  30.931  0.00  0.00    +0.294 HD
ENDBRANCH  31  32
BRANCH  30  34
ATOM     34  C   LIG    1      -28.844  87.922  33.484  0.00  0.00    +0.180 C 
BRANCH  34  39
ATOM     35  C   LIG    1      -29.470  91.641  33.918  0.00  0.00    +0.215 A 
ATOM     36  N   LIG    1      -29.315  91.856  35.241  0.00  0.00    -0.221 NA
ATOM     37  C   LIG    1      -28.976  90.782  35.985  0.00  0.00    +0.115 A 
ATOM     38  C   LIG    1      -28.812  89.501  35.471  0.00  0.00    +0.025 A 
ATOM     39  C   LIG    1      -28.970  89.299  34.096  0.00  0.00    -0.020 A 
ATOM     40  C   LIG    1      -29.278  90.410  33.306  0.00  0.00    +0.072 A 
BRANCH  35  42
ATOM     41  C   LIG    1      -30.895  92.370  32.224  0.00  0.00    +0.279 C 
ATOM     42  O   LIG    1      -29.806  92.689  33.085  0.00  0.00    -0.480 OA
ENDBRANCH  35  42
ENDBRANCH  34  39
ENDBRANCH  30  34
ENDBRANCH   1  31
TORSDOF 9
ENDMDL
