MODEL 1
REMARK VINA RESULT:      -6.1      0.000      0.000
REMARK  Name = pdb/CHEMBL3676026.pdb
REMARK                            x       y       z     vdW  Elec       q    Type
REMARK                         _______ _______ _______ _____ _____    ______ ____
ROOT
ATOM      1  C   LIG    1      -31.226  75.675  30.918  0.00  0.00    +0.126 A 
ATOM      2  N   LIG    1      -29.911  75.780  30.950  0.00  0.00    -0.212 NA
ATOM      3  C   LIG    1      -29.321  76.308  32.076  0.00  0.00    +0.170 A 
ATOM      4  C   LIG    1      -27.999  76.484  32.437  0.00  0.00    +0.100 A 
ATOM      5  C   LIG    1      -28.053  77.096  33.705  0.00  0.00    +0.150 A 
ATOM      6  N   LIG    1      -29.304  77.279  34.144  0.00  0.00    -0.173 NA
ATOM      7  N   LIG    1      -30.073  76.779  33.152  0.00  0.00    -0.221 N 
ATOM      8  C   LIG    1      -31.447  76.693  33.134  0.00  0.00    +0.118 A 
ATOM      9  C   LIG    1      -32.067  76.153  32.082  0.00  0.00    +0.063 A 
ENDROOT
BRANCH   1  11
ATOM     10  C   LIG    1      -33.205  75.528  29.349  0.00  0.00    +0.110 C 
ATOM     11  N   LIG    1      -31.843  75.116  29.792  0.00  0.00    -0.308 N 
ATOM     12  C   LIG    1      -31.629  73.690  29.457  0.00  0.00    +0.107 C 
ATOM     13  C   LIG    1      -32.979  73.183  28.961  0.00  0.00    +0.021 C 
ATOM     14  C   LIG    1      -33.630  74.420  28.380  0.00  0.00    +0.029 C 
BRANCH  10  16
ATOM     15  C   LIG    1      -33.896  77.999  29.302  0.00  0.00    +0.220 A 
ATOM     16  C   LIG    1      -33.280  76.892  28.690  0.00  0.00    +0.037 A 
ATOM     17  C   LIG    1      -32.666  77.116  27.442  0.00  0.00    +0.050 A 
ATOM     18  C   LIG    1      -32.669  78.385  26.886  0.00  0.00    +0.142 A 
ATOM     19  F   LIG    1      -32.052  78.619  25.722  0.00  0.00    -0.204 F 
ATOM     20  C   LIG    1      -33.299  79.405  27.565  0.00  0.00    +0.153 A 
ATOM     21  N   LIG    1      -33.915  79.237  28.754  0.00  0.00    -0.218 NA
BRANCH  15  23
ATOM     22  C   LIG    1      -34.984  79.076  31.092  0.00  0.00    +0.279 C 
ATOM     23  O   LIG    1      -34.532  77.840  30.516  0.00  0.00    -0.479 OA
ENDBRANCH  15  23
ENDBRANCH  10  16
ENDBRANCH   1  11
BRANCH   4  24
ATOM     24  C   LIG    1      -26.792  76.129  31.714  0.00  0.00    +0.249 C 
ATOM     25  N   LIG    1      -26.094  77.196  31.192  0.00  0.00    -0.309 N 
ATOM     26  H   LIG    1      -26.441  78.136  31.381  0.00  0.00    +0.149 HD
ATOM     27  O   LIG    1      -26.439  74.973  31.570  0.00  0.00    -0.270 OA
BRANCH  25  28
ATOM     28  C   LIG    1      -24.918  76.996  30.375  0.00  0.00    +0.132 C 
BRANCH  28  29
ATOM     29  C   LIG    1      -24.089  78.268  30.212  0.00  0.00    +0.174 C 
BRANCH  29  30
ATOM     30  O   LIG    1      -23.303  78.232  29.022  0.00  0.00    -0.393 OA
ATOM     31  H   LIG    1      -22.396  78.487  29.265  0.00  0.00    +0.209 HD
ENDBRANCH  29  30
ENDBRANCH  28  29
ENDBRANCH  25  28
ENDBRANCH   4  24
TORSDOF 7
ENDMDL
MODEL 2
REMARK VINA RESULT:      -5.8      6.634     10.854
REMARK  Name = pdb/CHEMBL3676026.pdb
REMARK                            x       y       z     vdW  Elec       q    Type
REMARK                         _______ _______ _______ _____ _____    ______ ____
ROOT
ATOM      1  C   LIG    1      -23.235  79.190  34.373  0.00  0.00    +0.126 A 
ATOM      2  N   LIG    1      -23.368  78.545  33.230  0.00  0.00    -0.212 NA
ATOM      3  C   LIG    1      -24.582  77.965  32.940  0.00  0.00    +0.170 A 
ATOM      4  C   LIG    1      -25.050  77.296  31.826  0.00  0.00    +0.100 A 
ATOM      5  C   LIG    1      -26.370  76.929  32.158  0.00  0.00    +0.150 A 
ATOM      6  N   LIG    1      -26.738  77.348  33.373  0.00  0.00    -0.173 NA
ATOM      7  N   LIG    1      -25.648  77.995  33.839  0.00  0.00    -0.221 N 
ATOM      8  C   LIG    1      -25.526  78.650  35.044  0.00  0.00    +0.118 A 
ATOM      9  C   LIG    1      -24.382  79.264  35.357  0.00  0.00    +0.063 A 
ENDROOT
BRANCH   1  11
ATOM     10  C   LIG    1      -20.878  79.065  35.287  0.00  0.00    +0.110 C 
ATOM     11  N   LIG    1      -22.014  79.810  34.674  0.00  0.00    -0.308 N 
ATOM     12  C   LIG    1      -21.988  81.215  35.140  0.00  0.00    +0.107 C 
ATOM     13  C   LIG    1      -20.906  81.266  36.212  0.00  0.00    +0.021 C 
ATOM     14  C   LIG    1      -19.948  80.168  35.801  0.00  0.00    +0.029 C 
BRANCH  10  16
ATOM     15  C   LIG    1      -20.427  76.747  34.284  0.00  0.00    +0.220 A 
ATOM     16  C   LIG    1      -20.148  78.124  34.348  0.00  0.00    +0.037 A 
ATOM     17  C   LIG    1      -19.188  78.620  33.446  0.00  0.00    +0.050 A 
ATOM     18  C   LIG    1      -18.584  77.766  32.536  0.00  0.00    +0.142 A 
ATOM     19  F   LIG    1      -17.703  78.234  31.645  0.00  0.00    -0.204 F 
ATOM     20  C   LIG    1      -18.927  76.431  32.552  0.00  0.00    +0.153 A 
ATOM     21  N   LIG    1      -19.828  75.906  33.408  0.00  0.00    -0.218 NA
BRANCH  15  23
ATOM     22  C   LIG    1      -22.307  75.346  34.513  0.00  0.00    +0.279 C 
ATOM     23  O   LIG    1      -21.344  76.196  35.157  0.00  0.00    -0.479 OA
ENDBRANCH  15  23
ENDBRANCH  10  16
ENDBRANCH   1  11
BRANCH   4  24
ATOM     24  C   LIG    1      -24.378  77.013  30.571  0.00  0.00    +0.249 C 
ATOM     25  N   LIG    1      -23.119  76.468  30.698  0.00  0.00    -0.309 N 
ATOM     26  H   LIG    1      -22.774  76.267  31.635  0.00  0.00    +0.149 HD
ATOM     27  O   LIG    1      -24.888  77.258  29.494  0.00  0.00    -0.270 OA
BRANCH  25  28
ATOM     28  C   LIG    1      -22.293  76.212  29.539  0.00  0.00    +0.132 C 
BRANCH  28  29
ATOM     29  C   LIG    1      -20.899  76.823  29.660  0.00  0.00    +0.174 C 
BRANCH  29  30
ATOM     30  O   LIG    1      -20.961  78.224  29.915  0.00  0.00    -0.393 OA
ATOM     31  H   LIG    1      -21.289  78.653  29.106  0.00  0.00    +0.209 HD
ENDBRANCH  29  30
ENDBRANCH  28  29
ENDBRANCH  25  28
ENDBRANCH   4  24
TORSDOF 7
ENDMDL
MODEL 3
REMARK VINA RESULT:      -5.7      7.335     11.062
REMARK  Name = pdb/CHEMBL3676026.pdb
REMARK                            x       y       z     vdW  Elec       q    Type
REMARK                         _______ _______ _______ _____ _____    ______ ____
ROOT
ATOM      1  C   LIG    1      -20.060  78.918  33.997  0.00  0.00    +0.126 A 
ATOM      2  N   LIG    1      -21.357  78.700  33.892  0.00  0.00    -0.212 NA
ATOM      3  C   LIG    1      -22.194  79.250  34.835  0.00  0.00    +0.170 A 
ATOM      4  C   LIG    1      -23.570  79.262  34.962  0.00  0.00    +0.100 A 
ATOM      5  C   LIG    1      -23.812  79.972  36.155  0.00  0.00    +0.150 A 
ATOM      6  N   LIG    1      -22.691  80.408  36.740  0.00  0.00    -0.173 NA
ATOM      7  N   LIG    1      -21.708  79.979  35.920  0.00  0.00    -0.221 N 
ATOM      8  C   LIG    1      -20.356  80.205  36.058  0.00  0.00    +0.118 A 
ATOM      9  C   LIG    1      -19.503  79.728  35.148  0.00  0.00    +0.063 A 
ENDROOT
BRANCH   1  11
ATOM     10  C   LIG    1      -19.094  76.925  32.773  0.00  0.00    +0.110 C 
ATOM     11  N   LIG    1      -19.193  78.389  33.031  0.00  0.00    -0.308 N 
ATOM     12  C   LIG    1      -17.877  79.020  32.787  0.00  0.00    +0.107 C 
ATOM     13  C   LIG    1      -16.910  77.865  32.552  0.00  0.00    +0.021 C 
ATOM     14  C   LIG    1      -17.793  76.777  31.978  0.00  0.00    +0.029 C 
BRANCH  10  16
ATOM     15  C   LIG    1      -21.232  75.512  32.645  0.00  0.00    +0.220 A 
ATOM     16  C   LIG    1      -20.268  76.325  32.022  0.00  0.00    +0.037 A 
ATOM     17  C   LIG    1      -20.469  76.621  30.660  0.00  0.00    +0.050 A 
ATOM     18  C   LIG    1      -21.589  76.135  30.004  0.00  0.00    +0.142 A 
ATOM     19  F   LIG    1      -21.813  76.445  28.722  0.00  0.00    -0.204 F 
ATOM     20  C   LIG    1      -22.477  75.346  30.702  0.00  0.00    +0.153 A 
ATOM     21  N   LIG    1      -22.319  75.021  32.003  0.00  0.00    -0.218 NA
BRANCH  15  23
ATOM     22  C   LIG    1      -22.266  75.380  34.758  0.00  0.00    +0.279 C 
ATOM     23  O   LIG    1      -21.080  75.169  33.973  0.00  0.00    -0.479 OA
ENDBRANCH  15  23
ENDBRANCH  10  16
ENDBRANCH   1  11
BRANCH   4  24
ATOM     24  C   LIG    1      -24.581  78.694  34.090  0.00  0.00    +0.249 C 
ATOM     25  N   LIG    1      -24.104  78.195  32.897  0.00  0.00    -0.309 N 
ATOM     26  H   LIG    1      -23.098  78.219  32.735  0.00  0.00    +0.149 HD
ATOM     27  O   LIG    1      -25.761  78.680  34.389  0.00  0.00    -0.270 OA
BRANCH  25  28
ATOM     28  C   LIG    1      -25.001  77.675  31.890  0.00  0.00    +0.132 C 
BRANCH  28  29
ATOM     29  C   LIG    1      -24.747  78.271  30.508  0.00  0.00    +0.174 C 
BRANCH  29  30
ATOM     30  O   LIG    1      -25.125  77.370  29.470  0.00  0.00    -0.393 OA
ATOM     31  H   LIG    1      -25.232  77.892  28.656  0.00  0.00    +0.209 HD
ENDBRANCH  29  30
ENDBRANCH  28  29
ENDBRANCH  25  28
ENDBRANCH   4  24
TORSDOF 7
ENDMDL
MODEL 4
REMARK VINA RESULT:      -5.6      7.194     11.607
REMARK  Name = pdb/CHEMBL3676026.pdb
REMARK                            x       y       z     vdW  Elec       q    Type
REMARK                         _______ _______ _______ _____ _____    ______ ____
ROOT
ATOM      1  C   LIG    1      -21.057  77.294  31.385  0.00  0.00    +0.126 A 
ATOM      2  N   LIG    1      -22.083  77.627  32.146  0.00  0.00    -0.212 NA
ATOM      3  C   LIG    1      -23.349  77.540  31.616  0.00  0.00    +0.170 A 
ATOM      4  C   LIG    1      -24.602  77.748  32.161  0.00  0.00    +0.100 A 
ATOM      5  C   LIG    1      -25.497  77.519  31.098  0.00  0.00    +0.150 A 
ATOM      6  N   LIG    1      -24.882  77.167  29.964  0.00  0.00    -0.173 NA
ATOM      7  N   LIG    1      -23.572  77.164  30.291  0.00  0.00    -0.221 N 
ATOM      8  C   LIG    1      -22.515  76.825  29.476  0.00  0.00    +0.118 A 
ATOM      9  C   LIG    1      -21.269  76.854  29.953  0.00  0.00    +0.063 A 
ENDROOT
BRANCH   1  11
ATOM     10  C   LIG    1      -19.246  78.557  32.620  0.00  0.00    +0.110 C 
ATOM     11  N   LIG    1      -19.762  77.349  31.916  0.00  0.00    -0.308 N 
ATOM     12  C   LIG    1      -18.643  76.672  31.222  0.00  0.00    +0.107 C 
ATOM     13  C   LIG    1      -17.449  77.609  31.365  0.00  0.00    +0.021 C 
ATOM     14  C   LIG    1      -17.730  78.344  32.659  0.00  0.00    +0.029 C 
BRANCH  10  16
ATOM     15  C   LIG    1      -19.828  77.764  34.990  0.00  0.00    +0.220 A 
ATOM     16  C   LIG    1      -19.806  78.776  34.012  0.00  0.00    +0.037 A 
ATOM     17  C   LIG    1      -20.274  80.046  34.401  0.00  0.00    +0.050 A 
ATOM     18  C   LIG    1      -20.707  80.256  35.701  0.00  0.00    +0.142 A 
ATOM     19  F   LIG    1      -21.113  81.469  36.094  0.00  0.00    -0.204 F 
ATOM     20  C   LIG    1      -20.690  79.200  36.586  0.00  0.00    +0.153 A 
ATOM     21  N   LIG    1      -20.266  77.962  36.256  0.00  0.00    -0.218 NA
BRANCH  15  23
ATOM     22  C   LIG    1      -20.390  75.478  34.905  0.00  0.00    +0.279 C 
ATOM     23  O   LIG    1      -19.401  76.493  34.664  0.00  0.00    -0.479 OA
ENDBRANCH  15  23
ENDBRANCH  10  16
ENDBRANCH   1  11
BRANCH   4  24
ATOM     24  C   LIG    1      -24.966  78.114  33.518  0.00  0.00    +0.249 C 
ATOM     25  N   LIG    1      -23.957  78.697  34.253  0.00  0.00    -0.309 N 
ATOM     26  H   LIG    1      -23.064  78.867  33.792  0.00  0.00    +0.149 HD
ATOM     27  O   LIG    1      -26.076  77.901  33.970  0.00  0.00    -0.270 OA
BRANCH  25  28
ATOM     28  C   LIG    1      -24.144  79.038  35.645  0.00  0.00    +0.132 C 
BRANCH  28  29
ATOM     29  C   LIG    1      -24.404  80.527  35.859  0.00  0.00    +0.174 C 
BRANCH  29  30
ATOM     30  O   LIG    1      -25.708  80.762  36.385  0.00  0.00    -0.393 OA
ATOM     31  H   LIG    1      -25.923  80.016  36.972  0.00  0.00    +0.209 HD
ENDBRANCH  29  30
ENDBRANCH  28  29
ENDBRANCH  25  28
ENDBRANCH   4  24
TORSDOF 7
ENDMDL
MODEL 5
REMARK VINA RESULT:      -5.5      6.472      9.176
REMARK  Name = pdb/CHEMBL3676026.pdb
REMARK                            x       y       z     vdW  Elec       q    Type
REMARK                         _______ _______ _______ _____ _____    ______ ____
ROOT
ATOM      1  C   LIG    1      -39.022  76.826  26.804  0.00  0.00    +0.126 A 
ATOM      2  N   LIG    1      -37.718  76.980  26.938  0.00  0.00    -0.212 NA
ATOM      3  C   LIG    1      -37.119  76.530  28.092  0.00  0.00    +0.170 A 
ATOM      4  C   LIG    1      -35.798  76.484  28.496  0.00  0.00    +0.100 A 
ATOM      5  C   LIG    1      -35.840  75.931  29.791  0.00  0.00    +0.150 A 
ATOM      6  N   LIG    1      -37.079  75.619  30.186  0.00  0.00    -0.173 NA
ATOM      7  N   LIG    1      -37.853  75.970  29.137  0.00  0.00    -0.221 N 
ATOM      8  C   LIG    1      -39.217  75.814  29.025  0.00  0.00    +0.118 A 
ATOM      9  C   LIG    1      -39.843  76.197  27.909  0.00  0.00    +0.063 A 
ENDROOT
BRANCH   1  11
ATOM     10  C   LIG    1      -39.341  76.641  24.301  0.00  0.00    +0.110 C 
ATOM     11  N   LIG    1      -39.647  77.253  25.625  0.00  0.00    -0.308 N 
ATOM     12  C   LIG    1      -39.988  78.681  25.438  0.00  0.00    +0.107 C 
ATOM     13  C   LIG    1      -39.698  78.979  23.972  0.00  0.00    +0.021 C 
ATOM     14  C   LIG    1      -39.908  77.643  23.291  0.00  0.00    +0.029 C 
BRANCH  10  16
ATOM     15  C   LIG    1      -39.238  74.082  24.452  0.00  0.00    +0.220 A 
ATOM     16  C   LIG    1      -39.920  75.256  24.085  0.00  0.00    +0.037 A 
ATOM     17  C   LIG    1      -41.215  75.099  23.556  0.00  0.00    +0.050 A 
ATOM     18  C   LIG    1      -41.767  73.834  23.438  0.00  0.00    +0.142 A 
ATOM     19  F   LIG    1      -43.013  73.676  22.976  0.00  0.00    -0.204 F 
ATOM     20  C   LIG    1      -41.018  72.744  23.826  0.00  0.00    +0.153 A 
ATOM     21  N   LIG    1      -39.767  72.842  24.324  0.00  0.00    -0.218 NA
BRANCH  15  23
ATOM     22  C   LIG    1      -37.755  73.378  26.142  0.00  0.00    +0.279 C 
ATOM     23  O   LIG    1      -37.956  74.167  24.959  0.00  0.00    -0.479 OA
ENDBRANCH  15  23
ENDBRANCH  10  16
ENDBRANCH   1  11
BRANCH   4  24
ATOM     24  C   LIG    1      -34.602  76.894  27.784  0.00  0.00    +0.249 C 
ATOM     25  N   LIG    1      -33.647  77.512  28.561  0.00  0.00    -0.309 N 
ATOM     26  H   LIG    1      -33.823  77.597  29.561  0.00  0.00    +0.149 HD
ATOM     27  O   LIG    1      -34.468  76.717  26.587  0.00  0.00    -0.270 OA
BRANCH  25  28
ATOM     28  C   LIG    1      -32.439  78.051  27.978  0.00  0.00    +0.132 C 
BRANCH  28  29
ATOM     29  C   LIG    1      -32.714  79.183  26.991  0.00  0.00    +0.174 C 
BRANCH  29  30
ATOM     30  O   LIG    1      -32.344  78.822  25.662  0.00  0.00    -0.393 OA
ATOM     31  H   LIG    1      -33.118  78.401  25.249  0.00  0.00    +0.209 HD
ENDBRANCH  29  30
ENDBRANCH  28  29
ENDBRANCH  25  28
ENDBRANCH   4  24
TORSDOF 7
ENDMDL
MODEL 6
REMARK VINA RESULT:      -5.5     17.992     20.766
REMARK  Name = pdb/CHEMBL3676026.pdb
REMARK                            x       y       z     vdW  Elec       q    Type
REMARK                         _______ _______ _______ _____ _____    ______ ____
ROOT
ATOM      1  C   LIG    1      -20.305  81.906  13.800  0.00  0.00    +0.126 A 
ATOM      2  N   LIG    1      -20.018  83.192  13.883  0.00  0.00    -0.212 NA
ATOM      3  C   LIG    1      -18.980  83.683  13.125  0.00  0.00    +0.170 A 
ATOM      4  C   LIG    1      -18.487  84.961  12.943  0.00  0.00    +0.100 A 
ATOM      5  C   LIG    1      -17.399  84.801  12.061  0.00  0.00    +0.150 A 
ATOM      6  N   LIG    1      -17.217  83.532  11.681  0.00  0.00    -0.173 NA
ATOM      7  N   LIG    1      -18.197  82.857  12.320  0.00  0.00    -0.221 N 
ATOM      8  C   LIG    1      -18.470  81.510  12.230  0.00  0.00    +0.118 A 
ATOM      9  C   LIG    1      -19.491  80.989  12.914  0.00  0.00    +0.063 A 
ENDROOT
BRANCH   1  11
ATOM     10  C   LIG    1      -22.623  82.173  14.779  0.00  0.00    +0.110 C 
ATOM     11  N   LIG    1      -21.376  81.392  14.543  0.00  0.00    -0.308 N 
ATOM     12  C   LIG    1      -21.120  80.513  15.707  0.00  0.00    +0.107 C 
ATOM     13  C   LIG    1      -22.151  80.917  16.755  0.00  0.00    +0.021 C 
ATOM     14  C   LIG    1      -23.312  81.431  15.929  0.00  0.00    +0.029 C 
BRANCH  10  16
ATOM     15  C   LIG    1      -23.561  83.433  12.750  0.00  0.00    +0.220 A 
ATOM     16  C   LIG    1      -23.540  82.295  13.577  0.00  0.00    +0.037 A 
ATOM     17  C   LIG    1      -24.375  81.224  13.206  0.00  0.00    +0.050 A 
ATOM     18  C   LIG    1      -25.149  81.314  12.060  0.00  0.00    +0.142 A 
ATOM     19  F   LIG    1      -25.913  80.286  11.672  0.00  0.00    -0.204 F 
ATOM     20  C   LIG    1      -25.099  82.472  11.314  0.00  0.00    +0.153 A 
ATOM     21  N   LIG    1      -24.327  83.531  11.638  0.00  0.00    -0.218 NA
BRANCH  15  23
ATOM     22  C   LIG    1      -22.921  85.621  12.154  0.00  0.00    +0.279 C 
ATOM     23  O   LIG    1      -22.779  84.524  13.072  0.00  0.00    -0.479 OA
ENDBRANCH  15  23
ENDBRANCH  10  16
ENDBRANCH   1  11
BRANCH   4  24
ATOM     24  C   LIG    1      -18.950  86.217  13.503  0.00  0.00    +0.249 C 
ATOM     25  N   LIG    1      -20.124  86.133  14.220  0.00  0.00    -0.309 N 
ATOM     26  H   LIG    1      -20.550  85.215  14.340  0.00  0.00    +0.149 HD
ATOM     27  O   LIG    1      -18.352  87.263  13.333  0.00  0.00    -0.270 OA
BRANCH  25  28
ATOM     28  C   LIG    1      -20.755  87.314  14.766  0.00  0.00    +0.132 C 
BRANCH  28  29
ATOM     29  C   LIG    1      -22.000  86.992  15.588  0.00  0.00    +0.174 C 
BRANCH  29  30
ATOM     30  O   LIG    1      -22.221  85.587  15.678  0.00  0.00    -0.393 OA
ATOM     31  H   LIG    1      -21.985  85.312  16.581  0.00  0.00    +0.209 HD
ENDBRANCH  29  30
ENDBRANCH  28  29
ENDBRANCH  25  28
ENDBRANCH   4  24
TORSDOF 7
ENDMDL
MODEL 7
REMARK VINA RESULT:      -5.5      7.166     10.854
REMARK  Name = pdb/CHEMBL3676026.pdb
REMARK                            x       y       z     vdW  Elec       q    Type
REMARK                         _______ _______ _______ _____ _____    ______ ____
ROOT
ATOM      1  C   LIG    1      -20.452  79.031  33.845  0.00  0.00    +0.126 A 
ATOM      2  N   LIG    1      -21.052  78.425  32.837  0.00  0.00    -0.212 NA
ATOM      3  C   LIG    1      -20.275  77.780  31.902  0.00  0.00    +0.170 A 
ATOM      4  C   LIG    1      -20.594  77.017  30.796  0.00  0.00    +0.100 A 
ATOM      5  C   LIG    1      -19.351  76.658  30.238  0.00  0.00    +0.150 A 
ATOM      6  N   LIG    1      -18.311  77.127  30.936  0.00  0.00    -0.173 NA
ATOM      7  N   LIG    1      -18.882  77.796  31.961  0.00  0.00    -0.221 N 
ATOM      8  C   LIG    1      -18.235  78.435  32.996  0.00  0.00    +0.118 A 
ATOM      9  C   LIG    1      -18.943  79.042  33.951  0.00  0.00    +0.063 A 
ENDROOT
BRANCH   1  11
ATOM     10  C   LIG    1      -22.693  79.877  34.658  0.00  0.00    +0.110 C 
ATOM     11  N   LIG    1      -21.227  79.669  34.822  0.00  0.00    -0.308 N 
ATOM     12  C   LIG    1      -20.659  80.786  35.611  0.00  0.00    +0.107 C 
ATOM     13  C   LIG    1      -21.794  81.791  35.768  0.00  0.00    +0.021 C 
ATOM     14  C   LIG    1      -23.038  80.930  35.716  0.00  0.00    +0.029 C 
BRANCH  10  16
ATOM     15  C   LIG    1      -23.257  77.643  35.786  0.00  0.00    +0.220 A 
ATOM     16  C   LIG    1      -23.541  78.631  34.826  0.00  0.00    +0.037 A 
ATOM     17  C   LIG    1      -24.703  78.449  34.052  0.00  0.00    +0.050 A 
ATOM     18  C   LIG    1      -25.516  77.348  34.270  0.00  0.00    +0.142 A 
ATOM     19  F   LIG    1      -26.645  77.187  33.570  0.00  0.00    -0.204 F 
ATOM     20  C   LIG    1      -25.151  76.435  35.236  0.00  0.00    +0.153 A 
ATOM     21  N   LIG    1      -24.040  76.557  35.991  0.00  0.00    -0.218 NA
BRANCH  15  23
ATOM     22  C   LIG    1      -22.400  77.943  37.960  0.00  0.00    +0.279 C 
ATOM     23  O   LIG    1      -22.121  77.754  36.563  0.00  0.00    -0.479 OA
ENDBRANCH  15  23
ENDBRANCH  10  16
ENDBRANCH   1  11
BRANCH   4  24
ATOM     24  C   LIG    1      -21.898  76.634  30.285  0.00  0.00    +0.249 C 
ATOM     25  N   LIG    1      -22.820  76.290  31.250  0.00  0.00    -0.309 N 
ATOM     26  H   LIG    1      -22.545  76.368  32.228  0.00  0.00    +0.149 HD
ATOM     27  O   LIG    1      -22.144  76.604  29.094  0.00  0.00    -0.270 OA
BRANCH  25  28
ATOM     28  C   LIG    1      -24.135  75.807  30.891  0.00  0.00    +0.132 C 
BRANCH  28  29
ATOM     29  C   LIG    1      -25.150  76.933  30.714  0.00  0.00    +0.174 C 
BRANCH  29  30
ATOM     30  O   LIG    1      -25.111  77.471  29.394  0.00  0.00    -0.393 OA
ATOM     31  H   LIG    1      -25.954  77.934  29.243  0.00  0.00    +0.209 HD
ENDBRANCH  29  30
ENDBRANCH  28  29
ENDBRANCH  25  28
ENDBRANCH   4  24
TORSDOF 7
ENDMDL
MODEL 8
REMARK VINA RESULT:      -5.5     17.712     20.408
REMARK  Name = pdb/CHEMBL3676026.pdb
REMARK                            x       y       z     vdW  Elec       q    Type
REMARK                         _______ _______ _______ _____ _____    ______ ____
ROOT
ATOM      1  C   LIG    1      -18.777  81.666  14.177  0.00  0.00    +0.126 A 
ATOM      2  N   LIG    1      -19.490  82.776  14.210  0.00  0.00    -0.212 NA
ATOM      3  C   LIG    1      -18.942  83.924  13.687  0.00  0.00    +0.170 A 
ATOM      4  C   LIG    1      -19.445  85.199  13.514  0.00  0.00    +0.100 A 
ATOM      5  C   LIG    1      -18.383  85.929  12.943  0.00  0.00    +0.150 A 
ATOM      6  N   LIG    1      -17.291  85.185  12.737  0.00  0.00    -0.173 NA
ATOM      7  N   LIG    1      -17.644  83.958  13.176  0.00  0.00    -0.221 N 
ATOM      8  C   LIG    1      -16.877  82.815  13.146  0.00  0.00    +0.118 A 
ATOM      9  C   LIG    1      -17.376  81.664  13.604  0.00  0.00    +0.063 A 
ENDROOT
BRANCH   1  11
ATOM     10  C   LIG    1      -20.509  80.479  15.588  0.00  0.00    +0.110 C 
ATOM     11  N   LIG    1      -19.328  80.480  14.680  0.00  0.00    -0.308 N 
ATOM     12  C   LIG    1      -18.451  79.335  15.015  0.00  0.00    +0.107 C 
ATOM     13  C   LIG    1      -19.036  78.734  16.288  0.00  0.00    +0.021 C 
ATOM     14  C   LIG    1      -20.510  79.072  16.194  0.00  0.00    +0.029 C 
BRANCH  10  16
ATOM     15  C   LIG    1      -22.780  81.668  15.477  0.00  0.00    +0.220 A 
ATOM     16  C   LIG    1      -21.834  80.789  14.919  0.00  0.00    +0.037 A 
ATOM     17  C   LIG    1      -22.140  80.244  13.657  0.00  0.00    +0.050 A 
ATOM     18  C   LIG    1      -23.317  80.597  13.016  0.00  0.00    +0.142 A 
ATOM     19  F   LIG    1      -23.598  80.119  11.798  0.00  0.00    -0.204 F 
ATOM     20  C   LIG    1      -24.180  81.467  13.646  0.00  0.00    +0.153 A 
ATOM     21  N   LIG    1      -23.939  82.003  14.861  0.00  0.00    -0.218 NA
BRANCH  15  23
ATOM     22  C   LIG    1      -22.676  83.650  16.745  0.00  0.00    +0.279 C 
ATOM     23  O   LIG    1      -22.548  82.220  16.720  0.00  0.00    -0.479 OA
ENDBRANCH  15  23
ENDBRANCH  10  16
ENDBRANCH   1  11
BRANCH   4  24
ATOM     24  C   LIG    1      -20.764  85.719  13.827  0.00  0.00    +0.249 C 
ATOM     25  N   LIG    1      -20.810  86.566  14.913  0.00  0.00    -0.309 N 
ATOM     26  H   LIG    1      -19.935  86.797  15.380  0.00  0.00    +0.149 HD
ATOM     27  O   LIG    1      -21.751  85.411  13.185  0.00  0.00    -0.270 OA
BRANCH  25  28
ATOM     28  C   LIG    1      -22.065  87.096  15.397  0.00  0.00    +0.132 C 
BRANCH  28  29
ATOM     29  C   LIG    1      -22.424  88.438  14.762  0.00  0.00    +0.174 C 
BRANCH  29  30
ATOM     30  O   LIG    1      -22.851  89.383  15.740  0.00  0.00    -0.393 OA
ATOM     31  H   LIG    1      -23.803  89.533  15.604  0.00  0.00    +0.209 HD
ENDBRANCH  29  30
ENDBRANCH  28  29
ENDBRANCH  25  28
ENDBRANCH   4  24
TORSDOF 7
ENDMDL
MODEL 9
REMARK VINA RESULT:      -5.4      7.869     10.473
REMARK  Name = pdb/CHEMBL3676026.pdb
REMARK                            x       y       z     vdW  Elec       q    Type
REMARK                         _______ _______ _______ _____ _____    ______ ____
ROOT
ATOM      1  C   LIG    1      -24.046  77.713  32.679  0.00  0.00    +0.126 A 
ATOM      2  N   LIG    1      -22.813  77.255  32.569  0.00  0.00    -0.212 NA
ATOM      3  C   LIG    1      -22.306  77.028  31.311  0.00  0.00    +0.170 A 
ATOM      4  C   LIG    1      -21.061  76.624  30.869  0.00  0.00    +0.100 A 
ATOM      5  C   LIG    1      -21.183  76.557  29.467  0.00  0.00    +0.150 A 
ATOM      6  N   LIG    1      -22.397  76.912  29.031  0.00  0.00    -0.173 NA
ATOM      7  N   LIG    1      -23.072  77.216  30.160  0.00  0.00    -0.221 N 
ATOM      8  C   LIG    1      -24.366  77.679  30.253  0.00  0.00    +0.118 A 
ATOM      9  C   LIG    1      -24.893  77.953  31.449  0.00  0.00    +0.063 A 
ENDROOT
BRANCH   1  11
ATOM     10  C   LIG    1      -23.721  77.962  35.176  0.00  0.00    +0.110 C 
ATOM     11  N   LIG    1      -24.570  77.977  33.951  0.00  0.00    -0.308 N 
ATOM     12  C   LIG    1      -25.939  77.534  34.299  0.00  0.00    +0.107 C 
ATOM     13  C   LIG    1      -25.859  77.062  35.746  0.00  0.00    +0.021 C 
ATOM     14  C   LIG    1      -24.731  77.891  36.326  0.00  0.00    +0.029 C 
BRANCH  10  16
ATOM     15  C   LIG    1      -21.395  79.036  35.312  0.00  0.00    +0.220 A 
ATOM     16  C   LIG    1      -22.797  79.154  35.330  0.00  0.00    +0.037 A 
ATOM     17  C   LIG    1      -23.323  80.455  35.437  0.00  0.00    +0.050 A 
ATOM     18  C   LIG    1      -22.470  81.546  35.495  0.00  0.00    +0.142 A 
ATOM     19  F   LIG    1      -22.959  82.790  35.553  0.00  0.00    -0.204 F 
ATOM     20  C   LIG    1      -21.110  81.326  35.470  0.00  0.00    +0.153 A 
ATOM     21  N   LIG    1      -20.557  80.097  35.385  0.00  0.00    -0.218 NA
BRANCH  15  23
ATOM     22  C   LIG    1      -20.491  77.220  36.510  0.00  0.00    +0.279 C 
ATOM     23  O   LIG    1      -20.817  77.785  35.230  0.00  0.00    -0.479 OA
ENDBRANCH  15  23
ENDBRANCH  10  16
ENDBRANCH   1  11
BRANCH   4  24
ATOM     24  C   LIG    1      -19.863  76.330  31.634  0.00  0.00    +0.249 C 
ATOM     25  N   LIG    1      -19.435  77.350  32.456  0.00  0.00    -0.309 N 
ATOM     26  H   LIG    1      -19.998  78.198  32.502  0.00  0.00    +0.149 HD
ATOM     27  O   LIG    1      -19.276  75.268  31.536  0.00  0.00    -0.270 OA
BRANCH  25  28
ATOM     28  C   LIG    1      -18.210  77.237  33.215  0.00  0.00    +0.132 C 
BRANCH  28  29
ATOM     29  C   LIG    1      -17.650  78.593  33.639  0.00  0.00    +0.174 C 
BRANCH  29  30
ATOM     30  O   LIG    1      -17.854  78.833  35.030  0.00  0.00    -0.393 OA
ATOM     31  H   LIG    1      -16.993  79.076  35.412  0.00  0.00    +0.209 HD
ENDBRANCH  29  30
ENDBRANCH  28  29
ENDBRANCH  25  28
ENDBRANCH   4  24
TORSDOF 7
ENDMDL
