MODEL 1
REMARK VINA RESULT:      -5.4      0.000      0.000
REMARK  Name = pdb/CHEMBL3109646.pdb
REMARK                            x       y       z     vdW  Elec       q    Type
REMARK                         _______ _______ _______ _____ _____    ______ ____
ROOT
ATOM      1  N   LIG    1      -19.555  81.010  14.510  0.00  0.00    -0.278 N 
ATOM      2  C   LIG    1      -19.277  79.618  14.554  0.00  0.00    +0.307 C 
ATOM      3  N   LIG    1      -19.561  79.064  15.807  0.00  0.00    -0.269 N 
ATOM      4  H   LIG    1      -19.332  79.691  16.550  0.00  0.00    +0.156 HD
ATOM      5  O   LIG    1      -18.750  79.010  13.647  0.00  0.00    -0.252 OA
ENDROOT
BRANCH   3   6
ATOM      6  C   LIG    1      -19.293  77.730  16.142  0.00  0.00    +0.035 A 
ATOM      7  C   LIG    1      -18.247  77.516  17.046  0.00  0.00    +0.024 A 
ATOM      8  C   LIG    1      -17.847  76.221  17.354  0.00  0.00    +0.017 A 
ATOM      9  C   LIG    1      -18.541  75.134  16.819  0.00  0.00    +0.016 A 
ATOM     10  C   LIG    1      -19.631  75.358  15.965  0.00  0.00    +0.017 A 
ATOM     11  C   LIG    1      -20.014  76.657  15.630  0.00  0.00    +0.024 A 
BRANCH   9  12
ATOM     12  S   LIG    1      -17.984  73.492  17.204  0.00  0.00    -0.016 S 
BRANCH  12  13
ATOM     13  C   LIG    1      -18.848  73.211  18.753  0.00  0.00    +0.448 C 
ATOM     14  F   LIG    1      -20.172  73.454  18.608  0.00  0.00    -0.160 F 
ATOM     15  F   LIG    1      -18.389  74.045  19.718  0.00  0.00    -0.160 F 
ATOM     16  F   LIG    1      -18.731  71.949  19.229  0.00  0.00    -0.160 F 
ENDBRANCH  12  13
ENDBRANCH   9  12
ENDBRANCH   3   6
BRANCH   1  18
ATOM     17  C   LIG    1      -19.826  81.840  12.092  0.00  0.00    +0.028 C 
ATOM     18  C   LIG    1      -18.985  81.797  13.372  0.00  0.00    +0.072 C 
ATOM     19  C   LIG    1      -18.644  83.246  13.755  0.00  0.00    +0.028 C 
ENDBRANCH   1  18
BRANCH   1  20
ATOM     20  C   LIG    1      -20.388  81.669  15.521  0.00  0.00    +0.146 C 
BRANCH  20  21
ATOM     21  C   LIG    1      -21.815  81.767  15.110  0.00  0.00    -0.004 A 
ATOM     22  C   LIG    1      -22.845  80.770  15.237  0.00  0.00    +0.023 A 
ATOM     23  C   LIG    1      -22.948  79.449  15.718  0.00  0.00    +0.013 A 
ATOM     24  C   LIG    1      -24.187  78.808  15.621  0.00  0.00    +0.020 A 
ATOM     25  C   LIG    1      -25.261  79.497  15.077  0.00  0.00    +0.113 A 
ATOM     26  N   LIG    1      -25.230  80.772  14.632  0.00  0.00    -0.237 NA
ATOM     27  C   LIG    1      -24.014  81.335  14.736  0.00  0.00    +0.138 A 
ATOM     28  N   LIG    1      -23.736  82.612  14.349  0.00  0.00    -0.346 N 
ATOM     29  H   LIG    1      -24.425  83.233  13.952  0.00  0.00    +0.167 HD
ATOM     30  C   LIG    1      -22.421  82.897  14.588  0.00  0.00    +0.090 A 
ENDBRANCH  20  21
ENDBRANCH   1  20
TORSDOF 6
ENDMDL
MODEL 2
REMARK VINA RESULT:      -5.3     17.337     19.322
REMARK  Name = pdb/CHEMBL3109646.pdb
REMARK                            x       y       z     vdW  Elec       q    Type
REMARK                         _______ _______ _______ _____ _____    ______ ____
ROOT
ATOM      1  N   LIG    1      -19.662  76.988  32.796  0.00  0.00    -0.278 N 
ATOM      2  C   LIG    1      -19.992  77.499  34.080  0.00  0.00    +0.307 C 
ATOM      3  N   LIG    1      -20.097  78.894  34.080  0.00  0.00    -0.269 N 
ATOM      4  H   LIG    1      -19.419  79.317  33.480  0.00  0.00    +0.156 HD
ATOM      5  O   LIG    1      -20.059  76.813  35.077  0.00  0.00    -0.252 OA
ENDROOT
BRANCH   3   6
ATOM      6  C   LIG    1      -20.325  79.653  35.235  0.00  0.00    +0.035 A 
ATOM      7  C   LIG    1      -21.584  80.254  35.345  0.00  0.00    +0.024 A 
ATOM      8  C   LIG    1      -21.857  81.107  36.408  0.00  0.00    +0.017 A 
ATOM      9  C   LIG    1      -20.900  81.304  37.405  0.00  0.00    +0.016 A 
ATOM     10  C   LIG    1      -19.664  80.646  37.321  0.00  0.00    +0.017 A 
ATOM     11  C   LIG    1      -19.376  79.814  36.239  0.00  0.00    +0.024 A 
BRANCH   9  12
ATOM     12  S   LIG    1      -21.267  82.427  38.731  0.00  0.00    -0.016 S 
BRANCH  12  13
ATOM     13  C   LIG    1      -20.178  83.792  38.312  0.00  0.00    +0.448 C 
ATOM     14  F   LIG    1      -20.243  84.061  36.986  0.00  0.00    -0.160 F 
ATOM     15  F   LIG    1      -18.889  83.485  38.598  0.00  0.00    -0.160 F 
ATOM     16  F   LIG    1      -20.465  84.946  38.960  0.00  0.00    -0.160 F 
ENDBRANCH  12  13
ENDBRANCH   9  12
ENDBRANCH   3   6
BRANCH   1  18
ATOM     17  C   LIG    1      -20.253  74.507  32.476  0.00  0.00    +0.028 C 
ATOM     18  C   LIG    1      -19.179  75.574  32.713  0.00  0.00    +0.072 C 
ATOM     19  C   LIG    1      -18.082  75.375  31.655  0.00  0.00    +0.028 C 
ENDBRANCH   1  18
BRANCH   1  20
ATOM     20  C   LIG    1      -19.805  77.794  31.579  0.00  0.00    +0.146 C 
BRANCH  20  21
ATOM     21  C   LIG    1      -20.998  77.410  30.777  0.00  0.00    -0.004 A 
ATOM     22  C   LIG    1      -22.385  77.514  31.146  0.00  0.00    +0.023 A 
ATOM     23  C   LIG    1      -23.125  77.943  32.267  0.00  0.00    +0.013 A 
ATOM     24  C   LIG    1      -24.518  77.840  32.215  0.00  0.00    +0.020 A 
ATOM     25  C   LIG    1      -25.114  77.342  31.065  0.00  0.00    +0.113 A 
ATOM     26  N   LIG    1      -24.461  76.949  29.951  0.00  0.00    -0.237 NA
ATOM     27  C   LIG    1      -23.125  77.056  30.060  0.00  0.00    +0.138 A 
ATOM     28  N   LIG    1      -22.255  76.716  29.067  0.00  0.00    -0.346 N 
ATOM     29  H   LIG    1      -22.549  76.356  28.173  0.00  0.00    +0.167 HD
ATOM     30  C   LIG    1      -20.971  76.944  29.474  0.00  0.00    +0.090 A 
ENDBRANCH  20  21
ENDBRANCH   1  20
TORSDOF 6
ENDMDL
MODEL 3
REMARK VINA RESULT:      -5.3     17.787     20.628
REMARK  Name = pdb/CHEMBL3109646.pdb
REMARK                            x       y       z     vdW  Elec       q    Type
REMARK                         _______ _______ _______ _____ _____    ______ ____
ROOT
ATOM      1  N   LIG    1      -30.890  96.059  21.044  0.00  0.00    -0.278 N 
ATOM      2  C   LIG    1      -31.846  95.395  20.230  0.00  0.00    +0.307 C 
ATOM      3  N   LIG    1      -31.516  94.052  20.018  0.00  0.00    -0.269 N 
ATOM      4  H   LIG    1      -30.529  93.925  19.919  0.00  0.00    +0.156 HD
ATOM      5  O   LIG    1      -32.775  95.958  19.691  0.00  0.00    -0.252 OA
ENDROOT
BRANCH   3   6
ATOM      6  C   LIG    1      -32.243  93.198  19.179  0.00  0.00    +0.035 A 
ATOM      7  C   LIG    1      -33.298  92.495  19.773  0.00  0.00    +0.024 A 
ATOM      8  C   LIG    1      -34.005  91.551  19.038  0.00  0.00    +0.017 A 
ATOM      9  C   LIG    1      -33.711  91.359  17.687  0.00  0.00    +0.016 A 
ATOM     10  C   LIG    1      -32.696  92.116  17.083  0.00  0.00    +0.017 A 
ATOM     11  C   LIG    1      -31.964  93.042  17.826  0.00  0.00    +0.024 A 
BRANCH   9  12
ATOM     12  S   LIG    1      -34.610  90.121  16.785  0.00  0.00    -0.016 S 
BRANCH  12  13
ATOM     13  C   LIG    1      -33.345  88.856  16.622  0.00  0.00    +0.448 C 
ATOM     14  F   LIG    1      -32.995  88.376  17.839  0.00  0.00    -0.160 F 
ATOM     15  F   LIG    1      -32.226  89.366  16.052  0.00  0.00    -0.160 F 
ATOM     16  F   LIG    1      -33.722  87.791  15.874  0.00  0.00    -0.160 F 
ENDBRANCH  12  13
ENDBRANCH   9  12
ENDBRANCH   3   6
BRANCH   1  18
ATOM     17  C   LIG    1      -31.823  98.194  22.130  0.00  0.00    +0.028 C 
ATOM     18  C   LIG    1      -30.919  97.554  21.070  0.00  0.00    +0.072 C 
ATOM     19  C   LIG    1      -29.521  98.180  21.211  0.00  0.00    +0.028 C 
ENDBRANCH   1  18
BRANCH   1  20
ATOM     20  C   LIG    1      -29.917  95.323  21.857  0.00  0.00    +0.146 C 
BRANCH  20  21
ATOM     21  C   LIG    1      -30.368  95.141  23.263  0.00  0.00    -0.004 A 
ATOM     22  C   LIG    1      -30.065  95.964  24.405  0.00  0.00    +0.023 A 
ATOM     23  C   LIG    1      -29.308  97.124  24.669  0.00  0.00    +0.013 A 
ATOM     24  C   LIG    1      -29.259  97.592  25.985  0.00  0.00    +0.020 A 
ATOM     25  C   LIG    1      -29.965  96.914  26.968  0.00  0.00    +0.113 A 
ATOM     26  N   LIG    1      -30.732  95.821  26.769  0.00  0.00    -0.237 NA
ATOM     27  C   LIG    1      -30.733  95.406  25.490  0.00  0.00    +0.138 A 
ATOM     28  N   LIG    1      -31.431  94.322  25.047  0.00  0.00    -0.346 N 
ATOM     29  H   LIG    1      -32.000  93.746  25.649  0.00  0.00    +0.167 HD
ATOM     30  C   LIG    1      -31.240  94.161  23.704  0.00  0.00    +0.090 A 
ENDBRANCH  20  21
ENDBRANCH   1  20
TORSDOF 6
ENDMDL
MODEL 4
REMARK VINA RESULT:      -5.2     17.212     18.936
REMARK  Name = pdb/CHEMBL3109646.pdb
REMARK                            x       y       z     vdW  Elec       q    Type
REMARK                         _______ _______ _______ _____ _____    ______ ____
ROOT
ATOM      1  N   LIG    1      -21.191  77.299  31.649  0.00  0.00    -0.278 N 
ATOM      2  C   LIG    1      -21.004  78.181  32.747  0.00  0.00    +0.307 C 
ATOM      3  N   LIG    1      -22.117  78.210  33.594  0.00  0.00    -0.269 N 
ATOM      4  H   LIG    1      -22.973  78.146  33.082  0.00  0.00    +0.156 HD
ATOM      5  O   LIG    1      -20.040  78.905  32.868  0.00  0.00    -0.252 OA
ENDROOT
BRANCH   3   6
ATOM      6  C   LIG    1      -22.227  79.063  34.700  0.00  0.00    +0.035 A 
ATOM      7  C   LIG    1      -23.069  80.171  34.547  0.00  0.00    +0.024 A 
ATOM      8  C   LIG    1      -23.156  81.122  35.557  0.00  0.00    +0.017 A 
ATOM      9  C   LIG    1      -22.460  80.933  36.752  0.00  0.00    +0.016 A 
ATOM     10  C   LIG    1      -21.670  79.787  36.921  0.00  0.00    +0.017 A 
ATOM     11  C   LIG    1      -21.557  78.846  35.898  0.00  0.00    +0.024 A 
BRANCH   9  12
ATOM     12  S   LIG    1      -22.564  82.185  38.008  0.00  0.00    -0.016 S 
BRANCH  12  13
ATOM     13  C   LIG    1      -20.954  82.958  37.831  0.00  0.00    +0.448 C 
ATOM     14  F   LIG    1      -20.942  84.172  38.432  0.00  0.00    -0.160 F 
ATOM     15  F   LIG    1      -20.655  83.153  36.523  0.00  0.00    -0.160 F 
ATOM     16  F   LIG    1      -19.936  82.244  38.369  0.00  0.00    -0.160 F 
ENDBRANCH  12  13
ENDBRANCH   9  12
ENDBRANCH   3   6
BRANCH   1  18
ATOM     17  C   LIG    1      -18.823  76.916  30.725  0.00  0.00    +0.028 C 
ATOM     18  C   LIG    1      -20.251  77.422  30.491  0.00  0.00    +0.072 C 
ATOM     19  C   LIG    1      -20.780  76.751  29.213  0.00  0.00    +0.028 C 
ENDBRANCH   1  18
BRANCH   1  20
ATOM     20  C   LIG    1      -22.247  76.282  31.640  0.00  0.00    +0.146 C 
BRANCH  20  21
ATOM     21  C   LIG    1      -23.575  76.840  31.269  0.00  0.00    -0.004 A 
ATOM     22  C   LIG    1      -24.838  76.639  31.929  0.00  0.00    +0.023 A 
ATOM     23  C   LIG    1      -25.316  75.920  33.043  0.00  0.00    +0.013 A 
ATOM     24  C   LIG    1      -26.683  75.981  33.329  0.00  0.00    +0.020 A 
ATOM     25  C   LIG    1      -27.505  76.754  32.522  0.00  0.00    +0.113 A 
ATOM     26  N   LIG    1      -27.100  77.489  31.464  0.00  0.00    -0.237 NA
ATOM     27  C   LIG    1      -25.781  77.384  31.227  0.00  0.00    +0.138 A 
ATOM     28  N   LIG    1      -25.141  78.031  30.212  0.00  0.00    -0.346 N 
ATOM     29  H   LIG    1      -25.611  78.638  29.558  0.00  0.00    +0.167 HD
ATOM     30  C   LIG    1      -23.808  77.732  30.236  0.00  0.00    +0.090 A 
ENDBRANCH  20  21
ENDBRANCH   1  20
TORSDOF 6
ENDMDL
MODEL 5
REMARK VINA RESULT:      -5.2     18.836     20.710
REMARK  Name = pdb/CHEMBL3109646.pdb
REMARK                            x       y       z     vdW  Elec       q    Type
REMARK                         _______ _______ _______ _____ _____    ______ ____
ROOT
ATOM      1  N   LIG    1      -34.982  77.659  27.847  0.00  0.00    -0.278 N 
ATOM      2  C   LIG    1      -36.258  77.133  27.512  0.00  0.00    +0.307 C 
ATOM      3  N   LIG    1      -36.227  76.387  26.330  0.00  0.00    -0.269 N 
ATOM      4  H   LIG    1      -35.605  76.786  25.656  0.00  0.00    +0.156 HD
ATOM      5  O   LIG    1      -37.273  77.399  28.120  0.00  0.00    -0.252 OA
ENDROOT
BRANCH   3   6
ATOM      6  C   LIG    1      -37.367  75.835  25.731  0.00  0.00    +0.035 A 
ATOM      7  C   LIG    1      -37.990  76.613  24.749  0.00  0.00    +0.024 A 
ATOM      8  C   LIG    1      -39.184  76.187  24.178  0.00  0.00    +0.017 A 
ATOM      9  C   LIG    1      -39.720  74.948  24.532  0.00  0.00    +0.016 A 
ATOM     10  C   LIG    1      -39.054  74.145  25.469  0.00  0.00    +0.017 A 
ATOM     11  C   LIG    1      -37.872  74.584  26.066  0.00  0.00    +0.024 A 
BRANCH   9  12
ATOM     12  S   LIG    1      -41.265  74.448  23.811  0.00  0.00    -0.016 S 
BRANCH  12  13
ATOM     13  C   LIG    1      -40.980  72.685  23.622  0.00  0.00    +0.448 C 
ATOM     14  F   LIG    1      -41.434  72.013  24.706  0.00  0.00    -0.160 F 
ATOM     15  F   LIG    1      -39.655  72.421  23.510  0.00  0.00    -0.160 F 
ATOM     16  F   LIG    1      -41.586  72.141  22.540  0.00  0.00    -0.160 F 
ENDBRANCH  12  13
ENDBRANCH   9  12
ENDBRANCH   3   6
BRANCH   1  18
ATOM     17  C   LIG    1      -34.685  78.301  30.318  0.00  0.00    +0.028 C 
ATOM     18  C   LIG    1      -34.925  78.747  28.872  0.00  0.00    +0.072 C 
ATOM     19  C   LIG    1      -33.887  79.832  28.541  0.00  0.00    +0.028 C 
ENDBRANCH   1  18
BRANCH   1  20
ATOM     20  C   LIG    1      -33.748  77.151  27.238  0.00  0.00    +0.146 C 
BRANCH  20  21
ATOM     21  C   LIG    1      -33.004  76.230  28.139  0.00  0.00    -0.004 A 
ATOM     22  C   LIG    1      -33.292  74.851  28.432  0.00  0.00    +0.023 A 
ATOM     23  C   LIG    1      -34.268  73.901  28.069  0.00  0.00    +0.013 A 
ATOM     24  C   LIG    1      -34.188  72.626  28.635  0.00  0.00    +0.020 A 
ATOM     25  C   LIG    1      -33.150  72.341  29.510  0.00  0.00    +0.113 A 
ATOM     26  N   LIG    1      -32.170  73.198  29.868  0.00  0.00    -0.237 NA
ATOM     27  C   LIG    1      -32.302  74.412  29.307  0.00  0.00    +0.138 A 
ATOM     28  N   LIG    1      -31.436  75.443  29.520  0.00  0.00    -0.346 N 
ATOM     29  H   LIG    1      -30.629  75.372  30.121  0.00  0.00    +0.167 HD
ATOM     30  C   LIG    1      -31.831  76.539  28.807  0.00  0.00    +0.090 A 
ENDBRANCH  20  21
ENDBRANCH   1  20
TORSDOF 6
ENDMDL
MODEL 6
REMARK VINA RESULT:      -5.1      3.974      6.412
REMARK  Name = pdb/CHEMBL3109646.pdb
REMARK                            x       y       z     vdW  Elec       q    Type
REMARK                         _______ _______ _______ _____ _____    ______ ____
ROOT
ATOM      1  N   LIG    1      -22.633  84.929  13.395  0.00  0.00    -0.278 N 
ATOM      2  C   LIG    1      -22.343  83.578  13.723  0.00  0.00    +0.307 C 
ATOM      3  N   LIG    1      -21.427  83.477  14.775  0.00  0.00    -0.269 N 
ATOM      4  H   LIG    1      -20.729  84.190  14.729  0.00  0.00    +0.156 HD
ATOM      5  O   LIG    1      -22.755  82.631  13.088  0.00  0.00    -0.252 OA
ENDROOT
BRANCH   3   6
ATOM      6  C   LIG    1      -20.905  82.259  15.233  0.00  0.00    +0.035 A 
ATOM      7  C   LIG    1      -19.638  81.908  14.753  0.00  0.00    +0.024 A 
ATOM      8  C   LIG    1      -19.092  80.671  15.075  0.00  0.00    +0.017 A 
ATOM      9  C   LIG    1      -19.774  79.813  15.939  0.00  0.00    +0.016 A 
ATOM     10  C   LIG    1      -21.014  80.202  16.468  0.00  0.00    +0.017 A 
ATOM     11  C   LIG    1      -21.579  81.429  16.121  0.00  0.00    +0.024 A 
BRANCH   9  12
ATOM     12  S   LIG    1      -19.065  78.226  16.303  0.00  0.00    -0.016 S 
BRANCH  12  13
ATOM     13  C   LIG    1      -19.981  77.189  15.158  0.00  0.00    +0.448 C 
ATOM     14  F   LIG    1      -19.504  75.922  15.179  0.00  0.00    -0.160 F 
ATOM     15  F   LIG    1      -19.854  77.646  13.888  0.00  0.00    -0.160 F 
ATOM     16  F   LIG    1      -21.307  77.114  15.422  0.00  0.00    -0.160 F 
ENDBRANCH  12  13
ENDBRANCH   9  12
ENDBRANCH   3   6
BRANCH   1  18
ATOM     17  C   LIG    1      -24.209  86.439  12.037  0.00  0.00    +0.028 C 
ATOM     18  C   LIG    1      -23.311  85.198  12.089  0.00  0.00    +0.072 C 
ATOM     19  C   LIG    1      -22.330  85.282  10.908  0.00  0.00    +0.028 C 
ENDBRANCH   1  18
BRANCH   1  20
ATOM     20  C   LIG    1      -22.309  86.036  14.302  0.00  0.00    +0.146 C 
BRANCH  20  21
ATOM     21  C   LIG    1      -21.241  86.922  13.763  0.00  0.00    -0.004 A 
ATOM     22  C   LIG    1      -19.904  86.562  13.371  0.00  0.00    +0.023 A 
ATOM     23  C   LIG    1      -19.117  85.392  13.341  0.00  0.00    +0.013 A 
ATOM     24  C   LIG    1      -17.798  85.498  12.893  0.00  0.00    +0.020 A 
ATOM     25  C   LIG    1      -17.323  86.735  12.482  0.00  0.00    +0.113 A 
ATOM     26  N   LIG    1      -18.038  87.880  12.458  0.00  0.00    -0.237 NA
ATOM     27  C   LIG    1      -19.294  87.724  12.910  0.00  0.00    +0.138 A 
ATOM     28  N   LIG    1      -20.203  88.738  12.982  0.00  0.00    -0.346 N 
ATOM     29  H   LIG    1      -20.000  89.685  12.703  0.00  0.00    +0.167 HD
ATOM     30  C   LIG    1      -21.388  88.267  13.473  0.00  0.00    +0.090 A 
ENDBRANCH  20  21
ENDBRANCH   1  20
TORSDOF 6
ENDMDL
MODEL 7
REMARK VINA RESULT:      -5.1     17.387     19.491
REMARK  Name = pdb/CHEMBL3109646.pdb
REMARK                            x       y       z     vdW  Elec       q    Type
REMARK                         _______ _______ _______ _____ _____    ______ ____
ROOT
ATOM      1  N   LIG    1      -23.980  77.448  32.946  0.00  0.00    -0.278 N 
ATOM      2  C   LIG    1      -23.609  78.055  34.175  0.00  0.00    +0.307 C 
ATOM      3  N   LIG    1      -22.843  79.209  33.982  0.00  0.00    -0.269 N 
ATOM      4  H   LIG    1      -22.218  79.114  33.208  0.00  0.00    +0.156 HD
ATOM      5  O   LIG    1      -23.834  77.563  35.260  0.00  0.00    -0.252 OA
ENDROOT
BRANCH   3   6
ATOM      6  C   LIG    1      -22.274  79.946  35.030  0.00  0.00    +0.035 A 
ATOM      7  C   LIG    1      -20.884  79.861  35.164  0.00  0.00    +0.024 A 
ATOM      8  C   LIG    1      -20.250  80.477  36.237  0.00  0.00    +0.017 A 
ATOM      9  C   LIG    1      -20.994  81.241  37.138  0.00  0.00    +0.016 A 
ATOM     10  C   LIG    1      -22.378  81.374  36.958  0.00  0.00    +0.017 A 
ATOM     11  C   LIG    1      -23.021  80.732  35.899  0.00  0.00    +0.024 A 
BRANCH   9  12
ATOM     12  S   LIG    1      -20.160  81.986  38.518  0.00  0.00    -0.016 S 
BRANCH  12  13
ATOM     13  C   LIG    1      -20.327  83.724  38.099  0.00  0.00    +0.448 C 
ATOM     14  F   LIG    1      -20.333  83.889  36.755  0.00  0.00    -0.160 F 
ATOM     15  F   LIG    1      -19.284  84.439  38.588  0.00  0.00    -0.160 F 
ATOM     16  F   LIG    1      -21.458  84.299  38.571  0.00  0.00    -0.160 F 
ENDBRANCH  12  13
ENDBRANCH   9  12
ENDBRANCH   3   6
BRANCH   1  18
ATOM     17  C   LIG    1      -25.542  75.672  31.937  0.00  0.00    +0.028 C 
ATOM     18  C   LIG    1      -24.492  76.043  32.990  0.00  0.00    +0.072 C 
ATOM     19  C   LIG    1      -23.371  74.992  32.921  0.00  0.00    +0.028 C 
ENDBRANCH   1  18
BRANCH   1  20
ATOM     20  C   LIG    1      -23.895  78.164  31.669  0.00  0.00    +0.146 C 
BRANCH  20  21
ATOM     21  C   LIG    1      -22.818  77.636  30.788  0.00  0.00    -0.004 A 
ATOM     22  C   LIG    1      -21.406  77.566  31.058  0.00  0.00    +0.023 A 
ATOM     23  C   LIG    1      -20.537  77.926  32.108  0.00  0.00    +0.013 A 
ATOM     24  C   LIG    1      -19.169  77.697  31.938  0.00  0.00    +0.020 A 
ATOM     25  C   LIG    1      -18.725  77.114  30.761  0.00  0.00    +0.113 A 
ATOM     26  N   LIG    1      -19.511  76.719  29.737  0.00  0.00    -0.237 NA
ATOM     27  C   LIG    1      -20.814  76.973  29.947  0.00  0.00    +0.138 A 
ATOM     28  N   LIG    1      -21.798  76.666  29.054  0.00  0.00    -0.346 N 
ATOM     29  H   LIG    1      -21.621  76.226  28.165  0.00  0.00    +0.167 HD
ATOM     30  C   LIG    1      -23.014  77.038  29.554  0.00  0.00    +0.090 A 
ENDBRANCH  20  21
ENDBRANCH   1  20
TORSDOF 6
ENDMDL
MODEL 8
REMARK VINA RESULT:      -5.1      4.699      6.850
REMARK  Name = pdb/CHEMBL3109646.pdb
REMARK                            x       y       z     vdW  Elec       q    Type
REMARK                         _______ _______ _______ _____ _____    ______ ____
ROOT
ATOM      1  N   LIG    1      -19.944  85.492  13.728  0.00  0.00    -0.278 N 
ATOM      2  C   LIG    1      -20.610  84.237  13.720  0.00  0.00    +0.307 C 
ATOM      3  N   LIG    1      -21.588  84.155  14.717  0.00  0.00    -0.269 N 
ATOM      4  H   LIG    1      -21.303  84.618  15.555  0.00  0.00    +0.156 HD
ATOM      5  O   LIG    1      -20.287  83.311  13.008  0.00  0.00    -0.252 OA
ENDROOT
BRANCH   3   6
ATOM      6  C   LIG    1      -22.328  82.994  14.982  0.00  0.00    +0.035 A 
ATOM      7  C   LIG    1      -21.993  82.299  16.150  0.00  0.00    +0.024 A 
ATOM      8  C   LIG    1      -22.606  81.084  16.435  0.00  0.00    +0.017 A 
ATOM      9  C   LIG    1      -23.608  80.597  15.595  0.00  0.00    +0.016 A 
ATOM     10  C   LIG    1      -23.983  81.333  14.462  0.00  0.00    +0.017 A 
ATOM     11  C   LIG    1      -23.348  82.538  14.156  0.00  0.00    +0.024 A 
BRANCH   9  12
ATOM     12  S   LIG    1      -24.347  79.025  15.969  0.00  0.00    -0.016 S 
BRANCH  12  13
ATOM     13  C   LIG    1      -23.270  77.931  15.037  0.00  0.00    +0.448 C 
ATOM     14  F   LIG    1      -23.251  76.697  15.595  0.00  0.00    -0.160 F 
ATOM     15  F   LIG    1      -21.996  78.393  15.039  0.00  0.00    -0.160 F 
ATOM     16  F   LIG    1      -23.633  77.770  13.743  0.00  0.00    -0.160 F 
ENDBRANCH  12  13
ENDBRANCH   9  12
ENDBRANCH   3   6
BRANCH   1  18
ATOM     17  C   LIG    1      -17.594  84.547  13.285  0.00  0.00    +0.028 C 
ATOM     18  C   LIG    1      -18.660  85.602  12.967  0.00  0.00    +0.072 C 
ATOM     19  C   LIG    1      -18.864  85.615  11.444  0.00  0.00    +0.028 C 
ENDBRANCH   1  18
BRANCH   1  20
ATOM     20  C   LIG    1      -20.490  86.657  14.431  0.00  0.00    +0.146 C 
BRANCH  20  21
ATOM     21  C   LIG    1      -21.100  87.649  13.504  0.00  0.00    -0.004 A 
ATOM     22  C   LIG    1      -22.310  87.519  12.737  0.00  0.00    +0.023 A 
ATOM     23  C   LIG    1      -23.302  86.538  12.534  0.00  0.00    +0.013 A 
ATOM     24  C   LIG    1      -24.338  86.824  11.641  0.00  0.00    +0.020 A 
ATOM     25  C   LIG    1      -24.359  88.059  11.008  0.00  0.00    +0.113 A 
ATOM     26  N   LIG    1      -23.457  89.047  11.187  0.00  0.00    -0.237 NA
ATOM     27  C   LIG    1      -22.477  88.715  12.045  0.00  0.00    +0.138 A 
ATOM     28  N   LIG    1      -21.452  89.547  12.383  0.00  0.00    -0.346 N 
ATOM     29  H   LIG    1      -21.351  90.479  12.012  0.00  0.00    +0.167 HD
ATOM     30  C   LIG    1      -20.625  88.930  13.279  0.00  0.00    +0.090 A 
ENDBRANCH  20  21
ENDBRANCH   1  20
TORSDOF 6
ENDMDL
MODEL 9
REMARK VINA RESULT:      -5.0     18.649     20.739
REMARK  Name = pdb/CHEMBL3109646.pdb
REMARK                            x       y       z     vdW  Elec       q    Type
REMARK                         _______ _______ _______ _____ _____    ______ ____
ROOT
ATOM      1  N   LIG    1      -33.187  94.005  20.526  0.00  0.00    -0.278 N 
ATOM      2  C   LIG    1      -32.801  94.497  19.251  0.00  0.00    +0.307 C 
ATOM      3  N   LIG    1      -31.456  94.236  18.971  0.00  0.00    -0.269 N 
ATOM      4  H   LIG    1      -30.885  94.321  19.787  0.00  0.00    +0.156 HD
ATOM      5  O   LIG    1      -33.525  95.165  18.544  0.00  0.00    -0.252 OA
ENDROOT
BRANCH   3   6
ATOM      6  C   LIG    1      -30.801  94.694  17.820  0.00  0.00    +0.035 A 
ATOM      7  C   LIG    1      -30.559  93.741  16.824  0.00  0.00    +0.024 A 
ATOM      8  C   LIG    1      -29.825  94.087  15.695  0.00  0.00    +0.017 A 
ATOM      9  C   LIG    1      -29.394  95.404  15.522  0.00  0.00    +0.016 A 
ATOM     10  C   LIG    1      -29.699  96.367  16.495  0.00  0.00    +0.017 A 
ATOM     11  C   LIG    1      -30.409  96.016  17.643  0.00  0.00    +0.024 A 
BRANCH   9  12
ATOM     12  S   LIG    1      -28.429  95.805  14.086  0.00  0.00    -0.016 S 
BRANCH  12  13
ATOM     13  C   LIG    1      -26.792  95.330  14.652  0.00  0.00    +0.448 C 
ATOM     14  F   LIG    1      -25.838  95.949  13.917  0.00  0.00    -0.160 F 
ATOM     15  F   LIG    1      -26.604  93.995  14.514  0.00  0.00    -0.160 F 
ATOM     16  F   LIG    1      -26.547  95.634  15.949  0.00  0.00    -0.160 F 
ENDBRANCH  12  13
ENDBRANCH   9  12
ENDBRANCH   3   6
BRANCH   1  18
ATOM     17  C   LIG    1      -35.291  93.489  21.912  0.00  0.00    +0.028 C 
ATOM     18  C   LIG    1      -34.473  94.504  21.105  0.00  0.00    +0.072 C 
ATOM     19  C   LIG    1      -34.294  95.757  21.977  0.00  0.00    +0.028 C 
ENDBRANCH   1  18
BRANCH   1  20
ATOM     20  C   LIG    1      -32.380  93.022  21.256  0.00  0.00    +0.146 C 
BRANCH  20  21
ATOM     21  C   LIG    1      -31.735  93.599  22.467  0.00  0.00    -0.004 A 
ATOM     22  C   LIG    1      -30.714  94.611  22.531  0.00  0.00    +0.023 A 
ATOM     23  C   LIG    1      -29.967  95.381  21.617  0.00  0.00    +0.013 A 
ATOM     24  C   LIG    1      -29.013  96.267  22.128  0.00  0.00    +0.020 A 
ATOM     25  C   LIG    1      -28.854  96.365  23.502  0.00  0.00    +0.113 A 
ATOM     26  N   LIG    1      -29.561  95.678  24.425  0.00  0.00    -0.237 NA
ATOM     27  C   LIG    1      -30.454  94.834  23.880  0.00  0.00    +0.138 A 
ATOM     28  N   LIG    1      -31.281  94.033  24.610  0.00  0.00    -0.346 N 
ATOM     29  H   LIG    1      -31.284  94.012  25.618  0.00  0.00    +0.167 HD
ATOM     30  C   LIG    1      -32.075  93.298  23.775  0.00  0.00    +0.090 A 
ENDBRANCH  20  21
ENDBRANCH   1  20
TORSDOF 6
ENDMDL
