MODEL 1
REMARK VINA RESULT:      -7.0      0.000      0.000
REMARK  Name = pdb/CHEMBL3912891.pdb
REMARK                            x       y       z     vdW  Elec       q    Type
REMARK                         _______ _______ _______ _____ _____    ______ ____
ROOT
ATOM      1  C   LIG    1      -35.182  67.455  22.727  0.00  0.00    +0.131 C 
ATOM      2  N   LIG    1      -34.664  68.010  23.838  0.00  0.00    -0.141 NA
ATOM      3  N   LIG    1      -35.638  68.819  24.291  0.00  0.00    -0.201 N 
ATOM      4  C   LIG    1      -36.593  69.071  23.317  0.00  0.00    +0.185 C 
ATOM      5  C   LIG    1      -36.403  68.098  22.365  0.00  0.00    +0.056 C 
ENDROOT
BRANCH   3   6
ATOM      6  C   LIG    1      -35.657  69.254  25.635  0.00  0.00    +0.052 A 
ATOM      7  C   LIG    1      -35.114  70.504  25.970  0.00  0.00    +0.025 A 
ATOM      8  C   LIG    1      -35.224  70.972  27.278  0.00  0.00    +0.002 A 
ATOM      9  C   LIG    1      -35.836  70.183  28.252  0.00  0.00    +0.000 A 
ATOM     10  C   LIG    1      -36.351  68.928  27.921  0.00  0.00    +0.002 A 
ATOM     11  C   LIG    1      -36.285  68.470  26.607  0.00  0.00    +0.025 A 
ENDBRANCH   3   6
BRANCH   4  12
ATOM     12  N   LIG    1      -37.492  70.140  23.330  0.00  0.00    -0.282 N 
ATOM     13  H   LIG    1      -37.203  70.960  22.807  0.00  0.00    +0.152 HD
ATOM     14  C   LIG    1      -38.766  70.114  23.983  0.00  0.00    +0.247 C 
ATOM     15  O   LIG    1      -39.114  69.117  24.607  0.00  0.00    -0.270 OA
BRANCH  14  16
ATOM     16  C   LIG    1      -39.571  71.359  23.906  0.00  0.00    +0.056 A 
ATOM     17  C   LIG    1      -40.788  71.409  23.226  0.00  0.00    +0.054 A 
ATOM     18 CL   LIG    1      -41.481  70.065  22.397  0.00  0.00    -0.083 Cl
ATOM     19  C   LIG    1      -41.475  72.619  23.139  0.00  0.00    +0.041 A 
ATOM     20  C   LIG    1      -40.961  73.796  23.710  0.00  0.00    +0.052 A 
ATOM     21 CL   LIG    1      -41.816  75.236  23.274  0.00  0.00    -0.083 Cl
ATOM     22  C   LIG    1      -39.778  73.776  24.476  0.00  0.00    +0.022 A 
ATOM     23  C   LIG    1      -39.105  72.526  24.551  0.00  0.00    +0.026 A 
BRANCH  22  24
ATOM     24  C   LIG    1      -39.162  74.947  25.164  0.00  0.00    +0.107 A 
ATOM     25  C   LIG    1      -39.789  75.739  26.130  0.00  0.00    +0.149 A 
ATOM     26  F   LIG    1      -40.998  75.443  26.619  0.00  0.00    -0.203 F 
ATOM     27  C   LIG    1      -39.128  76.839  26.670  0.00  0.00    +0.042 A 
ATOM     28  C   LIG    1      -37.817  77.093  26.301  0.00  0.00    +0.023 A 
ATOM     29  C   LIG    1      -37.223  76.232  25.396  0.00  0.00    +0.111 A 
ATOM     30  N   LIG    1      -37.859  75.182  24.815  0.00  0.00    -0.252 NA
ENDBRANCH  22  24
ENDBRANCH  14  16
ENDBRANCH   4  12
BRANCH   1  32
ATOM     31  N   LIG    1      -33.913  66.617  20.898  0.00  0.00    -0.246 NA
ATOM     32  C   LIG    1      -34.490  66.382  22.013  0.00  0.00    +0.233 C 
BRANCH  31  37
ATOM     33  C   LIG    1      -31.931  66.497  16.555  0.00  0.00    +0.041 C 
ATOM     34  C   LIG    1      -32.717  67.299  17.601  0.00  0.00    +0.063 C 
ATOM     35  C   LIG    1      -31.889  67.524  18.878  0.00  0.00    +0.036 C 
ATOM     36  C   LIG    1      -31.768  66.274  19.757  0.00  0.00    +0.029 C 
ATOM     37  C   LIG    1      -33.133  65.670  20.114  0.00  0.00    +0.109 C 
ATOM     38  C   LIG    1      -33.891  65.376  18.806  0.00  0.00    +0.029 C 
ATOM     39  C   LIG    1      -34.058  66.623  17.932  0.00  0.00    +0.036 C 
BRANCH  34  40
ATOM     40  O   LIG    1      -32.975  68.586  17.027  0.00  0.00    -0.389 OA
ATOM     41  H   LIG    1      -32.256  68.788  16.405  0.00  0.00    +0.210 HD
ENDBRANCH  34  40
ENDBRANCH  31  37
BRANCH  32  42
ATOM     42  O   LIG    1      -34.535  65.188  22.638  0.00  0.00    -0.491 OA
ATOM     43  H   LIG    1      -35.329  64.696  22.393  0.00  0.00    +0.294 HD
ENDBRANCH  32  42
ENDBRANCH   1  32
TORSDOF 8
ENDMDL
MODEL 2
REMARK VINA RESULT:      -7.0      4.665      6.579
REMARK  Name = pdb/CHEMBL3912891.pdb
REMARK                            x       y       z     vdW  Elec       q    Type
REMARK                         _______ _______ _______ _____ _____    ______ ____
ROOT
ATOM      1  C   LIG    1      -37.119  69.900  24.794  0.00  0.00    +0.131 C 
ATOM      2  N   LIG    1      -36.417  68.940  25.424  0.00  0.00    -0.141 NA
ATOM      3  N   LIG    1      -35.732  69.599  26.374  0.00  0.00    -0.201 N 
ATOM      4  C   LIG    1      -35.693  70.963  26.130  0.00  0.00    +0.185 C 
ATOM      5  C   LIG    1      -36.691  71.194  25.214  0.00  0.00    +0.056 C 
ENDROOT
BRANCH   3   6
ATOM      6  C   LIG    1      -35.213  68.920  27.499  0.00  0.00    +0.052 A 
ATOM      7  C   LIG    1      -33.925  68.362  27.443  0.00  0.00    +0.025 A 
ATOM      8  C   LIG    1      -33.378  67.782  28.585  0.00  0.00    +0.002 A 
ATOM      9  C   LIG    1      -34.123  67.722  29.763  0.00  0.00    +0.000 A 
ATOM     10  C   LIG    1      -35.413  68.253  29.808  0.00  0.00    +0.002 A 
ATOM     11  C   LIG    1      -35.953  68.876  28.684  0.00  0.00    +0.025 A 
ENDBRANCH   3   6
BRANCH   4  12
ATOM     12  N   LIG    1      -34.770  71.853  26.685  0.00  0.00    -0.282 N 
ATOM     13  H   LIG    1      -33.914  71.981  26.156  0.00  0.00    +0.152 HD
ATOM     14  C   LIG    1      -34.990  72.594  27.891  0.00  0.00    +0.247 C 
ATOM     15  O   LIG    1      -36.031  72.442  28.521  0.00  0.00    -0.270 OA
BRANCH  14  16
ATOM     16  C   LIG    1      -33.879  73.473  28.336  0.00  0.00    +0.056 A 
ATOM     17  C   LIG    1      -32.790  72.977  29.052  0.00  0.00    +0.054 A 
ATOM     18 CL   LIG    1      -32.614  71.324  29.512  0.00  0.00    -0.083 Cl
ATOM     19  C   LIG    1      -31.802  73.857  29.493  0.00  0.00    +0.041 A 
ATOM     20  C   LIG    1      -31.886  75.237  29.243  0.00  0.00    +0.052 A 
ATOM     21 CL   LIG    1      -30.715  76.190  30.088  0.00  0.00    -0.083 Cl
ATOM     22  C   LIG    1      -32.924  75.771  28.453  0.00  0.00    +0.022 A 
ATOM     23  C   LIG    1      -33.911  74.848  28.014  0.00  0.00    +0.026 A 
BRANCH  22  24
ATOM     24  C   LIG    1      -33.092  77.206  28.084  0.00  0.00    +0.107 A 
ATOM     25  C   LIG    1      -32.434  77.855  27.037  0.00  0.00    +0.149 A 
ATOM     26  F   LIG    1      -31.650  77.199  26.173  0.00  0.00    -0.203 F 
ATOM     27  C   LIG    1      -32.637  79.214  26.816  0.00  0.00    +0.042 A 
ATOM     28  C   LIG    1      -33.556  79.899  27.594  0.00  0.00    +0.023 A 
ATOM     29  C   LIG    1      -34.232  79.189  28.571  0.00  0.00    +0.111 A 
ATOM     30  N   LIG    1      -34.018  77.875  28.840  0.00  0.00    -0.252 NA
ENDBRANCH  22  24
ENDBRANCH  14  16
ENDBRANCH   4  12
BRANCH   1  32
ATOM     31  N   LIG    1      -38.006  68.521  23.070  0.00  0.00    -0.246 NA
ATOM     32  C   LIG    1      -38.124  69.575  23.782  0.00  0.00    +0.233 C 
BRANCH  31  37
ATOM     33  C   LIG    1      -37.806  66.619  18.694  0.00  0.00    +0.041 C 
ATOM     34  C   LIG    1      -37.042  67.151  19.914  0.00  0.00    +0.063 C 
ATOM     35  C   LIG    1      -37.321  66.305  21.168  0.00  0.00    +0.036 C 
ATOM     36  C   LIG    1      -38.704  66.554  21.779  0.00  0.00    +0.029 C 
ATOM     37  C   LIG    1      -38.957  68.039  22.079  0.00  0.00    +0.109 C 
ATOM     38  C   LIG    1      -38.756  68.838  20.777  0.00  0.00    +0.029 C 
ATOM     39  C   LIG    1      -37.363  68.633  20.172  0.00  0.00    +0.036 C 
BRANCH  34  40
ATOM     40  O   LIG    1      -35.646  67.025  19.616  0.00  0.00    -0.389 OA
ATOM     41  H   LIG    1      -35.546  67.004  18.648  0.00  0.00    +0.210 HD
ENDBRANCH  34  40
ENDBRANCH  31  37
BRANCH  32  42
ATOM     42  O   LIG    1      -39.128  70.471  23.698  0.00  0.00    -0.491 OA
ATOM     43  H   LIG    1      -39.131  71.065  24.458  0.00  0.00    +0.294 HD
ENDBRANCH  32  42
ENDBRANCH   1  32
TORSDOF 8
ENDMDL
MODEL 3
REMARK VINA RESULT:      -6.8      5.254     11.576
REMARK  Name = pdb/CHEMBL3912891.pdb
REMARK                            x       y       z     vdW  Elec       q    Type
REMARK                         _______ _______ _______ _____ _____    ______ ____
ROOT
ATOM      1  C   LIG    1      -37.449  79.625  27.784  0.00  0.00    +0.131 C 
ATOM      2  N   LIG    1      -36.642  78.806  28.482  0.00  0.00    -0.141 NA
ATOM      3  N   LIG    1      -36.686  77.642  27.810  0.00  0.00    -0.201 N 
ATOM      4  C   LIG    1      -37.764  77.590  26.939  0.00  0.00    +0.185 C 
ATOM      5  C   LIG    1      -38.176  78.894  26.797  0.00  0.00    +0.056 C 
ENDROOT
BRANCH   3   6
ATOM      6  C   LIG    1      -35.672  76.671  27.969  0.00  0.00    +0.052 A 
ATOM      7  C   LIG    1      -35.920  75.525  28.741  0.00  0.00    +0.025 A 
ATOM      8  C   LIG    1      -34.954  74.523  28.814  0.00  0.00    +0.002 A 
ATOM      9  C   LIG    1      -33.735  74.681  28.154  0.00  0.00    +0.000 A 
ATOM     10  C   LIG    1      -33.481  75.834  27.409  0.00  0.00    +0.002 A 
ATOM     11  C   LIG    1      -34.458  76.822  27.294  0.00  0.00    +0.025 A 
ENDBRANCH   3   6
BRANCH   4  12
ATOM     12  N   LIG    1      -38.306  76.422  26.400  0.00  0.00    -0.282 N 
ATOM     13  H   LIG    1      -39.004  75.959  26.973  0.00  0.00    +0.152 HD
ATOM     14  C   LIG    1      -37.968  75.896  25.111  0.00  0.00    +0.247 C 
ATOM     15  O   LIG    1      -37.130  76.464  24.419  0.00  0.00    -0.270 OA
BRANCH  14  16
ATOM     16  C   LIG    1      -38.632  74.626  24.723  0.00  0.00    +0.056 A 
ATOM     17  C   LIG    1      -39.888  74.608  24.116  0.00  0.00    +0.054 A 
ATOM     18 CL   LIG    1      -40.806  76.025  23.765  0.00  0.00    -0.083 Cl
ATOM     19  C   LIG    1      -40.490  73.385  23.822  0.00  0.00    +0.041 A 
ATOM     20  C   LIG    1      -39.865  72.167  24.140  0.00  0.00    +0.052 A 
ATOM     21 CL   LIG    1      -40.872  70.773  23.944  0.00  0.00    -0.083 Cl
ATOM     22  C   LIG    1      -38.563  72.136  24.678  0.00  0.00    +0.022 A 
ATOM     23  C   LIG    1      -37.974  73.399  24.958  0.00  0.00    +0.026 A 
BRANCH  22  24
ATOM     24  C   LIG    1      -37.783  70.909  25.011  0.00  0.00    +0.107 A 
ATOM     25  C   LIG    1      -37.395  69.924  24.100  0.00  0.00    +0.149 A 
ATOM     26  F   LIG    1      -37.599  70.051  22.783  0.00  0.00    -0.203 F 
ATOM     27  C   LIG    1      -36.708  68.796  24.537  0.00  0.00    +0.042 A 
ATOM     28  C   LIG    1      -36.344  68.696  25.871  0.00  0.00    +0.023 A 
ATOM     29  C   LIG    1      -36.692  69.736  26.714  0.00  0.00    +0.111 A 
ATOM     30  N   LIG    1      -37.405  70.824  26.325  0.00  0.00    -0.252 NA
ENDBRANCH  22  24
ENDBRANCH  14  16
ENDBRANCH   4  12
BRANCH   1  32
ATOM     31  N   LIG    1      -37.469  81.924  27.173  0.00  0.00    -0.246 NA
ATOM     32  C   LIG    1      -37.554  81.049  28.100  0.00  0.00    +0.233 C 
BRANCH  31  37
ATOM     33  C   LIG    1      -38.106  85.686  24.302  0.00  0.00    +0.041 C 
ATOM     34  C   LIG    1      -37.961  84.164  24.434  0.00  0.00    +0.063 C 
ATOM     35  C   LIG    1      -39.105  83.557  25.263  0.00  0.00    +0.036 C 
ATOM     36  C   LIG    1      -38.976  83.817  26.768  0.00  0.00    +0.029 C 
ATOM     37  C   LIG    1      -37.622  83.363  27.330  0.00  0.00    +0.109 C 
ATOM     38  C   LIG    1      -36.506  84.064  26.533  0.00  0.00    +0.029 C 
ATOM     39  C   LIG    1      -36.594  83.783  25.029  0.00  0.00    +0.036 C 
BRANCH  34  40
ATOM     40  O   LIG    1      -38.057  83.623  23.111  0.00  0.00    -0.389 OA
ATOM     41  H   LIG    1      -38.536  84.264  22.558  0.00  0.00    +0.210 HD
ENDBRANCH  34  40
ENDBRANCH  31  37
BRANCH  32  42
ATOM     42  O   LIG    1      -37.740  81.308  29.410  0.00  0.00    -0.491 OA
ATOM     43  H   LIG    1      -38.204  82.145  29.539  0.00  0.00    +0.294 HD
ENDBRANCH  32  42
ENDBRANCH   1  32
TORSDOF 8
ENDMDL
MODEL 4
REMARK VINA RESULT:      -6.8      4.788      6.872
REMARK  Name = pdb/CHEMBL3912891.pdb
REMARK                            x       y       z     vdW  Elec       q    Type
REMARK                         _______ _______ _______ _____ _____    ______ ____
ROOT
ATOM      1  C   LIG    1      -36.670  69.385  25.467  0.00  0.00    +0.131 C 
ATOM      2  N   LIG    1      -37.615  70.251  25.874  0.00  0.00    -0.141 NA
ATOM      3  N   LIG    1      -36.947  71.400  26.079  0.00  0.00    -0.201 N 
ATOM      4  C   LIG    1      -35.579  71.191  26.172  0.00  0.00    +0.185 C 
ATOM      5  C   LIG    1      -35.368  69.942  25.639  0.00  0.00    +0.056 C 
ENDROOT
BRANCH   3   6
ATOM      6  C   LIG    1      -37.623  72.640  26.105  0.00  0.00    +0.052 A 
ATOM      7  C   LIG    1      -37.971  73.269  24.900  0.00  0.00    +0.025 A 
ATOM      8  C   LIG    1      -38.725  74.441  24.929  0.00  0.00    +0.002 A 
ATOM      9  C   LIG    1      -39.095  75.002  26.152  0.00  0.00    +0.000 A 
ATOM     10  C   LIG    1      -38.724  74.388  27.349  0.00  0.00    +0.002 A 
ATOM     11  C   LIG    1      -38.008  73.192  27.330  0.00  0.00    +0.025 A 
ENDBRANCH   3   6
BRANCH   4  12
ATOM     12  N   LIG    1      -34.668  72.077  26.750  0.00  0.00    -0.282 N 
ATOM     13  H   LIG    1      -34.101  72.609  26.097  0.00  0.00    +0.152 HD
ATOM     14  C   LIG    1      -34.536  72.293  28.160  0.00  0.00    +0.247 C 
ATOM     15  O   LIG    1      -35.230  71.655  28.944  0.00  0.00    -0.270 OA
BRANCH  14  16
ATOM     16  C   LIG    1      -33.491  73.260  28.584  0.00  0.00    +0.056 A 
ATOM     17  C   LIG    1      -32.349  72.854  29.273  0.00  0.00    +0.054 A 
ATOM     18 CL   LIG    1      -32.026  71.220  29.720  0.00  0.00    -0.083 Cl
ATOM     19  C   LIG    1      -31.427  73.811  29.694  0.00  0.00    +0.041 A 
ATOM     20  C   LIG    1      -31.631  75.180  29.454  0.00  0.00    +0.052 A 
ATOM     21 CL   LIG    1      -30.524  76.225  30.276  0.00  0.00    -0.083 Cl
ATOM     22  C   LIG    1      -32.728  75.629  28.691  0.00  0.00    +0.022 A 
ATOM     23  C   LIG    1      -33.646  74.628  28.269  0.00  0.00    +0.026 A 
BRANCH  22  24
ATOM     24  C   LIG    1      -33.023  77.046  28.333  0.00  0.00    +0.107 A 
ATOM     25  C   LIG    1      -32.478  77.737  27.249  0.00  0.00    +0.149 A 
ATOM     26  F   LIG    1      -31.700  77.138  26.339  0.00  0.00    -0.203 F 
ATOM     27  C   LIG    1      -32.793  79.077  27.041  0.00  0.00    +0.042 A 
ATOM     28  C   LIG    1      -33.712  79.696  27.873  0.00  0.00    +0.023 A 
ATOM     29  C   LIG    1      -34.275  78.942  28.887  0.00  0.00    +0.111 A 
ATOM     30  N   LIG    1      -33.949  77.648  29.143  0.00  0.00    -0.252 NA
ENDBRANCH  22  24
ENDBRANCH  14  16
ENDBRANCH   4  12
BRANCH   1  32
ATOM     31  N   LIG    1      -37.187  67.835  23.737  0.00  0.00    -0.246 NA
ATOM     32  C   LIG    1      -37.014  68.047  24.985  0.00  0.00    +0.233 C 
BRANCH  31  37
ATOM     33  C   LIG    1      -38.303  66.262  19.369  0.00  0.00    +0.041 C 
ATOM     34  C   LIG    1      -37.939  67.453  20.266  0.00  0.00    +0.063 C 
ATOM     35  C   LIG    1      -36.529  67.302  20.860  0.00  0.00    +0.036 C 
ATOM     36  C   LIG    1      -36.448  66.274  21.994  0.00  0.00    +0.029 C 
ATOM     37  C   LIG    1      -37.464  66.549  23.111  0.00  0.00    +0.109 C 
ATOM     38  C   LIG    1      -38.871  66.601  22.488  0.00  0.00    +0.029 C 
ATOM     39  C   LIG    1      -38.982  67.653  21.379  0.00  0.00    +0.036 C 
BRANCH  34  40
ATOM     40  O   LIG    1      -37.928  68.614  19.427  0.00  0.00    -0.389 OA
ATOM     41  H   LIG    1      -38.823  68.732  19.065  0.00  0.00    +0.210 HD
ENDBRANCH  34  40
ENDBRANCH  31  37
BRANCH  32  42
ATOM     42  O   LIG    1      -37.122  67.123  25.961  0.00  0.00    -0.491 OA
ATOM     43  H   LIG    1      -38.045  66.977  26.204  0.00  0.00    +0.294 HD
ENDBRANCH  32  42
ENDBRANCH   1  32
TORSDOF 8
ENDMDL
MODEL 5
REMARK VINA RESULT:      -6.8     17.767     21.433
REMARK  Name = pdb/CHEMBL3912891.pdb
REMARK                            x       y       z     vdW  Elec       q    Type
REMARK                         _______ _______ _______ _____ _____    ______ ____
ROOT
ATOM      1  C   LIG    1      -22.266  82.672  15.685  0.00  0.00    +0.131 C 
ATOM      2  N   LIG    1      -21.101  82.170  16.132  0.00  0.00    -0.141 NA
ATOM      3  N   LIG    1      -21.123  80.883  15.744  0.00  0.00    -0.201 N 
ATOM      4  C   LIG    1      -22.401  80.469  15.401  0.00  0.00    +0.185 C 
ATOM      5  C   LIG    1      -23.117  81.628  15.214  0.00  0.00    +0.056 C 
ENDROOT
BRANCH   3   6
ATOM      6  C   LIG    1      -19.930  80.131  15.648  0.00  0.00    +0.052 A 
ATOM      7  C   LIG    1      -19.578  79.248  16.681  0.00  0.00    +0.025 A 
ATOM      8  C   LIG    1      -18.455  78.435  16.537  0.00  0.00    +0.002 A 
ATOM      9  C   LIG    1      -17.666  78.532  15.391  0.00  0.00    +0.000 A 
ATOM     10  C   LIG    1      -18.004  79.431  14.377  0.00  0.00    +0.002 A 
ATOM     11  C   LIG    1      -19.150  80.216  14.492  0.00  0.00    +0.025 A 
ENDBRANCH   3   6
BRANCH   4  12
ATOM     12  N   LIG    1      -22.825  79.140  15.334  0.00  0.00    -0.282 N 
ATOM     13  H   LIG    1      -23.290  78.788  16.164  0.00  0.00    +0.152 HD
ATOM     14  C   LIG    1      -22.679  78.305  14.180  0.00  0.00    +0.247 C 
ATOM     15  O   LIG    1      -22.124  78.739  13.176  0.00  0.00    -0.270 OA
BRANCH  14  16
ATOM     16  C   LIG    1      -23.171  76.909  14.311  0.00  0.00    +0.056 A 
ATOM     17  C   LIG    1      -24.311  76.465  13.642  0.00  0.00    +0.054 A 
ATOM     18 CL   LIG    1      -25.276  77.464  12.620  0.00  0.00    -0.083 Cl
ATOM     19  C   LIG    1      -24.759  75.160  13.845  0.00  0.00    +0.041 A 
ATOM     20  C   LIG    1      -24.094  74.286  14.721  0.00  0.00    +0.052 A 
ATOM     21 CL   LIG    1      -24.942  72.812  15.041  0.00  0.00    -0.083 Cl
ATOM     22  C   LIG    1      -22.893  74.664  15.353  0.00  0.00    +0.022 A 
ATOM     23  C   LIG    1      -22.459  75.998  15.120  0.00  0.00    +0.026 A 
BRANCH  22  24
ATOM     24  C   LIG    1      -22.077  73.809  16.263  0.00  0.00    +0.107 A 
ATOM     25  C   LIG    1      -22.269  73.684  17.641  0.00  0.00    +0.149 A 
ATOM     26  F   LIG    1      -23.303  74.252  18.272  0.00  0.00    -0.203 F 
ATOM     27  C   LIG    1      -21.412  72.890  18.399  0.00  0.00    +0.042 A 
ATOM     28  C   LIG    1      -20.418  72.164  17.762  0.00  0.00    +0.023 A 
ATOM     29  C   LIG    1      -20.321  72.271  16.386  0.00  0.00    +0.111 A 
ATOM     30  N   LIG    1      -21.111  73.076  15.629  0.00  0.00    -0.252 NA
ENDBRANCH  22  24
ENDBRANCH  14  16
ENDBRANCH   4  12
BRANCH   1  32
ATOM     31  N   LIG    1      -22.443  84.847  14.738  0.00  0.00    -0.246 NA
ATOM     32  C   LIG    1      -22.566  84.101  15.768  0.00  0.00    +0.233 C 
BRANCH  31  37
ATOM     33  C   LIG    1      -20.562  88.735  12.702  0.00  0.00    +0.041 C 
ATOM     34  C   LIG    1      -20.484  87.219  12.921  0.00  0.00    +0.063 C 
ATOM     35  C   LIG    1      -21.715  86.500  12.344  0.00  0.00    +0.036 C 
ATOM     36  C   LIG    1      -22.980  86.675  13.191  0.00  0.00    +0.029 C 
ATOM     37  C   LIG    1      -22.769  86.264  14.655  0.00  0.00    +0.109 C 
ATOM     38  C   LIG    1      -21.587  87.072  15.221  0.00  0.00    +0.029 C 
ATOM     39  C   LIG    1      -20.302  86.878  14.410  0.00  0.00    +0.036 C 
BRANCH  34  40
ATOM     40  O   LIG    1      -19.338  86.754  12.197  0.00  0.00    -0.389 OA
ATOM     41  H   LIG    1      -19.505  86.894  11.248  0.00  0.00    +0.210 HD
ENDBRANCH  34  40
ENDBRANCH  31  37
BRANCH  32  42
ATOM     42  O   LIG    1      -22.963  84.510  16.990  0.00  0.00    -0.491 OA
ATOM     43  H   LIG    1      -23.458  85.337  16.939  0.00  0.00    +0.294 HD
ENDBRANCH  32  42
ENDBRANCH   1  32
TORSDOF 8
ENDMDL
MODEL 6
REMARK VINA RESULT:      -6.7     15.233     18.268
REMARK  Name = pdb/CHEMBL3912891.pdb
REMARK                            x       y       z     vdW  Elec       q    Type
REMARK                         _______ _______ _______ _____ _____    ______ ____
ROOT
ATOM      1  C   LIG    1      -28.235  76.308  32.358  0.00  0.00    +0.131 C 
ATOM      2  N   LIG    1      -27.420  76.332  31.288  0.00  0.00    -0.141 NA
ATOM      3  N   LIG    1      -26.225  76.692  31.789  0.00  0.00    -0.201 N 
ATOM      4  C   LIG    1      -26.342  77.247  33.054  0.00  0.00    +0.185 C 
ATOM      5  C   LIG    1      -27.590  76.878  33.496  0.00  0.00    +0.056 C 
ENDROOT
BRANCH   3   6
ATOM      6  C   LIG    1      -25.031  76.428  31.081  0.00  0.00    +0.052 A 
ATOM      7  C   LIG    1      -24.483  77.415  30.247  0.00  0.00    +0.025 A 
ATOM      8  C   LIG    1      -23.254  77.189  29.630  0.00  0.00    +0.002 A 
ATOM      9  C   LIG    1      -22.596  75.973  29.812  0.00  0.00    +0.000 A 
ATOM     10  C   LIG    1      -23.156  74.983  30.621  0.00  0.00    +0.002 A 
ATOM     11  C   LIG    1      -24.363  75.216  31.278  0.00  0.00    +0.025 A 
ENDBRANCH   3   6
BRANCH   4  12
ATOM     12  N   LIG    1      -25.381  78.052  33.670  0.00  0.00    -0.282 N 
ATOM     13  H   LIG    1      -25.407  79.035  33.417  0.00  0.00    +0.152 HD
ATOM     14  C   LIG    1      -24.434  77.581  34.635  0.00  0.00    +0.247 C 
ATOM     15  O   LIG    1      -24.414  76.394  34.945  0.00  0.00    -0.270 OA
BRANCH  14  16
ATOM     16  C   LIG    1      -23.474  78.585  35.161  0.00  0.00    +0.056 A 
ATOM     17  C   LIG    1      -23.891  79.671  35.929  0.00  0.00    +0.054 A 
ATOM     18 CL   LIG    1      -25.537  79.982  36.339  0.00  0.00    -0.083 Cl
ATOM     19  C   LIG    1      -22.954  80.614  36.349  0.00  0.00    +0.041 A 
ATOM     20  C   LIG    1      -21.597  80.501  36.003  0.00  0.00    +0.052 A 
ATOM     21 CL   LIG    1      -20.642  81.892  36.388  0.00  0.00    -0.083 Cl
ATOM     22  C   LIG    1      -21.116  79.379  35.299  0.00  0.00    +0.022 A 
ATOM     23  C   LIG    1      -22.096  78.432  34.891  0.00  0.00    +0.026 A 
BRANCH  22  24
ATOM     24  C   LIG    1      -19.697  79.128  34.916  0.00  0.00    +0.107 A 
ATOM     25  C   LIG    1      -19.221  79.009  33.608  0.00  0.00    +0.149 A 
ATOM     26  F   LIG    1      -20.001  79.225  32.543  0.00  0.00    -0.203 F 
ATOM     27  C   LIG    1      -17.878  78.727  33.374  0.00  0.00    +0.042 A 
ATOM     28  C   LIG    1      -17.004  78.644  34.446  0.00  0.00    +0.023 A 
ATOM     29  C   LIG    1      -17.518  78.842  35.715  0.00  0.00    +0.111 A 
ATOM     30  N   LIG    1      -18.831  79.069  35.976  0.00  0.00    -0.252 NA
ENDBRANCH  22  24
ENDBRANCH  14  16
ENDBRANCH   4  12
BRANCH   1  32
ATOM     31  N   LIG    1      -29.828  74.557  32.125  0.00  0.00    -0.246 NA
ATOM     32  C   LIG    1      -29.606  75.807  32.265  0.00  0.00    +0.233 C 
BRANCH  31  37
ATOM     33  C   LIG    1      -31.858  70.952  29.740  0.00  0.00    +0.041 C 
ATOM     34  C   LIG    1      -30.595  71.780  30.012  0.00  0.00    +0.063 C 
ATOM     35  C   LIG    1      -30.135  71.645  31.473  0.00  0.00    +0.036 C 
ATOM     36  C   LIG    1      -31.003  72.429  32.463  0.00  0.00    +0.029 C 
ATOM     37  C   LIG    1      -31.133  73.912  32.087  0.00  0.00    +0.109 C 
ATOM     38  C   LIG    1      -31.683  74.002  30.651  0.00  0.00    +0.029 C 
ATOM     39  C   LIG    1      -30.805  73.258  29.639  0.00  0.00    +0.036 C 
BRANCH  34  40
ATOM     40  O   LIG    1      -29.558  71.237  29.185  0.00  0.00    -0.389 OA
ATOM     41  H   LIG    1      -29.356  70.341  29.505  0.00  0.00    +0.210 HD
ENDBRANCH  34  40
ENDBRANCH  31  37
BRANCH  32  42
ATOM     42  O   LIG    1      -30.549  76.769  32.340  0.00  0.00    -0.491 OA
ATOM     43  H   LIG    1      -30.455  77.288  33.148  0.00  0.00    +0.294 HD
ENDBRANCH  32  42
ENDBRANCH   1  32
TORSDOF 8
ENDMDL
MODEL 7
REMARK VINA RESULT:      -6.6      4.138      9.997
REMARK  Name = pdb/CHEMBL3912891.pdb
REMARK                            x       y       z     vdW  Elec       q    Type
REMARK                         _______ _______ _______ _____ _____    ______ ____
ROOT
ATOM      1  C   LIG    1      -36.786  76.896  26.814  0.00  0.00    +0.131 C 
ATOM      2  N   LIG    1      -37.741  77.473  26.062  0.00  0.00    -0.141 NA
ATOM      3  N   LIG    1      -38.451  76.440  25.576  0.00  0.00    -0.201 N 
ATOM      4  C   LIG    1      -37.763  75.242  25.693  0.00  0.00    +0.185 C 
ATOM      5  C   LIG    1      -36.768  75.485  26.609  0.00  0.00    +0.056 C 
ENDROOT
BRANCH   3   6
ATOM      6  C   LIG    1      -39.766  76.624  25.094  0.00  0.00    +0.052 A 
ATOM      7  C   LIG    1      -39.982  76.831  23.722  0.00  0.00    +0.025 A 
ATOM      8  C   LIG    1      -41.286  76.911  23.236  0.00  0.00    +0.002 A 
ATOM      9  C   LIG    1      -42.364  76.827  24.117  0.00  0.00    +0.000 A 
ATOM     10  C   LIG    1      -42.145  76.649  25.484  0.00  0.00    +0.002 A 
ATOM     11  C   LIG    1      -40.846  76.522  25.974  0.00  0.00    +0.025 A 
ENDBRANCH   3   6
BRANCH   4  12
ATOM     12  N   LIG    1      -38.036  74.084  24.962  0.00  0.00    -0.282 N 
ATOM     13  H   LIG    1      -37.533  73.991  24.085  0.00  0.00    +0.152 HD
ATOM     14  C   LIG    1      -38.922  73.045  25.397  0.00  0.00    +0.247 C 
ATOM     15  O   LIG    1      -39.521  73.158  26.461  0.00  0.00    -0.270 OA
BRANCH  14  16
ATOM     16  C   LIG    1      -39.103  71.902  24.467  0.00  0.00    +0.056 A 
ATOM     17  C   LIG    1      -40.272  71.734  23.725  0.00  0.00    +0.054 A 
ATOM     18 CL   LIG    1      -41.624  72.802  23.807  0.00  0.00    -0.083 Cl
ATOM     19  C   LIG    1      -40.411  70.612  22.909  0.00  0.00    +0.041 A 
ATOM     20  C   LIG    1      -39.403  69.636  22.829  0.00  0.00    +0.052 A 
ATOM     21 CL   LIG    1      -39.863  68.200  21.980  0.00  0.00    -0.083 Cl
ATOM     22  C   LIG    1      -38.173  69.804  23.496  0.00  0.00    +0.022 A 
ATOM     23  C   LIG    1      -38.060  70.962  24.314  0.00  0.00    +0.026 A 
BRANCH  22  24
ATOM     24  C   LIG    1      -37.017  68.863  23.451  0.00  0.00    +0.107 A 
ATOM     25  C   LIG    1      -36.453  68.330  22.289  0.00  0.00    +0.149 A 
ATOM     26  F   LIG    1      -36.842  68.714  21.067  0.00  0.00    -0.203 F 
ATOM     27  C   LIG    1      -35.403  67.420  22.373  0.00  0.00    +0.042 A 
ATOM     28  C   LIG    1      -34.871  67.110  23.614  0.00  0.00    +0.023 A 
ATOM     29  C   LIG    1      -35.422  67.723  24.725  0.00  0.00    +0.111 A 
ATOM     30  N   LIG    1      -36.479  68.575  24.676  0.00  0.00    -0.252 NA
ENDBRANCH  22  24
ENDBRANCH  14  16
ENDBRANCH   4  12
BRANCH   1  32
ATOM     31  N   LIG    1      -35.003  77.116  28.374  0.00  0.00    -0.246 NA
ATOM     32  C   LIG    1      -35.888  77.690  27.654  0.00  0.00    +0.233 C 
BRANCH  31  37
ATOM     33  C   LIG    1      -30.937  75.894  30.561  0.00  0.00    +0.041 C 
ATOM     34  C   LIG    1      -32.102  75.471  29.656  0.00  0.00    +0.063 C 
ATOM     35  C   LIG    1      -32.123  76.278  28.347  0.00  0.00    +0.036 C 
ATOM     36  C   LIG    1      -32.628  77.715  28.522  0.00  0.00    +0.029 C 
ATOM     37  C   LIG    1      -34.003  77.777  29.201  0.00  0.00    +0.109 C 
ATOM     38  C   LIG    1      -33.914  77.036  30.548  0.00  0.00    +0.029 C 
ATOM     39  C   LIG    1      -33.449  75.584  30.389  0.00  0.00    +0.036 C 
BRANCH  34  40
ATOM     40  O   LIG    1      -31.879  74.099  29.308  0.00  0.00    -0.389 OA
ATOM     41  H   LIG    1      -32.741  73.695  29.107  0.00  0.00    +0.210 HD
ENDBRANCH  34  40
ENDBRANCH  31  37
BRANCH  32  42
ATOM     42  O   LIG    1      -36.099  79.020  27.579  0.00  0.00    -0.491 OA
ATOM     43  H   LIG    1      -36.734  79.311  28.245  0.00  0.00    +0.294 HD
ENDBRANCH  32  42
ENDBRANCH   1  32
TORSDOF 8
ENDMDL
MODEL 8
REMARK VINA RESULT:      -6.6     12.419     18.722
REMARK  Name = pdb/CHEMBL3912891.pdb
REMARK                            x       y       z     vdW  Elec       q    Type
REMARK                         _______ _______ _______ _____ _____    ______ ____
ROOT
ATOM      1  C   LIG    1      -31.086  87.043  30.911  0.00  0.00    +0.131 C 
ATOM      2  N   LIG    1      -31.928  87.837  30.224  0.00  0.00    -0.141 NA
ATOM      3  N   LIG    1      -32.977  87.044  29.943  0.00  0.00    -0.201 N 
ATOM      4  C   LIG    1      -32.667  85.702  30.103  0.00  0.00    +0.185 C 
ATOM      5  C   LIG    1      -31.520  85.685  30.860  0.00  0.00    +0.056 C 
ENDROOT
BRANCH   3   6
ATOM      6  C   LIG    1      -34.235  87.594  29.608  0.00  0.00    +0.052 A 
ATOM      7  C   LIG    1      -34.446  88.118  28.323  0.00  0.00    +0.025 A 
ATOM      8  C   LIG    1      -35.716  88.568  27.965  0.00  0.00    +0.002 A 
ATOM      9  C   LIG    1      -36.756  88.532  28.893  0.00  0.00    +0.000 A 
ATOM     10  C   LIG    1      -36.536  88.035  30.179  0.00  0.00    +0.002 A 
ATOM     11  C   LIG    1      -35.281  87.542  30.533  0.00  0.00    +0.025 A 
ENDBRANCH   3   6
BRANCH   4  12
ATOM     12  N   LIG    1      -33.379  84.640  29.541  0.00  0.00    -0.282 N 
ATOM     13  H   LIG    1      -33.151  84.424  28.576  0.00  0.00    +0.152 HD
ATOM     14  C   LIG    1      -34.341  83.850  30.248  0.00  0.00    +0.247 C 
ATOM     15  O   LIG    1      -34.607  84.110  31.417  0.00  0.00    -0.270 OA
BRANCH  14  16
ATOM     16  C   LIG    1      -35.014  82.778  29.470  0.00  0.00    +0.056 A 
ATOM     17  C   LIG    1      -36.370  82.840  29.153  0.00  0.00    +0.054 A 
ATOM     18 CL   LIG    1      -37.411  84.130  29.628  0.00  0.00    -0.083 Cl
ATOM     19  C   LIG    1      -36.962  81.779  28.468  0.00  0.00    +0.041 A 
ATOM     20  C   LIG    1      -36.224  80.641  28.103  0.00  0.00    +0.052 A 
ATOM     21 CL   LIG    1      -37.181  79.330  27.501  0.00  0.00    -0.083 Cl
ATOM     22  C   LIG    1      -34.835  80.571  28.329  0.00  0.00    +0.022 A 
ATOM     23  C   LIG    1      -34.260  81.671  29.023  0.00  0.00    +0.026 A 
BRANCH  22  24
ATOM     24  C   LIG    1      -33.942  79.439  27.947  0.00  0.00    +0.107 A 
ATOM     25  C   LIG    1      -33.830  78.229  28.636  0.00  0.00    +0.149 A 
ATOM     26  F   LIG    1      -34.618  77.923  29.673  0.00  0.00    -0.203 F 
ATOM     27  C   LIG    1      -32.924  77.262  28.210  0.00  0.00    +0.042 A 
ATOM     28  C   LIG    1      -32.195  77.476  27.052  0.00  0.00    +0.023 A 
ATOM     29  C   LIG    1      -32.400  78.662  26.370  0.00  0.00    +0.111 A 
ATOM     30  N   LIG    1      -33.240  79.644  26.790  0.00  0.00    -0.252 NA
ENDBRANCH  22  24
ENDBRANCH  14  16
ENDBRANCH   4  12
BRANCH   1  32
ATOM     31  N   LIG    1      -29.832  87.738  32.809  0.00  0.00    -0.246 NA
ATOM     32  C   LIG    1      -29.878  87.573  31.543  0.00  0.00    +0.233 C 
BRANCH  31  37
ATOM     33  C   LIG    1      -28.185  87.184  37.257  0.00  0.00    +0.041 C 
ATOM     34  C   LIG    1      -29.258  86.833  36.217  0.00  0.00    +0.063 C 
ATOM     35  C   LIG    1      -28.656  86.083  35.017  0.00  0.00    +0.036 C 
ATOM     36  C   LIG    1      -27.863  86.986  34.065  0.00  0.00    +0.029 C 
ATOM     37  C   LIG    1      -28.680  88.190  33.578  0.00  0.00    +0.109 C 
ATOM     38  C   LIG    1      -29.186  88.964  34.809  0.00  0.00    +0.029 C 
ATOM     39  C   LIG    1      -30.017  88.087  35.753  0.00  0.00    +0.036 C 
BRANCH  34  40
ATOM     40  O   LIG    1      -30.181  85.944  36.858  0.00  0.00    -0.389 OA
ATOM     41  H   LIG    1      -30.004  85.043  36.535  0.00  0.00    +0.210 HD
ENDBRANCH  34  40
ENDBRANCH  31  37
BRANCH  32  42
ATOM     42  O   LIG    1      -28.882  87.849  30.678  0.00  0.00    -0.491 OA
ATOM     43  H   LIG    1      -28.130  87.259  30.810  0.00  0.00    +0.294 HD
ENDBRANCH  32  42
ENDBRANCH   1  32
TORSDOF 8
ENDMDL
MODEL 9
REMARK VINA RESULT:      -6.5      6.086      8.493
REMARK  Name = pdb/CHEMBL3912891.pdb
REMARK                            x       y       z     vdW  Elec       q    Type
REMARK                         _______ _______ _______ _____ _____    ______ ____
ROOT
ATOM      1  C   LIG    1      -39.967  71.744  23.944  0.00  0.00    +0.131 C 
ATOM      2  N   LIG    1      -40.483  72.976  24.107  0.00  0.00    -0.141 NA
ATOM      3  N   LIG    1      -39.427  73.737  24.445  0.00  0.00    -0.201 N 
ATOM      4  C   LIG    1      -38.349  72.969  24.856  0.00  0.00    +0.185 C 
ATOM      5  C   LIG    1      -38.618  71.698  24.406  0.00  0.00    +0.056 C 
ENDROOT
BRANCH   3   6
ATOM      6  C   LIG    1      -39.465  75.141  24.295  0.00  0.00    +0.052 A 
ATOM      7  C   LIG    1      -38.332  75.906  24.615  0.00  0.00    +0.025 A 
ATOM      8  C   LIG    1      -38.339  77.279  24.371  0.00  0.00    +0.002 A 
ATOM      9  C   LIG    1      -39.480  77.889  23.849  0.00  0.00    +0.000 A 
ATOM     10  C   LIG    1      -40.614  77.129  23.557  0.00  0.00    +0.002 A 
ATOM     11  C   LIG    1      -40.602  75.749  23.756  0.00  0.00    +0.025 A 
ENDBRANCH   3   6
BRANCH   4  12
ATOM     12  N   LIG    1      -37.274  73.434  25.617  0.00  0.00    -0.282 N 
ATOM     13  H   LIG    1      -36.469  73.753  25.086  0.00  0.00    +0.152 HD
ATOM     14  C   LIG    1      -37.274  73.520  27.047  0.00  0.00    +0.247 C 
ATOM     15  O   LIG    1      -38.253  73.142  27.682  0.00  0.00    -0.270 OA
BRANCH  14  16
ATOM     16  C   LIG    1      -36.026  74.019  27.677  0.00  0.00    +0.056 A 
ATOM     17  C   LIG    1      -35.194  73.184  28.424  0.00  0.00    +0.054 A 
ATOM     18 CL   LIG    1      -35.516  71.515  28.713  0.00  0.00    -0.083 Cl
ATOM     19  C   LIG    1      -34.063  73.718  29.040  0.00  0.00    +0.041 A 
ATOM     20  C   LIG    1      -33.749  75.084  28.937  0.00  0.00    +0.052 A 
ATOM     21 CL   LIG    1      -32.468  75.604  29.977  0.00  0.00    -0.083 Cl
ATOM     22  C   LIG    1      -34.513  75.947  28.127  0.00  0.00    +0.022 A 
ATOM     23  C   LIG    1      -35.656  75.371  27.506  0.00  0.00    +0.026 A 
BRANCH  22  24
ATOM     24  C   LIG    1      -34.252  77.398  27.905  0.00  0.00    +0.107 A 
ATOM     25  C   LIG    1      -33.114  77.931  27.294  0.00  0.00    +0.149 A 
ATOM     26  F   LIG    1      -32.175  77.158  26.737  0.00  0.00    -0.203 F 
ATOM     27  C   LIG    1      -32.959  79.310  27.185  0.00  0.00    +0.042 A 
ATOM     28  C   LIG    1      -33.977  80.145  27.614  0.00  0.00    +0.023 A 
ATOM     29  C   LIG    1      -35.113  79.559  28.144  0.00  0.00    +0.111 A 
ATOM     30  N   LIG    1      -35.270  78.220  28.309  0.00  0.00    -0.252 NA
ENDBRANCH  22  24
ENDBRANCH  14  16
ENDBRANCH   4  12
BRANCH   1  32
ATOM     31  N   LIG    1      -41.905  70.869  22.878  0.00  0.00    -0.246 NA
ATOM     32  C   LIG    1      -40.769  70.641  23.416  0.00  0.00    +0.233 C 
BRANCH  31  37
ATOM     33  C   LIG    1      -45.138  70.817  19.364  0.00  0.00    +0.041 C 
ATOM     34  C   LIG    1      -44.106  71.621  20.166  0.00  0.00    +0.063 C 
ATOM     35  C   LIG    1      -42.687  71.056  19.988  0.00  0.00    +0.036 C 
ATOM     36  C   LIG    1      -42.446  69.754  20.760  0.00  0.00    +0.029 C 
ATOM     37  C   LIG    1      -42.777  69.884  22.253  0.00  0.00    +0.109 C 
ATOM     38  C   LIG    1      -44.234  70.365  22.388  0.00  0.00    +0.029 C 
ATOM     39  C   LIG    1      -44.485  71.687  21.655  0.00  0.00    +0.036 C 
BRANCH  34  40
ATOM     40  O   LIG    1      -44.107  72.950  19.629  0.00  0.00    -0.389 OA
ATOM     41  H   LIG    1      -44.897  73.047  19.068  0.00  0.00    +0.210 HD
ENDBRANCH  34  40
ENDBRANCH  31  37
BRANCH  32  42
ATOM     42  O   LIG    1      -40.198  69.428  23.560  0.00  0.00    -0.491 OA
ATOM     43  H   LIG    1      -40.674  68.892  24.206  0.00  0.00    +0.294 HD
ENDBRANCH  32  42
ENDBRANCH   1  32
TORSDOF 8
ENDMDL
