MODEL 1
REMARK VINA RESULT:      -6.0      0.000      0.000
REMARK  Name = pdb/CHEMBL3676097.pdb
REMARK                            x       y       z     vdW  Elec       q    Type
REMARK                         _______ _______ _______ _____ _____    ______ ____
ROOT
ATOM      1  C   LIG    1      -18.488  85.284  13.147  0.00  0.00    +0.100 A 
ATOM      2  C   LIG    1      -18.819  83.974  13.454  0.00  0.00    +0.170 A 
ATOM      3  N   LIG    1      -19.865  83.441  14.154  0.00  0.00    -0.212 NA
ATOM      4  C   LIG    1      -19.986  82.129  14.198  0.00  0.00    +0.126 A 
ATOM      5  C   LIG    1      -18.984  81.215  13.534  0.00  0.00    +0.063 A 
ATOM      6  C   LIG    1      -17.958  81.792  12.899  0.00  0.00    +0.118 A 
ATOM      7  N   LIG    1      -17.850  83.174  12.851  0.00  0.00    -0.221 N 
ATOM      8  N   LIG    1      -16.885  83.907  12.251  0.00  0.00    -0.173 NA
ATOM      9  C   LIG    1      -17.281  85.167  12.425  0.00  0.00    +0.150 A 
ENDROOT
BRANCH   4  10
ATOM     10  N   LIG    1      -21.071  81.600  14.883  0.00  0.00    -0.308 N 
ATOM     11  C   LIG    1      -22.233  82.419  15.299  0.00  0.00    +0.110 C 
ATOM     12  C   LIG    1      -22.442  81.968  16.756  0.00  0.00    +0.029 C 
ATOM     13  C   LIG    1      -22.071  80.495  16.743  0.00  0.00    +0.021 C 
ATOM     14  C   LIG    1      -20.881  80.462  15.797  0.00  0.00    +0.107 C 
BRANCH  11  15
ATOM     15  C   LIG    1      -23.390  82.203  14.334  0.00  0.00    +0.040 A 
ATOM     16  C   LIG    1      -23.491  83.156  13.162  0.00  0.00    +0.256 A 
ATOM     17  O   LIG    1      -22.726  84.114  13.081  0.00  0.00    -0.267 OA
ATOM     18  N   LIG    1      -24.466  82.868  12.194  0.00  0.00    -0.315 N 
ATOM     19  C   LIG    1      -24.586  83.760  11.050  0.00  0.00    +0.152 C 
ATOM     20  C   LIG    1      -25.321  81.786  12.304  0.00  0.00    +0.127 A 
ATOM     21  C   LIG    1      -25.231  80.955  13.344  0.00  0.00    +0.140 A 
ATOM     22  F   LIG    1      -26.048  79.890  13.450  0.00  0.00    -0.204 F 
ATOM     23  C   LIG    1      -24.241  81.159  14.361  0.00  0.00    +0.050 A 
ENDBRANCH  11  15
ENDBRANCH   4  10
BRANCH   1  26
ATOM     24  N   LIG    1      -20.493  86.325  13.913  0.00  0.00    -0.308 N 
ATOM     25  H   LIG    1      -20.817  85.361  13.989  0.00  0.00    +0.149 HD
ATOM     26  C   LIG    1      -19.205  86.500  13.477  0.00  0.00    +0.249 C 
ATOM     27  O   LIG    1      -18.679  87.614  13.355  0.00  0.00    -0.270 OA
BRANCH  24  29
ATOM     28  C   LIG    1      -21.828  87.235  15.774  0.00  0.00    +0.028 C 
ATOM     29  C   LIG    1      -21.358  87.412  14.331  0.00  0.00    +0.073 C 
BRANCH  29  30
ATOM     30  C   LIG    1      -22.537  87.472  13.391  0.00  0.00    +0.009 C 
ATOM     31  C   LIG    1      -22.307  87.467  11.899  0.00  0.00    +0.005 C 
ATOM     32  C   LIG    1      -22.821  88.707  12.570  0.00  0.00    +0.005 C 
ENDBRANCH  29  30
ENDBRANCH  24  29
ENDBRANCH   1  26
TORSDOF 5
ENDMDL
MODEL 2
REMARK VINA RESULT:      -5.8     18.242     21.012
REMARK  Name = pdb/CHEMBL3676097.pdb
REMARK                            x       y       z     vdW  Elec       q    Type
REMARK                         _______ _______ _______ _____ _____    ______ ____
ROOT
ATOM      1  C   LIG    1      -20.318  77.126  30.528  0.00  0.00    +0.100 A 
ATOM      2  C   LIG    1      -20.012  77.767  31.717  0.00  0.00    +0.170 A 
ATOM      3  N   LIG    1      -20.806  78.330  32.676  0.00  0.00    -0.212 NA
ATOM      4  C   LIG    1      -20.235  78.785  33.774  0.00  0.00    +0.126 A 
ATOM      5  C   LIG    1      -18.739  78.733  33.973  0.00  0.00    +0.063 A 
ATOM      6  C   LIG    1      -18.009  78.209  32.983  0.00  0.00    +0.118 A 
ATOM      7  N   LIG    1      -18.624  77.725  31.839  0.00  0.00    -0.221 N 
ATOM      8  N   LIG    1      -18.035  77.164  30.757  0.00  0.00    -0.173 NA
ATOM      9  C   LIG    1      -19.057  76.801  29.984  0.00  0.00    +0.150 A 
ENDROOT
BRANCH   4  10
ATOM     10  N   LIG    1      -21.055  79.324  34.756  0.00  0.00    -0.308 N 
ATOM     11  C   LIG    1      -22.512  79.512  34.570  0.00  0.00    +0.110 C 
ATOM     12  C   LIG    1      -22.725  80.943  35.097  0.00  0.00    +0.029 C 
ATOM     13  C   LIG    1      -21.727  81.068  36.236  0.00  0.00    +0.021 C 
ATOM     14  C   LIG    1      -20.517  80.318  35.699  0.00  0.00    +0.107 C 
BRANCH  11  15
ATOM     15  C   LIG    1      -23.271  78.395  35.271  0.00  0.00    +0.040 A 
ATOM     16  C   LIG    1      -24.628  78.030  34.708  0.00  0.00    +0.256 A 
ATOM     17  O   LIG    1      -25.114  78.695  33.795  0.00  0.00    -0.267 OA
ATOM     18  N   LIG    1      -25.261  76.905  35.259  0.00  0.00    -0.315 N 
ATOM     19  C   LIG    1      -26.564  76.522  34.735  0.00  0.00    +0.152 C 
ATOM     20  C   LIG    1      -24.699  76.171  36.288  0.00  0.00    +0.127 A 
ATOM     21  C   LIG    1      -23.507  76.504  36.785  0.00  0.00    +0.140 A 
ATOM     22  F   LIG    1      -22.946  75.784  37.776  0.00  0.00    -0.204 F 
ATOM     23  C   LIG    1      -22.778  77.619  36.256  0.00  0.00    +0.050 A 
ENDBRANCH  11  15
ENDBRANCH   4  10
BRANCH   1  26
ATOM     24  N   LIG    1      -22.685  77.025  30.810  0.00  0.00    -0.308 N 
ATOM     25  H   LIG    1      -22.463  77.367  31.744  0.00  0.00    +0.149 HD
ATOM     26  C   LIG    1      -21.623  76.840  29.963  0.00  0.00    +0.249 C 
ATOM     27  O   LIG    1      -21.750  76.445  28.797  0.00  0.00    -0.270 OA
BRANCH  24  29
ATOM     28  C   LIG    1      -24.787  78.168  30.220  0.00  0.00    +0.028 C 
ATOM     29  C   LIG    1      -24.070  76.834  30.421  0.00  0.00    +0.073 C 
BRANCH  29  30
ATOM     30  C   LIG    1      -24.756  76.015  31.486  0.00  0.00    +0.009 C 
ATOM     31  C   LIG    1      -23.945  75.079  32.350  0.00  0.00    +0.005 C 
ATOM     32  C   LIG    1      -24.910  74.519  31.345  0.00  0.00    +0.005 C 
ENDBRANCH  29  30
ENDBRANCH  24  29
ENDBRANCH   1  26
TORSDOF 5
ENDMDL
MODEL 3
REMARK VINA RESULT:      -5.6      2.626      7.188
REMARK  Name = pdb/CHEMBL3676097.pdb
REMARK                            x       y       z     vdW  Elec       q    Type
REMARK                         _______ _______ _______ _____ _____    ______ ____
ROOT
ATOM      1  C   LIG    1      -24.781  81.958  12.712  0.00  0.00    +0.100 A 
ATOM      2  C   LIG    1      -24.318  83.185  12.263  0.00  0.00    +0.170 A 
ATOM      3  N   LIG    1      -23.539  84.135  12.859  0.00  0.00    -0.212 NA
ATOM      4  C   LIG    1      -23.161  85.176  12.144  0.00  0.00    +0.126 A 
ATOM      5  C   LIG    1      -23.600  85.356  10.710  0.00  0.00    +0.063 A 
ATOM      6  C   LIG    1      -24.397  84.416  10.192  0.00  0.00    +0.118 A 
ATOM      7  N   LIG    1      -24.777  83.321  10.954  0.00  0.00    -0.221 N 
ATOM      8  N   LIG    1      -25.568  82.288  10.581  0.00  0.00    -0.173 NA
ATOM      9  C   LIG    1      -25.555  81.475  11.636  0.00  0.00    +0.150 A 
ENDROOT
BRANCH   4  10
ATOM     10  N   LIG    1      -22.340  86.118  12.749  0.00  0.00    -0.308 N 
ATOM     11  C   LIG    1      -21.617  85.855  14.014  0.00  0.00    +0.110 C 
ATOM     12  C   LIG    1      -21.899  87.135  14.821  0.00  0.00    +0.029 C 
ATOM     13  C   LIG    1      -21.934  88.232  13.771  0.00  0.00    +0.021 C 
ATOM     14  C   LIG    1      -22.637  87.552  12.606  0.00  0.00    +0.107 C 
BRANCH  11  15
ATOM     15  C   LIG    1      -20.161  85.528  13.719  0.00  0.00    +0.040 A 
ATOM     16  C   LIG    1      -19.773  84.065  13.719  0.00  0.00    +0.256 A 
ATOM     17  O   LIG    1      -20.593  83.212  14.052  0.00  0.00    -0.267 OA
ATOM     18  N   LIG    1      -18.469  83.755  13.302  0.00  0.00    -0.315 N 
ATOM     19  C   LIG    1      -18.066  82.357  13.282  0.00  0.00    +0.152 C 
ATOM     20  C   LIG    1      -17.559  84.730  12.933  0.00  0.00    +0.127 A 
ATOM     21  C   LIG    1      -17.906  86.018  12.945  0.00  0.00    +0.140 A 
ATOM     22  F   LIG    1      -17.031  86.972  12.571  0.00  0.00    -0.204 F 
ATOM     23  C   LIG    1      -19.228  86.418  13.326  0.00  0.00    +0.050 A 
ENDBRANCH  11  15
ENDBRANCH   4  10
BRANCH   1  26
ATOM     24  N   LIG    1      -23.302  81.549  14.538  0.00  0.00    -0.308 N 
ATOM     25  H   LIG    1      -22.691  82.179  14.023  0.00  0.00    +0.149 HD
ATOM     26  C   LIG    1      -24.533  81.307  13.983  0.00  0.00    +0.249 C 
ATOM     27  O   LIG    1      -25.380  80.575  14.512  0.00  0.00    -0.270 OA
BRANCH  24  29
ATOM     28  C   LIG    1      -22.471  82.142  16.781  0.00  0.00    +0.028 C 
ATOM     29  C   LIG    1      -22.881  81.023  15.824  0.00  0.00    +0.073 C 
BRANCH  29  30
ATOM     30  C   LIG    1      -21.733  80.071  15.596  0.00  0.00    +0.009 C 
ATOM     31  C   LIG    1      -21.432  79.581  14.201  0.00  0.00    +0.005 C 
ATOM     32  C   LIG    1      -21.978  78.627  15.223  0.00  0.00    +0.005 C 
ENDBRANCH  29  30
ENDBRANCH  24  29
ENDBRANCH   1  26
TORSDOF 5
ENDMDL
MODEL 4
REMARK VINA RESULT:      -5.5     18.654     21.318
REMARK  Name = pdb/CHEMBL3676097.pdb
REMARK                            x       y       z     vdW  Elec       q    Type
REMARK                         _______ _______ _______ _____ _____    ______ ____
ROOT
ATOM      1  C   LIG    1      -18.901  78.208  33.197  0.00  0.00    +0.100 A 
ATOM      2  C   LIG    1      -19.944  77.854  32.357  0.00  0.00    +0.170 A 
ATOM      3  N   LIG    1      -21.296  77.830  32.550  0.00  0.00    -0.212 NA
ATOM      4  C   LIG    1      -22.071  77.546  31.521  0.00  0.00    +0.126 A 
ATOM      5  C   LIG    1      -21.500  77.212  30.163  0.00  0.00    +0.063 A 
ATOM      6  C   LIG    1      -20.168  77.211  30.045  0.00  0.00    +0.118 A 
ATOM      7  N   LIG    1      -19.367  77.522  31.133  0.00  0.00    -0.221 N 
ATOM      8  N   LIG    1      -18.015  77.570  31.177  0.00  0.00    -0.173 NA
ATOM      9  C   LIG    1      -17.747  77.991  32.413  0.00  0.00    +0.150 A 
ENDROOT
BRANCH   4  10
ATOM     10  N   LIG    1      -23.445  77.558  31.720  0.00  0.00    -0.308 N 
ATOM     11  C   LIG    1      -24.128  76.634  32.655  0.00  0.00    +0.110 C 
ATOM     12  C   LIG    1      -25.318  76.141  31.813  0.00  0.00    +0.029 C 
ATOM     13  C   LIG    1      -25.698  77.347  30.970  0.00  0.00    +0.021 C 
ATOM     14  C   LIG    1      -24.344  77.945  30.620  0.00  0.00    +0.107 C 
BRANCH  11  15
ATOM     15  C   LIG    1      -24.450  77.358  33.953  0.00  0.00    +0.040 A 
ATOM     16  C   LIG    1      -24.647  76.501  35.185  0.00  0.00    +0.256 A 
ATOM     17  O   LIG    1      -24.649  75.276  35.088  0.00  0.00    -0.267 OA
ATOM     18  N   LIG    1      -24.796  77.174  36.408  0.00  0.00    -0.315 N 
ATOM     19  C   LIG    1      -24.981  76.380  37.614  0.00  0.00    +0.152 C 
ATOM     20  C   LIG    1      -24.794  78.555  36.498  0.00  0.00    +0.127 A 
ATOM     21  C   LIG    1      -24.629  79.303  35.406  0.00  0.00    +0.140 A 
ATOM     22  F   LIG    1      -24.609  80.648  35.487  0.00  0.00    -0.204 F 
ATOM     23  C   LIG    1      -24.437  78.695  34.122  0.00  0.00    +0.050 A 
ENDBRANCH  11  15
ENDBRANCH   4  10
BRANCH   1  26
ATOM     24  N   LIG    1      -20.222  78.827  35.084  0.00  0.00    -0.308 N 
ATOM     25  H   LIG    1      -20.993  78.548  34.479  0.00  0.00    +0.149 HD
ATOM     26  C   LIG    1      -18.962  78.695  34.561  0.00  0.00    +0.249 C 
ATOM     27  O   LIG    1      -17.935  78.981  35.192  0.00  0.00    -0.270 OA
BRANCH  24  29
ATOM     28  C   LIG    1      -21.189  78.166  37.252  0.00  0.00    +0.028 C 
ATOM     29  C   LIG    1      -20.491  79.258  36.443  0.00  0.00    +0.073 C 
BRANCH  29  30
ATOM     30  C   LIG    1      -21.338  80.505  36.389  0.00  0.00    +0.009 C 
ATOM     31  C   LIG    1      -21.000  81.598  35.404  0.00  0.00    +0.005 C 
ATOM     32  C   LIG    1      -20.805  81.834  36.873  0.00  0.00    +0.005 C 
ENDBRANCH  29  30
ENDBRANCH  24  29
ENDBRANCH   1  26
TORSDOF 5
ENDMDL
MODEL 5
REMARK VINA RESULT:      -5.4     20.004     23.096
REMARK  Name = pdb/CHEMBL3676097.pdb
REMARK                            x       y       z     vdW  Elec       q    Type
REMARK                         _______ _______ _______ _____ _____    ______ ____
ROOT
ATOM      1  C   LIG    1      -37.675  76.569  26.290  0.00  0.00    +0.100 A 
ATOM      2  C   LIG    1      -38.278  75.554  25.566  0.00  0.00    +0.170 A 
ATOM      3  N   LIG    1      -38.046  74.208  25.521  0.00  0.00    -0.212 NA
ATOM      4  C   LIG    1      -38.859  73.455  24.808  0.00  0.00    +0.126 A 
ATOM      5  C   LIG    1      -40.003  74.046  24.018  0.00  0.00    +0.063 A 
ATOM      6  C   LIG    1      -40.157  75.373  24.067  0.00  0.00    +0.118 A 
ATOM      7  N   LIG    1      -39.300  76.151  24.830  0.00  0.00    -0.221 N 
ATOM      8  N   LIG    1      -39.323  77.495  24.988  0.00  0.00    -0.173 NA
ATOM      9  C   LIG    1      -38.353  77.733  25.870  0.00  0.00    +0.150 A 
ENDROOT
BRANCH   4  10
ATOM     10  N   LIG    1      -38.634  72.085  24.797  0.00  0.00    -0.308 N 
ATOM     11  C   LIG    1      -37.275  71.496  24.779  0.00  0.00    +0.110 C 
ATOM     12  C   LIG    1      -37.405  70.415  23.689  0.00  0.00    +0.029 C 
ATOM     13  C   LIG    1      -38.830  69.911  23.838  0.00  0.00    +0.021 C 
ATOM     14  C   LIG    1      -39.601  71.186  24.146  0.00  0.00    +0.107 C 
BRANCH  11  15
ATOM     15  C   LIG    1      -36.895  71.030  26.176  0.00  0.00    +0.040 A 
ATOM     16  C   LIG    1      -35.444  70.666  26.405  0.00  0.00    +0.256 A 
ATOM     17  O   LIG    1      -34.657  70.653  25.462  0.00  0.00    -0.267 OA
ATOM     18  N   LIG    1      -35.064  70.380  27.726  0.00  0.00    -0.315 N 
ATOM     19  C   LIG    1      -33.673  70.033  27.983  0.00  0.00    +0.152 C 
ATOM     20  C   LIG    1      -35.965  70.397  28.775  0.00  0.00    +0.127 A 
ATOM     21  C   LIG    1      -37.244  70.710  28.563  0.00  0.00    +0.140 A 
ATOM     22  F   LIG    1      -38.125  70.746  29.583  0.00  0.00    -0.204 F 
ATOM     23  C   LIG    1      -37.708  71.048  27.250  0.00  0.00    +0.050 A 
ENDBRANCH  11  15
ENDBRANCH   4  10
BRANCH   1  26
ATOM     24  N   LIG    1      -35.339  76.375  26.734  0.00  0.00    -0.308 N 
ATOM     25  H   LIG    1      -35.270  76.403  25.718  0.00  0.00    +0.149 HD
ATOM     26  C   LIG    1      -36.601  76.475  27.260  0.00  0.00    +0.249 C 
ATOM     27  O   LIG    1      -36.828  76.472  28.477  0.00  0.00    -0.270 OA
BRANCH  24  29
ATOM     28  C   LIG    1      -33.033  77.213  26.973  0.00  0.00    +0.028 C 
ATOM     29  C   LIG    1      -34.133  76.314  27.538  0.00  0.00    +0.073 C 
BRANCH  29  30
ATOM     30  C   LIG    1      -33.670  74.879  27.596  0.00  0.00    +0.009 C 
ATOM     31  C   LIG    1      -34.559  73.830  28.219  0.00  0.00    +0.005 C 
ATOM     32  C   LIG    1      -33.287  74.233  28.906  0.00  0.00    +0.005 C 
ENDBRANCH  29  30
ENDBRANCH  24  29
ENDBRANCH   1  26
TORSDOF 5
ENDMDL
MODEL 6
REMARK VINA RESULT:      -5.4     23.211     24.852
REMARK  Name = pdb/CHEMBL3676097.pdb
REMARK                            x       y       z     vdW  Elec       q    Type
REMARK                         _______ _______ _______ _____ _____    ______ ____
ROOT
ATOM      1  C   LIG    1      -39.840  69.592  22.407  0.00  0.00    +0.100 A 
ATOM      2  C   LIG    1      -38.904  69.865  23.391  0.00  0.00    +0.170 A 
ATOM      3  N   LIG    1      -37.758  69.219  23.759  0.00  0.00    -0.212 NA
ATOM      4  C   LIG    1      -36.993  69.774  24.678  0.00  0.00    +0.126 A 
ATOM      5  C   LIG    1      -37.372  71.071  25.351  0.00  0.00    +0.063 A 
ATOM      6  C   LIG    1      -38.526  71.636  24.981  0.00  0.00    +0.118 A 
ATOM      7  N   LIG    1      -39.315  71.047  24.005  0.00  0.00    -0.221 N 
ATOM      8  N   LIG    1      -40.497  71.490  23.518  0.00  0.00    -0.173 NA
ATOM      9  C   LIG    1      -40.797  70.618  22.556  0.00  0.00    +0.150 A 
ENDROOT
BRANCH   4  10
ATOM     10  N   LIG    1      -35.813  69.126  25.019  0.00  0.00    -0.308 N 
ATOM     11  C   LIG    1      -35.769  67.702  25.422  0.00  0.00    +0.110 C 
ATOM     12  C   LIG    1      -34.865  67.745  26.668  0.00  0.00    +0.029 C 
ATOM     13  C   LIG    1      -33.860  68.841  26.356  0.00  0.00    +0.021 C 
ATOM     14  C   LIG    1      -34.714  69.880  25.645  0.00  0.00    +0.107 C 
BRANCH  11  15
ATOM     15  C   LIG    1      -35.299  66.848  24.254  0.00  0.00    +0.040 A 
ATOM     16  C   LIG    1      -35.586  65.364  24.330  0.00  0.00    +0.256 A 
ATOM     17  O   LIG    1      -36.080  64.885  25.348  0.00  0.00    -0.267 OA
ATOM     18  N   LIG    1      -35.287  64.602  23.190  0.00  0.00    -0.315 N 
ATOM     19  C   LIG    1      -35.558  63.172  23.227  0.00  0.00    +0.152 C 
ATOM     20  C   LIG    1      -34.729  65.158  22.054  0.00  0.00    +0.127 A 
ATOM     21  C   LIG    1      -34.470  66.466  21.998  0.00  0.00    +0.140 A 
ATOM     22  F   LIG    1      -33.942  67.018  20.888  0.00  0.00    -0.204 F 
ATOM     23  C   LIG    1      -34.776  67.322  23.106  0.00  0.00    +0.050 A 
ENDBRANCH  11  15
ENDBRANCH   4  10
BRANCH   1  26
ATOM     24  N   LIG    1      -38.747  67.694  21.461  0.00  0.00    -0.308 N 
ATOM     25  H   LIG    1      -38.044  67.902  22.169  0.00  0.00    +0.149 HD
ATOM     26  C   LIG    1      -39.846  68.513  21.438  0.00  0.00    +0.249 C 
ATOM     27  O   LIG    1      -40.783  68.365  20.642  0.00  0.00    -0.270 OA
BRANCH  24  29
ATOM     28  C   LIG    1      -38.461  65.246  21.411  0.00  0.00    +0.028 C 
ATOM     29  C   LIG    1      -38.586  66.536  20.601  0.00  0.00    +0.073 C 
BRANCH  29  30
ATOM     30  C   LIG    1      -37.364  66.747  19.742  0.00  0.00    +0.009 C 
ATOM     31  C   LIG    1      -37.075  68.115  19.172  0.00  0.00    +0.005 C 
ATOM     32  C   LIG    1      -37.485  66.998  18.257  0.00  0.00    +0.005 C 
ENDBRANCH  29  30
ENDBRANCH  24  29
ENDBRANCH   1  26
TORSDOF 5
ENDMDL
MODEL 7
REMARK VINA RESULT:      -5.4     18.346     21.232
REMARK  Name = pdb/CHEMBL3676097.pdb
REMARK                            x       y       z     vdW  Elec       q    Type
REMARK                         _______ _______ _______ _____ _____    ______ ____
ROOT
ATOM      1  C   LIG    1      -20.273  79.720  35.513  0.00  0.00    +0.100 A 
ATOM      2  C   LIG    1      -21.401  79.412  34.768  0.00  0.00    +0.170 A 
ATOM      3  N   LIG    1      -21.573  78.631  33.661  0.00  0.00    -0.212 NA
ATOM      4  C   LIG    1      -22.799  78.431  33.219  0.00  0.00    +0.126 A 
ATOM      5  C   LIG    1      -23.997  79.070  33.881  0.00  0.00    +0.063 A 
ATOM      6  C   LIG    1      -23.764  79.858  34.935  0.00  0.00    +0.118 A 
ATOM      7  N   LIG    1      -22.470  80.050  35.395  0.00  0.00    -0.221 N 
ATOM      8  N   LIG    1      -22.069  80.806  36.443  0.00  0.00    -0.173 NA
ATOM      9  C   LIG    1      -20.755  80.593  36.511  0.00  0.00    +0.150 A 
ENDROOT
BRANCH   4  10
ATOM     10  N   LIG    1      -22.965  77.608  32.113  0.00  0.00    -0.308 N 
ATOM     11  C   LIG    1      -21.877  77.338  31.145  0.00  0.00    +0.110 C 
ATOM     12  C   LIG    1      -22.594  77.519  29.794  0.00  0.00    +0.029 C 
ATOM     13  C   LIG    1      -24.001  77.009  30.052  0.00  0.00    +0.021 C 
ATOM     14  C   LIG    1      -24.280  77.508  31.462  0.00  0.00    +0.107 C 
BRANCH  11  15
ATOM     15  C   LIG    1      -21.261  75.976  31.425  0.00  0.00    +0.040 A 
ATOM     16  C   LIG    1      -19.832  75.764  30.974  0.00  0.00    +0.256 A 
ATOM     17  O   LIG    1      -19.260  76.631  30.317  0.00  0.00    -0.267 OA
ATOM     18  N   LIG    1      -19.216  74.564  31.363  0.00  0.00    -0.315 N 
ATOM     19  C   LIG    1      -17.839  74.331  30.951  0.00  0.00    +0.152 C 
ATOM     20  C   LIG    1      -19.877  73.598  32.099  0.00  0.00    +0.127 A 
ATOM     21  C   LIG    1      -21.139  73.788  32.486  0.00  0.00    +0.140 A 
ATOM     22  F   LIG    1      -21.785  72.860  33.219  0.00  0.00    -0.204 F 
ATOM     23  C   LIG    1      -21.832  75.000  32.159  0.00  0.00    +0.050 A 
ENDBRANCH  11  15
ENDBRANCH   4  10
BRANCH   1  26
ATOM     24  N   LIG    1      -18.659  78.634  34.132  0.00  0.00    -0.308 N 
ATOM     25  H   LIG    1      -19.439  78.578  33.479  0.00  0.00    +0.149 HD
ATOM     26  C   LIG    1      -18.912  79.256  35.327  0.00  0.00    +0.249 C 
ATOM     27  O   LIG    1      -18.052  79.408  36.205  0.00  0.00    -0.270 OA
BRANCH  24  29
ATOM     28  C   LIG    1      -16.923  78.695  32.384  0.00  0.00    +0.028 C 
ATOM     29  C   LIG    1      -17.352  78.139  33.742  0.00  0.00    +0.073 C 
BRANCH  29  30
ATOM     30  C   LIG    1      -17.404  76.631  33.708  0.00  0.00    +0.009 C 
ATOM     31  C   LIG    1      -18.354  75.894  34.620  0.00  0.00    +0.005 C 
ATOM     32  C   LIG    1      -16.875  75.805  34.856  0.00  0.00    +0.005 C 
ENDBRANCH  29  30
ENDBRANCH  24  29
ENDBRANCH   1  26
TORSDOF 5
ENDMDL
MODEL 8
REMARK VINA RESULT:      -5.3     18.855     21.887
REMARK  Name = pdb/CHEMBL3676097.pdb
REMARK                            x       y       z     vdW  Elec       q    Type
REMARK                         _______ _______ _______ _____ _____    ______ ____
ROOT
ATOM      1  C   LIG    1      -22.316  76.898  30.942  0.00  0.00    +0.100 A 
ATOM      2  C   LIG    1      -22.790  77.503  32.094  0.00  0.00    +0.170 A 
ATOM      3  N   LIG    1      -22.150  78.170  33.100  0.00  0.00    -0.212 NA
ATOM      4  C   LIG    1      -22.879  78.744  34.036  0.00  0.00    +0.126 A 
ATOM      5  C   LIG    1      -24.387  78.646  34.041  0.00  0.00    +0.063 A 
ATOM      6  C   LIG    1      -24.956  77.945  33.055  0.00  0.00    +0.118 A 
ATOM      7  N   LIG    1      -24.177  77.357  32.072  0.00  0.00    -0.221 N 
ATOM      8  N   LIG    1      -24.595  76.626  31.013  0.00  0.00    -0.173 NA
ATOM      9  C   LIG    1      -23.475  76.365  30.338  0.00  0.00    +0.150 A 
ENDROOT
BRANCH   4  10
ATOM     10  N   LIG    1      -22.219  79.448  35.034  0.00  0.00    -0.308 N 
ATOM     11  C   LIG    1      -22.558  80.846  35.386  0.00  0.00    +0.110 C 
ATOM     12  C   LIG    1      -21.169  81.506  35.468  0.00  0.00    +0.029 C 
ATOM     13  C   LIG    1      -20.273  80.410  36.018  0.00  0.00    +0.021 C 
ATOM     14  C   LIG    1      -20.803  79.167  35.319  0.00  0.00    +0.107 C 
BRANCH  11  15
ATOM     15  C   LIG    1      -23.412  80.870  36.645  0.00  0.00    +0.040 A 
ATOM     16  C   LIG    1      -24.222  82.123  36.900  0.00  0.00    +0.256 A 
ATOM     17  O   LIG    1      -24.091  83.100  36.166  0.00  0.00    -0.267 OA
ATOM     18  N   LIG    1      -25.121  82.088  37.978  0.00  0.00    -0.315 N 
ATOM     19  C   LIG    1      -25.921  83.274  38.247  0.00  0.00    +0.152 C 
ATOM     20  C   LIG    1      -25.252  80.980  38.795  0.00  0.00    +0.127 A 
ATOM     21  C   LIG    1      -24.528  79.882  38.569  0.00  0.00    +0.140 A 
ATOM     22  F   LIG    1      -24.663  78.793  39.351  0.00  0.00    -0.204 F 
ATOM     23  C   LIG    1      -23.611  79.823  37.470  0.00  0.00    +0.050 A 
ENDBRANCH  11  15
ENDBRANCH   4  10
BRANCH   1  26
ATOM     24  N   LIG    1      -19.985  76.735  31.419  0.00  0.00    -0.308 N 
ATOM     25  H   LIG    1      -20.311  76.701  32.383  0.00  0.00    +0.149 HD
ATOM     26  C   LIG    1      -20.953  76.826  30.453  0.00  0.00    +0.249 C 
ATOM     27  O   LIG    1      -20.699  76.859  29.241  0.00  0.00    -0.270 OA
BRANCH  24  29
ATOM     28  C   LIG    1      -18.153  75.148  30.967  0.00  0.00    +0.028 C 
ATOM     29  C   LIG    1      -18.568  76.611  31.131  0.00  0.00    +0.073 C 
BRANCH  29  30
ATOM     30  C   LIG    1      -17.794  77.262  32.250  0.00  0.00    +0.009 C 
ATOM     31  C   LIG    1      -18.171  78.648  32.713  0.00  0.00    +0.005 C 
ATOM     32  C   LIG    1      -16.875  78.431  31.989  0.00  0.00    +0.005 C 
ENDBRANCH  29  30
ENDBRANCH  24  29
ENDBRANCH   1  26
TORSDOF 5
ENDMDL
MODEL 9
REMARK VINA RESULT:      -5.2     19.035     22.159
REMARK  Name = pdb/CHEMBL3676097.pdb
REMARK                            x       y       z     vdW  Elec       q    Type
REMARK                         _______ _______ _______ _____ _____    ______ ____
ROOT
ATOM      1  C   LIG    1      -19.989  77.309  31.222  0.00  0.00    +0.100 A 
ATOM      2  C   LIG    1      -19.987  78.037  32.401  0.00  0.00    +0.170 A 
ATOM      3  N   LIG    1      -21.001  78.600  33.123  0.00  0.00    -0.212 NA
ATOM      4  C   LIG    1      -20.711  79.155  34.283  0.00  0.00    +0.126 A 
ATOM      5  C   LIG    1      -19.295  79.214  34.805  0.00  0.00    +0.063 A 
ATOM      6  C   LIG    1      -18.338  78.683  34.036  0.00  0.00    +0.118 A 
ATOM      7  N   LIG    1      -18.660  78.094  32.823  0.00  0.00    -0.221 N 
ATOM      8  N   LIG    1      -17.818  77.513  31.938  0.00  0.00    -0.173 NA
ATOM      9  C   LIG    1      -18.624  77.038  30.989  0.00  0.00    +0.150 A 
ENDROOT
BRANCH   4  10
ATOM     10  N   LIG    1      -21.754  79.694  35.024  0.00  0.00    -0.308 N 
ATOM     11  C   LIG    1      -21.904  79.466  36.480  0.00  0.00    +0.110 C 
ATOM     12  C   LIG    1      -23.400  79.119  36.601  0.00  0.00    +0.029 C 
ATOM     13  C   LIG    1      -24.064  79.978  35.539  0.00  0.00    +0.021 C 
ATOM     14  C   LIG    1      -23.065  79.919  34.394  0.00  0.00    +0.107 C 
BRANCH  11  15
ATOM     15  C   LIG    1      -21.410  80.682  37.248  0.00  0.00    +0.040 A 
ATOM     16  C   LIG    1      -21.042  80.473  38.701  0.00  0.00    +0.256 A 
ATOM     17  O   LIG    1      -21.247  79.385  39.236  0.00  0.00    -0.267 OA
ATOM     18  N   LIG    1      -20.447  81.556  39.366  0.00  0.00    -0.315 N 
ATOM     19  C   LIG    1      -20.074  81.386  40.763  0.00  0.00    +0.152 C 
ATOM     20  C   LIG    1      -20.227  82.773  38.748  0.00  0.00    +0.127 A 
ATOM     21  C   LIG    1      -20.562  82.953  37.469  0.00  0.00    +0.140 A 
ATOM     22  F   LIG    1      -20.336  84.131  36.855  0.00  0.00    -0.204 F 
ATOM     23  C   LIG    1      -21.144  81.888  36.707  0.00  0.00    +0.050 A 
ENDBRANCH  11  15
ENDBRANCH   4  10
BRANCH   1  26
ATOM     24  N   LIG    1      -22.277  76.642  31.098  0.00  0.00    -0.308 N 
ATOM     25  H   LIG    1      -22.241  76.778  32.108  0.00  0.00    +0.149 HD
ATOM     26  C   LIG    1      -21.121  76.905  30.410  0.00  0.00    +0.249 C 
ATOM     27  O   LIG    1      -21.028  76.798  29.180  0.00  0.00    -0.270 OA
BRANCH  24  29
ATOM     28  C   LIG    1      -24.445  77.473  30.274  0.00  0.00    +0.028 C 
ATOM     29  C   LIG    1      -23.526  76.267  30.463  0.00  0.00    +0.073 C 
BRANCH  29  30
ATOM     30  C   LIG    1      -24.195  75.215  31.312  0.00  0.00    +0.009 C 
ATOM     31  C   LIG    1      -23.359  74.163  31.999  0.00  0.00    +0.005 C 
ATOM     32  C   LIG    1      -24.260  73.773  30.864  0.00  0.00    +0.005 C 
ENDBRANCH  29  30
ENDBRANCH  24  29
ENDBRANCH   1  26
TORSDOF 5
ENDMDL
