MODEL 1
REMARK VINA RESULT:      -5.7      0.000      0.000
REMARK  Name = pdb/CHEMBL3675946.pdb
REMARK                            x       y       z     vdW  Elec       q    Type
REMARK                         _______ _______ _______ _____ _____    ______ ____
ROOT
ATOM      1  C   LIG    1      -18.801  85.497  12.998  0.00  0.00    +0.100 A 
ATOM      2  C   LIG    1      -18.986  84.179  13.379  0.00  0.00    +0.170 A 
ATOM      3  N   LIG    1      -19.933  83.571  14.167  0.00  0.00    -0.212 NA
ATOM      4  C   LIG    1      -19.915  82.256  14.253  0.00  0.00    +0.126 A 
ATOM      5  C   LIG    1      -18.871  81.429  13.535  0.00  0.00    +0.063 A 
ATOM      6  C   LIG    1      -17.952  82.076  12.814  0.00  0.00    +0.118 A 
ATOM      7  N   LIG    1      -17.988  83.454  12.726  0.00  0.00    -0.221 N 
ATOM      8  N   LIG    1      -17.149  84.246  12.022  0.00  0.00    -0.173 NA
ATOM      9  C   LIG    1      -17.656  85.468  12.175  0.00  0.00    +0.150 A 
ENDROOT
BRANCH   4  10
ATOM     10  N   LIG    1      -20.877  81.623  15.024  0.00  0.00    -0.308 N 
ATOM     11  C   LIG    1      -22.107  82.245  15.513  0.00  0.00    +0.107 C 
ATOM     12  C   LIG    1      -22.468  81.405  16.743  0.00  0.00    +0.029 C 
ATOM     13  C   LIG    1      -21.994  80.014  16.364  0.00  0.00    +0.021 C 
ATOM     14  C   LIG    1      -20.697  80.287  15.597  0.00  0.00    +0.107 C 
BRANCH  11  15
ATOM     15  C   LIG    1      -23.189  82.256  14.452  0.00  0.00    -0.006 A 
ATOM     16  C   LIG    1      -23.121  83.145  13.372  0.00  0.00    +0.046 A 
ATOM     17  C   LIG    1      -24.119  83.127  12.407  0.00  0.00    +0.142 A 
ATOM     18  F   LIG    1      -24.062  83.966  11.365  0.00  0.00    -0.204 F 
ATOM     19  C   LIG    1      -25.166  82.235  12.535  0.00  0.00    +0.149 A 
ATOM     20  N   LIG    1      -25.275  81.361  13.559  0.00  0.00    -0.260 NA
ATOM     21  C   LIG    1      -24.287  81.390  14.484  0.00  0.00    +0.116 A 
ENDBRANCH  11  15
ENDBRANCH   4  10
BRANCH   1  24
ATOM     22  N   LIG    1      -20.949  86.533  13.133  0.00  0.00    -0.304 N 
ATOM     23  H   LIG    1      -21.257  85.661  12.703  0.00  0.00    +0.150 HD
ATOM     24  C   LIG    1      -19.593  86.661  13.320  0.00  0.00    +0.250 C 
ATOM     25  O   LIG    1      -19.061  87.695  13.728  0.00  0.00    -0.270 OA
BRANCH  22  27
ATOM     26  C   LIG    1      -23.284  87.236  12.733  0.00  0.00    +0.034 C 
ATOM     27  C   LIG    1      -21.915  87.629  13.316  0.00  0.00    +0.057 C 
ATOM     28  C   LIG    1      -21.407  88.865  12.551  0.00  0.00    +0.034 C 
BRANCH  27  29
ATOM     29  C   LIG    1      -22.095  87.999  14.805  0.00  0.00    +0.238 C 
ATOM     30  F   LIG    1      -23.130  88.876  14.943  0.00  0.00    -0.247 F 
ENDBRANCH  27  29
ENDBRANCH  22  27
ENDBRANCH   1  24
TORSDOF 5
ENDMDL
MODEL 2
REMARK VINA RESULT:      -5.6     18.552     21.088
REMARK  Name = pdb/CHEMBL3675946.pdb
REMARK                            x       y       z     vdW  Elec       q    Type
REMARK                         _______ _______ _______ _____ _____    ______ ____
ROOT
ATOM      1  C   LIG    1      -24.259  77.911  32.200  0.00  0.00    +0.100 A 
ATOM      2  C   LIG    1      -23.127  77.566  31.482  0.00  0.00    +0.170 A 
ATOM      3  N   LIG    1      -21.791  77.581  31.805  0.00  0.00    -0.212 NA
ATOM      4  C   LIG    1      -20.940  77.074  30.936  0.00  0.00    +0.126 A 
ATOM      5  C   LIG    1      -21.401  76.515  29.607  0.00  0.00    +0.063 A 
ATOM      6  C   LIG    1      -22.706  76.562  29.332  0.00  0.00    +0.118 A 
ATOM      7  N   LIG    1      -23.588  77.089  30.255  0.00  0.00    -0.221 N 
ATOM      8  N   LIG    1      -24.932  77.184  30.135  0.00  0.00    -0.173 NA
ATOM      9  C   LIG    1      -25.327  77.660  31.314  0.00  0.00    +0.150 A 
ENDROOT
BRANCH   4  10
ATOM     10  N   LIG    1      -19.591  77.057  31.252  0.00  0.00    -0.308 N 
ATOM     11  C   LIG    1      -18.899  78.074  32.044  0.00  0.00    +0.107 C 
ATOM     12  C   LIG    1      -17.441  77.950  31.592  0.00  0.00    +0.029 C 
ATOM     13  C   LIG    1      -17.293  76.466  31.304  0.00  0.00    +0.021 C 
ATOM     14  C   LIG    1      -18.642  76.099  30.681  0.00  0.00    +0.107 C 
BRANCH  11  15
ATOM     15  C   LIG    1      -19.091  77.852  33.531  0.00  0.00    -0.006 A 
ATOM     16  C   LIG    1      -19.052  78.930  34.424  0.00  0.00    +0.046 A 
ATOM     17  C   LIG    1      -19.242  78.701  35.781  0.00  0.00    +0.142 A 
ATOM     18  F   LIG    1      -19.215  79.722  36.646  0.00  0.00    -0.204 F 
ATOM     19  C   LIG    1      -19.459  77.410  36.224  0.00  0.00    +0.149 A 
ATOM     20  N   LIG    1      -19.502  76.341  35.400  0.00  0.00    -0.260 NA
ATOM     21  C   LIG    1      -19.322  76.587  34.081  0.00  0.00    +0.116 A 
ENDBRANCH  11  15
ENDBRANCH   4  10
BRANCH   1  24
ATOM     22  N   LIG    1      -23.405  79.289  33.954  0.00  0.00    -0.304 N 
ATOM     23  H   LIG    1      -22.656  79.461  33.284  0.00  0.00    +0.150 HD
ATOM     24  C   LIG    1      -24.369  78.393  33.557  0.00  0.00    +0.250 C 
ATOM     25  O   LIG    1      -25.275  78.002  34.296  0.00  0.00    -0.270 OA
BRANCH  22  27
ATOM     26  C   LIG    1      -22.193  80.904  35.378  0.00  0.00    +0.034 C 
ATOM     27  C   LIG    1      -23.289  79.825  35.321  0.00  0.00    +0.057 C 
ATOM     28  C   LIG    1      -22.880  78.679  36.266  0.00  0.00    +0.034 C 
BRANCH  27  29
ATOM     29  C   LIG    1      -24.617  80.436  35.818  0.00  0.00    +0.238 C 
ATOM     30  F   LIG    1      -25.050  79.767  36.924  0.00  0.00    -0.247 F 
ENDBRANCH  27  29
ENDBRANCH  22  27
ENDBRANCH   1  24
TORSDOF 5
ENDMDL
MODEL 3
REMARK VINA RESULT:      -5.6     18.073     20.972
REMARK  Name = pdb/CHEMBL3675946.pdb
REMARK                            x       y       z     vdW  Elec       q    Type
REMARK                         _______ _______ _______ _____ _____    ______ ____
ROOT
ATOM      1  C   LIG    1      -20.650  79.797  35.046  0.00  0.00    +0.100 A 
ATOM      2  C   LIG    1      -21.977  79.475  34.822  0.00  0.00    +0.170 A 
ATOM      3  N   LIG    1      -22.574  78.417  34.179  0.00  0.00    -0.212 NA
ATOM      4  C   LIG    1      -23.887  78.323  34.231  0.00  0.00    +0.126 A 
ATOM      5  C   LIG    1      -24.729  79.355  34.950  0.00  0.00    +0.063 A 
ATOM      6  C   LIG    1      -24.098  80.381  35.525  0.00  0.00    +0.118 A 
ATOM      7  N   LIG    1      -22.720  80.464  35.469  0.00  0.00    -0.221 N 
ATOM      8  N   LIG    1      -21.939  81.422  36.018  0.00  0.00    -0.173 NA
ATOM      9  C   LIG    1      -20.699  81.003  35.776  0.00  0.00    +0.150 A 
ENDROOT
BRANCH   4  10
ATOM     10  N   LIG    1      -24.506  77.250  33.609  0.00  0.00    -0.308 N 
ATOM     11  C   LIG    1      -24.963  77.232  32.220  0.00  0.00    +0.107 C 
ATOM     12  C   LIG    1      -26.062  76.164  32.219  0.00  0.00    +0.029 C 
ATOM     13  C   LIG    1      -25.569  75.160  33.246  0.00  0.00    +0.021 C 
ATOM     14  C   LIG    1      -24.941  76.047  34.323  0.00  0.00    +0.107 C 
BRANCH  11  15
ATOM     15  C   LIG    1      -23.830  76.933  31.261  0.00  0.00    -0.006 A 
ATOM     16  C   LIG    1      -22.784  76.079  31.636  0.00  0.00    +0.046 A 
ATOM     17  C   LIG    1      -21.763  75.812  30.734  0.00  0.00    +0.142 A 
ATOM     18  F   LIG    1      -20.761  74.991  31.075  0.00  0.00    -0.204 F 
ATOM     19  C   LIG    1      -21.794  76.400  29.484  0.00  0.00    +0.149 A 
ATOM     20  N   LIG    1      -22.779  77.231  29.080  0.00  0.00    -0.260 NA
ATOM     21  C   LIG    1      -23.769  77.472  29.972  0.00  0.00    +0.116 A 
ENDBRANCH  11  15
ENDBRANCH   4  10
BRANCH   1  24
ATOM     22  N   LIG    1      -19.444  78.579  33.382  0.00  0.00    -0.304 N 
ATOM     23  H   LIG    1      -20.309  78.691  32.854  0.00  0.00    +0.150 HD
ATOM     24  C   LIG    1      -19.458  79.076  34.664  0.00  0.00    +0.250 C 
ATOM     25  O   LIG    1      -18.529  78.922  35.459  0.00  0.00    -0.270 OA
BRANCH  22  27
ATOM     26  C   LIG    1      -18.555  77.554  31.317  0.00  0.00    +0.034 C 
ATOM     27  C   LIG    1      -18.365  77.741  32.833  0.00  0.00    +0.057 C 
ATOM     28  C   LIG    1      -18.433  76.353  33.498  0.00  0.00    +0.034 C 
BRANCH  27  29
ATOM     29  C   LIG    1      -16.970  78.353  33.089  0.00  0.00    +0.238 C 
ATOM     30  F   LIG    1      -16.876  79.566  32.475  0.00  0.00    -0.247 F 
ENDBRANCH  27  29
ENDBRANCH  22  27
ENDBRANCH   1  24
TORSDOF 5
ENDMDL
MODEL 4
REMARK VINA RESULT:      -5.6     18.346     21.326
REMARK  Name = pdb/CHEMBL3675946.pdb
REMARK                            x       y       z     vdW  Elec       q    Type
REMARK                         _______ _______ _______ _____ _____    ______ ____
ROOT
ATOM      1  C   LIG    1      -22.872  76.810  30.677  0.00  0.00    +0.100 A 
ATOM      2  C   LIG    1      -21.849  77.423  31.380  0.00  0.00    +0.170 A 
ATOM      3  N   LIG    1      -21.803  78.004  32.624  0.00  0.00    -0.212 NA
ATOM      4  C   LIG    1      -20.633  78.407  33.076  0.00  0.00    +0.126 A 
ATOM      5  C   LIG    1      -19.373  78.267  32.250  0.00  0.00    +0.063 A 
ATOM      6  C   LIG    1      -19.483  77.729  31.033  0.00  0.00    +0.118 A 
ATOM      7  N   LIG    1      -20.715  77.304  30.575  0.00  0.00    -0.221 N 
ATOM      8  N   LIG    1      -20.983  76.722  29.384  0.00  0.00    -0.173 NA
ATOM      9  C   LIG    1      -22.276  76.411  29.463  0.00  0.00    +0.150 A 
ENDROOT
BRANCH   4  10
ATOM     10  N   LIG    1      -20.563  78.973  34.339  0.00  0.00    -0.308 N 
ATOM     11  C   LIG    1      -21.433  80.039  34.833  0.00  0.00    +0.107 C 
ATOM     12  C   LIG    1      -20.600  80.700  35.936  0.00  0.00    +0.029 C 
ATOM     13  C   LIG    1      -19.815  79.538  36.519  0.00  0.00    +0.021 C 
ATOM     14  C   LIG    1      -19.482  78.694  35.287  0.00  0.00    +0.107 C 
BRANCH  11  15
ATOM     15  C   LIG    1      -22.760  79.496  35.322  0.00  0.00    -0.006 A 
ATOM     16  C   LIG    1      -22.824  78.274  36.003  0.00  0.00    +0.046 A 
ATOM     17  C   LIG    1      -24.052  77.804  36.452  0.00  0.00    +0.142 A 
ATOM     18  F   LIG    1      -24.126  76.641  37.111  0.00  0.00    -0.204 F 
ATOM     19  C   LIG    1      -25.190  78.550  36.210  0.00  0.00    +0.149 A 
ATOM     20  N   LIG    1      -25.177  79.731  35.556  0.00  0.00    -0.260 NA
ATOM     21  C   LIG    1      -23.969  80.175  35.134  0.00  0.00    +0.116 A 
ENDBRANCH  11  15
ENDBRANCH   4  10
BRANCH   1  24
ATOM     22  N   LIG    1      -24.429  76.151  32.365  0.00  0.00    -0.304 N 
ATOM     23  H   LIG    1      -23.580  75.951  32.893  0.00  0.00    +0.150 HD
ATOM     24  C   LIG    1      -24.242  76.581  31.073  0.00  0.00    +0.250 C 
ATOM     25  O   LIG    1      -25.168  76.759  30.279  0.00  0.00    -0.270 OA
BRANCH  22  27
ATOM     26  C   LIG    1      -26.605  77.030  33.137  0.00  0.00    +0.034 C 
ATOM     27  C   LIG    1      -25.736  75.777  32.931  0.00  0.00    +0.057 C 
ATOM     28  C   LIG    1      -25.507  75.122  34.306  0.00  0.00    +0.034 C 
BRANCH  27  29
ATOM     29  C   LIG    1      -26.497  74.786  32.023  0.00  0.00    +0.238 C 
ATOM     30  F   LIG    1      -27.701  75.316  31.665  0.00  0.00    -0.247 F 
ENDBRANCH  27  29
ENDBRANCH  22  27
ENDBRANCH   1  24
TORSDOF 5
ENDMDL
MODEL 5
REMARK VINA RESULT:      -5.6     20.764     23.249
REMARK  Name = pdb/CHEMBL3675946.pdb
REMARK                            x       y       z     vdW  Elec       q    Type
REMARK                         _______ _______ _______ _____ _____    ______ ____
ROOT
ATOM      1  C   LIG    1      -37.794  76.137  25.567  0.00  0.00    +0.100 A 
ATOM      2  C   LIG    1      -38.298  74.901  25.199  0.00  0.00    +0.170 A 
ATOM      3  N   LIG    1      -37.940  73.620  25.543  0.00  0.00    -0.212 NA
ATOM      4  C   LIG    1      -38.697  72.630  25.114  0.00  0.00    +0.126 A 
ATOM      5  C   LIG    1      -39.910  72.879  24.244  0.00  0.00    +0.063 A 
ATOM      6  C   LIG    1      -40.188  74.142  23.911  0.00  0.00    +0.118 A 
ATOM      7  N   LIG    1      -39.391  75.170  24.374  0.00  0.00    -0.221 N 
ATOM      8  N   LIG    1      -39.554  76.493  24.145  0.00  0.00    -0.173 NA
ATOM      9  C   LIG    1      -38.603  77.066  24.881  0.00  0.00    +0.150 A 
ENDROOT
BRANCH   4  10
ATOM     10  N   LIG    1      -38.367  71.332  25.469  0.00  0.00    -0.308 N 
ATOM     11  C   LIG    1      -39.099  70.135  25.058  0.00  0.00    +0.107 C 
ATOM     12  C   LIG    1      -38.755  69.113  26.147  0.00  0.00    +0.029 C 
ATOM     13  C   LIG    1      -37.331  69.477  26.526  0.00  0.00    +0.021 C 
ATOM     14  C   LIG    1      -37.334  71.006  26.455  0.00  0.00    +0.107 C 
BRANCH  11  15
ATOM     15  C   LIG    1      -38.703  69.688  23.666  0.00  0.00    -0.006 A 
ATOM     16  C   LIG    1      -39.678  69.318  22.730  0.00  0.00    +0.046 A 
ATOM     17  C   LIG    1      -39.290  68.923  21.457  0.00  0.00    +0.142 A 
ATOM     18  F   LIG    1      -40.212  68.576  20.550  0.00  0.00    -0.204 F 
ATOM     19  C   LIG    1      -37.946  68.895  21.139  0.00  0.00    +0.149 A 
ATOM     20  N   LIG    1      -36.971  69.240  22.008  0.00  0.00    -0.260 NA
ATOM     21  C   LIG    1      -37.372  69.629  23.241  0.00  0.00    +0.116 A 
ENDBRANCH  11  15
ENDBRANCH   4  10
BRANCH   1  24
ATOM     22  N   LIG    1      -35.947  75.381  26.880  0.00  0.00    -0.304 N 
ATOM     23  H   LIG    1      -36.271  74.463  26.580  0.00  0.00    +0.150 HD
ATOM     24  C   LIG    1      -36.709  76.449  26.468  0.00  0.00    +0.250 C 
ATOM     25  O   LIG    1      -36.506  77.607  26.838  0.00  0.00    -0.270 OA
BRANCH  22  27
ATOM     26  C   LIG    1      -34.151  74.117  28.011  0.00  0.00    +0.034 C 
ATOM     27  C   LIG    1      -34.856  75.477  27.865  0.00  0.00    +0.057 C 
ATOM     28  C   LIG    1      -35.460  75.851  29.232  0.00  0.00    +0.034 C 
BRANCH  27  29
ATOM     29  C   LIG    1      -33.810  76.542  27.470  0.00  0.00    +0.238 C 
ATOM     30  F   LIG    1      -32.566  76.132  27.848  0.00  0.00    -0.247 F 
ENDBRANCH  27  29
ENDBRANCH  22  27
ENDBRANCH   1  24
TORSDOF 5
ENDMDL
MODEL 6
REMARK VINA RESULT:      -5.5     18.084     21.586
REMARK  Name = pdb/CHEMBL3675946.pdb
REMARK                            x       y       z     vdW  Elec       q    Type
REMARK                         _______ _______ _______ _____ _____    ______ ____
ROOT
ATOM      1  C   LIG    1      -30.817  67.336  18.481  0.00  0.00    +0.100 A 
ATOM      2  C   LIG    1      -31.996  66.677  18.783  0.00  0.00    +0.170 A 
ATOM      3  N   LIG    1      -33.283  67.125  18.962  0.00  0.00    -0.212 NA
ATOM      4  C   LIG    1      -34.233  66.226  19.128  0.00  0.00    +0.126 A 
ATOM      5  C   LIG    1      -33.928  64.744  19.152  0.00  0.00    +0.063 A 
ATOM      6  C   LIG    1      -32.654  64.369  19.011  0.00  0.00    +0.118 A 
ATOM      7  N   LIG    1      -31.670  65.321  18.830  0.00  0.00    -0.221 N 
ATOM      8  N   LIG    1      -30.348  65.100  18.650  0.00  0.00    -0.173 NA
ATOM      9  C   LIG    1      -29.848  66.313  18.422  0.00  0.00    +0.150 A 
ENDROOT
BRANCH   4  10
ATOM     10  N   LIG    1      -35.541  66.657  19.286  0.00  0.00    -0.308 N 
ATOM     11  C   LIG    1      -36.463  66.186  20.319  0.00  0.00    +0.107 C 
ATOM     12  C   LIG    1      -37.845  66.452  19.714  0.00  0.00    +0.029 C 
ATOM     13  C   LIG    1      -37.629  67.716  18.901  0.00  0.00    +0.021 C 
ATOM     14  C   LIG    1      -36.227  67.519  18.320  0.00  0.00    +0.107 C 
BRANCH  11  15
ATOM     15  C   LIG    1      -36.235  66.896  21.638  0.00  0.00    -0.006 A 
ATOM     16  C   LIG    1      -37.318  67.254  22.452  0.00  0.00    +0.046 A 
ATOM     17  C   LIG    1      -37.081  67.893  23.662  0.00  0.00    +0.142 A 
ATOM     18  F   LIG    1      -38.105  68.235  24.453  0.00  0.00    -0.204 F 
ATOM     19  C   LIG    1      -35.780  68.170  24.037  0.00  0.00    +0.149 A 
ATOM     20  N   LIG    1      -34.707  67.846  23.284  0.00  0.00    -0.260 NA
ATOM     21  C   LIG    1      -34.959  67.216  22.112  0.00  0.00    +0.116 A 
ENDBRANCH  11  15
ENDBRANCH   4  10
BRANCH   1  24
ATOM     22  N   LIG    1      -31.242  69.277  17.155  0.00  0.00    -0.304 N 
ATOM     23  H   LIG    1      -31.751  68.613  16.572  0.00  0.00    +0.150 HD
ATOM     24  C   LIG    1      -30.592  68.743  18.243  0.00  0.00    +0.250 C 
ATOM     25  O   LIG    1      -29.851  69.398  18.977  0.00  0.00    -0.270 OA
BRANCH  22  27
ATOM     26  C   LIG    1      -31.633  70.822  15.268  0.00  0.00    +0.034 C 
ATOM     27  C   LIG    1      -31.072  70.664  16.692  0.00  0.00    +0.057 C 
ATOM     28  C   LIG    1      -29.567  70.988  16.651  0.00  0.00    +0.034 C 
BRANCH  27  29
ATOM     29  C   LIG    1      -31.778  71.676  17.621  0.00  0.00    +0.238 C 
ATOM     30  F   LIG    1      -30.858  72.515  18.177  0.00  0.00    -0.247 F 
ENDBRANCH  27  29
ENDBRANCH  22  27
ENDBRANCH   1  24
TORSDOF 5
ENDMDL
MODEL 7
REMARK VINA RESULT:      -5.4     14.535     17.001
REMARK  Name = pdb/CHEMBL3675946.pdb
REMARK                            x       y       z     vdW  Elec       q    Type
REMARK                         _______ _______ _______ _____ _____    ______ ____
ROOT
ATOM      1  C   LIG    1      -31.973  93.783  22.587  0.00  0.00    +0.100 A 
ATOM      2  C   LIG    1      -32.420  93.294  21.372  0.00  0.00    +0.170 A 
ATOM      3  N   LIG    1      -33.529  92.562  21.023  0.00  0.00    -0.212 NA
ATOM      4  C   LIG    1      -33.748  92.343  19.743  0.00  0.00    +0.126 A 
ATOM      5  C   LIG    1      -32.800  92.849  18.678  0.00  0.00    +0.063 A 
ATOM      6  C   LIG    1      -31.718  93.522  19.077  0.00  0.00    +0.118 A 
ATOM      7  N   LIG    1      -31.505  93.752  20.422  0.00  0.00    -0.221 N 
ATOM      8  N   LIG    1      -30.478  94.432  20.979  0.00  0.00    -0.173 NA
ATOM      9  C   LIG    1      -30.778  94.462  22.276  0.00  0.00    +0.150 A 
ENDROOT
BRANCH   4  10
ATOM     10  N   LIG    1      -34.875  91.627  19.369  0.00  0.00    -0.308 N 
ATOM     11  C   LIG    1      -35.434  91.582  18.019  0.00  0.00    +0.107 C 
ATOM     12  C   LIG    1      -36.906  91.224  18.253  0.00  0.00    +0.029 C 
ATOM     13  C   LIG    1      -36.852  90.319  19.471  0.00  0.00    +0.021 C 
ATOM     14  C   LIG    1      -35.757  90.957  20.328  0.00  0.00    +0.107 C 
BRANCH  11  15
ATOM     15  C   LIG    1      -34.703  90.586  17.143  0.00  0.00    -0.006 A 
ATOM     16  C   LIG    1      -34.012  89.508  17.711  0.00  0.00    +0.046 A 
ATOM     17  C   LIG    1      -33.360  88.602  16.885  0.00  0.00    +0.142 A 
ATOM     18  F   LIG    1      -32.702  87.562  17.414  0.00  0.00    -0.204 F 
ATOM     19  C   LIG    1      -33.398  88.786  15.516  0.00  0.00    +0.149 A 
ATOM     20  N   LIG    1      -34.049  89.811  14.925  0.00  0.00    -0.260 NA
ATOM     21  C   LIG    1      -34.685  90.678  15.748  0.00  0.00    +0.116 A 
ENDBRANCH  11  15
ENDBRANCH   4  10
BRANCH   1  24
ATOM     22  N   LIG    1      -33.866  93.189  23.919  0.00  0.00    -0.304 N 
ATOM     23  H   LIG    1      -34.300  93.038  23.009  0.00  0.00    +0.150 HD
ATOM     24  C   LIG    1      -32.578  93.672  23.894  0.00  0.00    +0.250 C 
ATOM     25  O   LIG    1      -31.961  94.004  24.908  0.00  0.00    -0.270 OA
BRANCH  22  27
ATOM     26  C   LIG    1      -36.084  92.545  24.794  0.00  0.00    +0.034 C 
ATOM     27  C   LIG    1      -34.686  93.087  25.137  0.00  0.00    +0.057 C 
ATOM     28  C   LIG    1      -34.854  94.496  25.737  0.00  0.00    +0.034 C 
BRANCH  27  29
ATOM     29  C   LIG    1      -34.039  92.166  26.195  0.00  0.00    +0.238 C 
ATOM     30  F   LIG    1      -34.756  91.011  26.305  0.00  0.00    -0.247 F 
ENDBRANCH  27  29
ENDBRANCH  22  27
ENDBRANCH   1  24
TORSDOF 5
ENDMDL
MODEL 8
REMARK VINA RESULT:      -5.4      2.417      5.373
REMARK  Name = pdb/CHEMBL3675946.pdb
REMARK                            x       y       z     vdW  Elec       q    Type
REMARK                         _______ _______ _______ _____ _____    ______ ____
ROOT
ATOM      1  C   LIG    1      -19.073  82.327  14.153  0.00  0.00    +0.100 A 
ATOM      2  C   LIG    1      -19.181  83.657  13.784  0.00  0.00    +0.170 A 
ATOM      3  N   LIG    1      -20.203  84.568  13.907  0.00  0.00    -0.212 NA
ATOM      4  C   LIG    1      -19.963  85.816  13.560  0.00  0.00    +0.126 A 
ATOM      5  C   LIG    1      -18.617  86.243  13.014  0.00  0.00    +0.063 A 
ATOM      6  C   LIG    1      -17.674  85.308  12.881  0.00  0.00    +0.118 A 
ATOM      7  N   LIG    1      -17.937  84.004  13.256  0.00  0.00    -0.221 N 
ATOM      8  N   LIG    1      -17.085  82.956  13.205  0.00  0.00    -0.173 NA
ATOM      9  C   LIG    1      -17.769  81.959  13.763  0.00  0.00    +0.150 A 
ENDROOT
BRANCH   4  10
ATOM     10  N   LIG    1      -20.972  86.755  13.699  0.00  0.00    -0.308 N 
ATOM     11  C   LIG    1      -21.578  87.508  12.601  0.00  0.00    +0.107 C 
ATOM     12  C   LIG    1      -22.124  88.765  13.288  0.00  0.00    +0.029 C 
ATOM     13  C   LIG    1      -22.539  88.258  14.658  0.00  0.00    +0.021 C 
ATOM     14  C   LIG    1      -21.444  87.243  14.997  0.00  0.00    +0.107 C 
BRANCH  11  15
ATOM     15  C   LIG    1      -22.642  86.700  11.888  0.00  0.00    -0.006 A 
ATOM     16  C   LIG    1      -23.026  87.022  10.580  0.00  0.00    +0.046 A 
ATOM     17  C   LIG    1      -23.996  86.257   9.944  0.00  0.00    +0.142 A 
ATOM     18  F   LIG    1      -24.367  86.548   8.691  0.00  0.00    -0.204 F 
ATOM     19  C   LIG    1      -24.569  85.196  10.618  0.00  0.00    +0.149 A 
ATOM     20  N   LIG    1      -24.233  84.851  11.880  0.00  0.00    -0.260 NA
ATOM     21  C   LIG    1      -23.280  85.604  12.478  0.00  0.00    +0.116 A 
ENDBRANCH  11  15
ENDBRANCH   4  10
BRANCH   1  24
ATOM     22  N   LIG    1      -21.360  81.784  14.581  0.00  0.00    -0.304 N 
ATOM     23  H   LIG    1      -21.532  82.627  14.033  0.00  0.00    +0.150 HD
ATOM     24  C   LIG    1      -20.039  81.481  14.815  0.00  0.00    +0.250 C 
ATOM     25  O   LIG    1      -19.676  80.559  15.547  0.00  0.00    -0.270 OA
BRANCH  22  27
ATOM     26  C   LIG    1      -22.538  79.624  14.804  0.00  0.00    +0.034 C 
ATOM     27  C   LIG    1      -22.491  81.102  15.231  0.00  0.00    +0.057 C 
ATOM     28  C   LIG    1      -23.800  81.774  14.773  0.00  0.00    +0.034 C 
BRANCH  27  29
ATOM     29  C   LIG    1      -22.403  81.174  16.771  0.00  0.00    +0.238 C 
ATOM     30  F   LIG    1      -22.327  82.475  17.171  0.00  0.00    -0.247 F 
ENDBRANCH  27  29
ENDBRANCH  22  27
ENDBRANCH   1  24
TORSDOF 5
ENDMDL
MODEL 9
REMARK VINA RESULT:      -5.3      3.192      7.330
REMARK  Name = pdb/CHEMBL3675946.pdb
REMARK                            x       y       z     vdW  Elec       q    Type
REMARK                         _______ _______ _______ _____ _____    ______ ____
ROOT
ATOM      1  C   LIG    1      -23.928  81.816  12.543  0.00  0.00    +0.100 A 
ATOM      2  C   LIG    1      -23.569  83.113  12.218  0.00  0.00    +0.170 A 
ATOM      3  N   LIG    1      -23.134  84.168  12.983  0.00  0.00    -0.212 NA
ATOM      4  C   LIG    1      -22.749  85.265  12.362  0.00  0.00    +0.126 A 
ATOM      5  C   LIG    1      -22.806  85.384  10.854  0.00  0.00    +0.063 A 
ATOM      6  C   LIG    1      -23.273  84.340  10.165  0.00  0.00    +0.118 A 
ATOM      7  N   LIG    1      -23.665  83.194  10.828  0.00  0.00    -0.221 N 
ATOM      8  N   LIG    1      -24.134  82.053  10.274  0.00  0.00    -0.173 NA
ATOM      9  C   LIG    1      -24.270  81.226  11.309  0.00  0.00    +0.150 A 
ENDROOT
BRANCH   4  10
ATOM     10  N   LIG    1      -22.284  86.332  13.114  0.00  0.00    -0.308 N 
ATOM     11  C   LIG    1      -21.291  86.239  14.183  0.00  0.00    +0.107 C 
ATOM     12  C   LIG    1      -21.586  87.466  15.053  0.00  0.00    +0.029 C 
ATOM     13  C   LIG    1      -22.047  88.502  14.044  0.00  0.00    +0.021 C 
ATOM     14  C   LIG    1      -22.864  87.676  13.049  0.00  0.00    +0.107 C 
BRANCH  11  15
ATOM     15  C   LIG    1      -19.879  86.213  13.635  0.00  0.00    -0.006 A 
ATOM     16  C   LIG    1      -19.188  85.002  13.500  0.00  0.00    +0.046 A 
ATOM     17  C   LIG    1      -17.899  85.004  12.983  0.00  0.00    +0.142 A 
ATOM     18  F   LIG    1      -17.230  83.853  12.840  0.00  0.00    -0.204 F 
ATOM     19  C   LIG    1      -17.319  86.204  12.620  0.00  0.00    +0.149 A 
ATOM     20  N   LIG    1      -17.946  87.395  12.734  0.00  0.00    -0.260 NA
ATOM     21  C   LIG    1      -19.204  87.370  13.233  0.00  0.00    +0.116 A 
ENDBRANCH  11  15
ENDBRANCH   4  10
BRANCH   1  24
ATOM     22  N   LIG    1      -22.822  80.420  14.135  0.00  0.00    -0.304 N 
ATOM     23  H   LIG    1      -22.136  80.324  13.386  0.00  0.00    +0.150 HD
ATOM     24  C   LIG    1      -23.937  81.167  13.833  0.00  0.00    +0.250 C 
ATOM     25  O   LIG    1      -24.899  81.283  14.594  0.00  0.00    -0.270 OA
BRANCH  22  27
ATOM     26  C   LIG    1      -22.487  80.522  16.580  0.00  0.00    +0.034 C 
ATOM     27  C   LIG    1      -22.677  79.609  15.356  0.00  0.00    +0.057 C 
ATOM     28  C   LIG    1      -21.420  78.730  15.215  0.00  0.00    +0.034 C 
BRANCH  27  29
ATOM     29  C   LIG    1      -23.902  78.699  15.596  0.00  0.00    +0.238 C 
ATOM     30  F   LIG    1      -23.511  77.393  15.620  0.00  0.00    -0.247 F 
ENDBRANCH  27  29
ENDBRANCH  22  27
ENDBRANCH   1  24
TORSDOF 5
ENDMDL
