MODEL 1
REMARK VINA RESULT:      -6.8      0.000      0.000
REMARK  Name = pdb/CHEMBL3666395.pdb
REMARK                            x       y       z     vdW  Elec       q    Type
REMARK                         _______ _______ _______ _____ _____    ______ ____
ROOT
ATOM      1  C   LIG    1      -20.672  76.905  30.726  0.00  0.00    +0.042 A 
ATOM      2  C   LIG    1      -20.891  77.879  31.713  0.00  0.00    +0.038 A 
ATOM      3  C   LIG    1      -19.817  78.348  32.486  0.00  0.00    +0.053 A 
ATOM      4  C   LIG    1      -18.561  77.800  32.226  0.00  0.00    +0.134 A 
ATOM      5  N   LIG    1      -18.324  76.848  31.289  0.00  0.00    -0.261 NA
ATOM      6  C   LIG    1      -19.384  76.417  30.573  0.00  0.00    +0.122 A 
ENDROOT
BRANCH   3   7
ATOM      7  N   LIG    1      -20.071  79.338  33.460  0.00  0.00    -0.280 N 
ATOM      8  H   LIG    1      -19.889  80.299  33.187  0.00  0.00    +0.155 HD
ATOM      9  C   LIG    1      -20.455  79.134  34.775  0.00  0.00    +0.250 C 
ATOM     10  O   LIG    1      -20.633  78.043  35.292  0.00  0.00    -0.270 OA
BRANCH   9  11
ATOM     11  C   LIG    1      -20.597  80.370  35.551  0.00  0.00    +0.064 A 
ATOM     12  C   LIG    1      -19.922  80.682  36.780  0.00  0.00    +0.031 A 
ATOM     13  C   LIG    1      -18.983  80.042  37.610  0.00  0.00    +0.017 A 
ATOM     14  C   LIG    1      -18.561  80.704  38.772  0.00  0.00    -0.032 A 
ATOM     15  C   LIG    1      -17.598  80.050  39.713  0.00  0.00    +0.045 C 
ATOM     16  C   LIG    1      -19.088  81.967  39.036  0.00  0.00    +0.116 A 
ATOM     17  N   LIG    1      -19.981  82.635  38.269  0.00  0.00    -0.237 NA
ATOM     18  C   LIG    1      -20.353  81.943  37.178  0.00  0.00    +0.139 A 
ATOM     19  N   LIG    1      -21.258  82.389  36.260  0.00  0.00    -0.345 N 
ATOM     20  H   LIG    1      -21.732  83.278  36.339  0.00  0.00    +0.167 HD
ATOM     21  C   LIG    1      -21.424  81.451  35.273  0.00  0.00    +0.098 A 
ENDBRANCH   9  11
ENDBRANCH   3   7
BRANCH   1  22
ATOM     22  C   LIG    1      -21.790  76.355  29.919  0.00  0.00    +0.197 C 
ATOM     23  O   LIG    1      -21.745  76.487  28.697  0.00  0.00    -0.287 OA
BRANCH  22  31
ATOM     24  N   LIG    1      -24.273  74.243  31.627  0.00  0.00    -0.329 N 
ATOM     25  C   LIG    1      -25.003  75.396  31.486  0.00  0.00    +0.145 A 
ATOM     26  N   LIG    1      -26.269  75.581  31.900  0.00  0.00    -0.218 NA
ATOM     27  C   LIG    1      -26.715  76.816  31.621  0.00  0.00    +0.223 A 
ATOM     28  N   LIG    1      -26.052  77.819  31.015  0.00  0.00    -0.243 NA
ATOM     29  C   LIG    1      -24.781  77.581  30.617  0.00  0.00    +0.124 A 
ATOM     30  C   LIG    1      -24.204  76.332  30.840  0.00  0.00    +0.048 A 
ATOM     31  C   LIG    1      -22.937  75.723  30.580  0.00  0.00    +0.051 A 
ATOM     32  C   LIG    1      -23.034  74.417  31.044  0.00  0.00    +0.100 A 
BRANCH  24  34
ATOM     33  C   LIG    1      -25.566  72.133  31.344  0.00  0.00    +0.030 C 
ATOM     34  C   LIG    1      -24.723  73.011  32.273  0.00  0.00    +0.083 C 
ATOM     35  C   LIG    1      -23.563  72.230  32.887  0.00  0.00    +0.030 C 
ENDBRANCH  24  34
ENDBRANCH  22  31
ENDBRANCH   1  22
TORSDOF 5
ENDMDL
MODEL 2
REMARK VINA RESULT:      -6.5     11.483     17.858
REMARK  Name = pdb/CHEMBL3666395.pdb
REMARK                            x       y       z     vdW  Elec       q    Type
REMARK                         _______ _______ _______ _____ _____    ______ ____
ROOT
ATOM      1  C   LIG    1      -34.196  77.133  27.891  0.00  0.00    +0.042 A 
ATOM      2  C   LIG    1      -35.087  76.290  27.205  0.00  0.00    +0.038 A 
ATOM      3  C   LIG    1      -36.467  76.539  27.255  0.00  0.00    +0.053 A 
ATOM      4  C   LIG    1      -36.888  77.635  28.008  0.00  0.00    +0.134 A 
ATOM      5  N   LIG    1      -36.051  78.456  28.692  0.00  0.00    -0.261 NA
ATOM      6  C   LIG    1      -34.732  78.178  28.626  0.00  0.00    +0.122 A 
ENDROOT
BRANCH   3   7
ATOM      7  N   LIG    1      -37.331  75.681  26.542  0.00  0.00    -0.280 N 
ATOM      8  H   LIG    1      -37.716  74.894  27.058  0.00  0.00    +0.155 HD
ATOM      9  C   LIG    1      -37.641  75.742  25.193  0.00  0.00    +0.250 C 
ATOM     10  O   LIG    1      -37.199  76.568  24.410  0.00  0.00    -0.270 OA
BRANCH   9  11
ATOM     11  C   LIG    1      -38.539  74.675  24.740  0.00  0.00    +0.064 A 
ATOM     12  C   LIG    1      -39.855  74.850  24.190  0.00  0.00    +0.031 A 
ATOM     13  C   LIG    1      -40.689  75.943  23.888  0.00  0.00    +0.017 A 
ATOM     14  C   LIG    1      -41.954  75.683  23.344  0.00  0.00    -0.032 A 
ATOM     15  C   LIG    1      -42.899  76.806  23.046  0.00  0.00    +0.045 C 
ATOM     16  C   LIG    1      -42.313  74.356  23.120  0.00  0.00    +0.116 A 
ATOM     17  N   LIG    1      -41.549  73.268  23.378  0.00  0.00    -0.237 NA
ATOM     18  C   LIG    1      -40.355  73.584  23.908  0.00  0.00    +0.139 A 
ATOM     19  N   LIG    1      -39.413  72.666  24.275  0.00  0.00    -0.345 N 
ATOM     20  H   LIG    1      -39.551  71.669  24.188  0.00  0.00    +0.167 HD
ATOM     21  C   LIG    1      -38.312  73.305  24.787  0.00  0.00    +0.098 A 
ENDBRANCH   9  11
ENDBRANCH   3   7
BRANCH   1  22
ATOM     22  C   LIG    1      -32.735  76.875  27.896  0.00  0.00    +0.197 C 
ATOM     23  O   LIG    1      -32.058  77.351  26.986  0.00  0.00    -0.287 OA
BRANCH  22  31
ATOM     24  N   LIG    1      -30.918  75.305  30.684  0.00  0.00    -0.329 N 
ATOM     25  C   LIG    1      -31.638  74.226  30.236  0.00  0.00    +0.145 A 
ATOM     26  N   LIG    1      -31.605  72.987  30.757  0.00  0.00    -0.218 NA
ATOM     27  C   LIG    1      -32.419  72.143  30.103  0.00  0.00    +0.223 A 
ATOM     28  N   LIG    1      -33.219  72.411  29.053  0.00  0.00    -0.243 NA
ATOM     29  C   LIG    1      -33.215  73.673  28.566  0.00  0.00    +0.124 A 
ATOM     30  C   LIG    1      -32.402  74.642  29.153  0.00  0.00    +0.048 A 
ATOM     31  C   LIG    1      -32.137  76.031  28.935  0.00  0.00    +0.051 A 
ATOM     32  C   LIG    1      -31.181  76.392  29.877  0.00  0.00    +0.100 A 
BRANCH  24  34
ATOM     33  C   LIG    1      -28.831  76.285  31.627  0.00  0.00    +0.030 C 
ATOM     34  C   LIG    1      -30.000  75.316  31.823  0.00  0.00    +0.083 C 
ATOM     35  C   LIG    1      -30.727  75.570  33.142  0.00  0.00    +0.030 C 
ENDBRANCH  24  34
ENDBRANCH  22  31
ENDBRANCH   1  22
TORSDOF 5
ENDMDL
MODEL 3
REMARK VINA RESULT:      -6.5     13.425     18.024
REMARK  Name = pdb/CHEMBL3666395.pdb
REMARK                            x       y       z     vdW  Elec       q    Type
REMARK                         _______ _______ _______ _____ _____    ______ ____
ROOT
ATOM      1  C   LIG    1      -38.999  74.328  25.427  0.00  0.00    +0.042 A 
ATOM      2  C   LIG    1      -37.775  74.689  26.013  0.00  0.00    +0.038 A 
ATOM      3  C   LIG    1      -37.190  75.928  25.708  0.00  0.00    +0.053 A 
ATOM      4  C   LIG    1      -37.873  76.749  24.812  0.00  0.00    +0.134 A 
ATOM      5  N   LIG    1      -39.049  76.419  24.220  0.00  0.00    -0.261 NA
ATOM      6  C   LIG    1      -39.574  75.215  24.532  0.00  0.00    +0.122 A 
ENDROOT
BRANCH   3   7
ATOM      7  N   LIG    1      -35.967  76.265  26.327  0.00  0.00    -0.280 N 
ATOM      8  H   LIG    1      -35.140  75.782  25.989  0.00  0.00    +0.155 HD
ATOM      9  C   LIG    1      -35.785  77.116  27.405  0.00  0.00    +0.250 C 
ATOM     10  O   LIG    1      -36.678  77.710  27.987  0.00  0.00    -0.270 OA
BRANCH   9  11
ATOM     11  C   LIG    1      -34.391  77.225  27.846  0.00  0.00    +0.064 A 
ATOM     12  C   LIG    1      -33.584  76.163  28.379  0.00  0.00    +0.031 A 
ATOM     13  C   LIG    1      -33.761  74.792  28.642  0.00  0.00    +0.017 A 
ATOM     14  C   LIG    1      -32.688  74.076  29.191  0.00  0.00    -0.032 A 
ATOM     15  C   LIG    1      -32.837  72.625  29.532  0.00  0.00    +0.045 C 
ATOM     16  C   LIG    1      -31.500  74.760  29.438  0.00  0.00    +0.116 A 
ATOM     17  N   LIG    1      -31.269  76.071  29.194  0.00  0.00    -0.237 NA
ATOM     18  C   LIG    1      -32.338  76.702  28.678  0.00  0.00    +0.139 A 
ATOM     19  N   LIG    1      -32.366  78.030  28.366  0.00  0.00    -0.345 N 
ATOM     20  H   LIG    1      -31.581  78.649  28.513  0.00  0.00    +0.167 HD
ATOM     21  C   LIG    1      -33.600  78.368  27.868  0.00  0.00    +0.098 A 
ENDBRANCH   9  11
ENDBRANCH   3   7
BRANCH   1  22
ATOM     22  C   LIG    1      -39.625  73.009  25.692  0.00  0.00    +0.197 C 
ATOM     23  O   LIG    1      -39.985  72.756  26.841  0.00  0.00    -0.287 OA
BRANCH  22  31
ATOM     24  N   LIG    1      -40.559  70.780  22.917  0.00  0.00    -0.329 N 
ATOM     25  C   LIG    1      -39.274  70.352  23.139  0.00  0.00    +0.145 A 
ATOM     26  N   LIG    1      -38.641  69.379  22.461  0.00  0.00    -0.218 NA
ATOM     27  C   LIG    1      -37.389  69.186  22.907  0.00  0.00    +0.223 A 
ATOM     28  N   LIG    1      -36.753  69.842  23.897  0.00  0.00    -0.243 NA
ATOM     29  C   LIG    1      -37.435  70.811  24.548  0.00  0.00    +0.124 A 
ATOM     30  C   LIG    1      -38.749  71.101  24.185  0.00  0.00    +0.048 A 
ATOM     31  C   LIG    1      -39.756  72.022  24.615  0.00  0.00    +0.051 A 
ATOM     32  C   LIG    1      -40.875  71.762  23.834  0.00  0.00    +0.100 A 
BRANCH  24  34
ATOM     33  C   LIG    1      -42.281  69.066  22.366  0.00  0.00    +0.030 C 
ATOM     34  C   LIG    1      -41.470  70.275  21.891  0.00  0.00    +0.083 C 
ATOM     35  C   LIG    1      -42.373  71.375  21.336  0.00  0.00    +0.030 C 
ENDBRANCH  24  34
ENDBRANCH  22  31
ENDBRANCH   1  22
TORSDOF 5
ENDMDL
MODEL 4
REMARK VINA RESULT:      -6.3     12.939     17.729
REMARK  Name = pdb/CHEMBL3666395.pdb
REMARK                            x       y       z     vdW  Elec       q    Type
REMARK                         _______ _______ _______ _____ _____    ______ ____
ROOT
ATOM      1  C   LIG    1      -39.099  72.099  24.368  0.00  0.00    +0.042 A 
ATOM      2  C   LIG    1      -38.111  72.893  24.973  0.00  0.00    +0.038 A 
ATOM      3  C   LIG    1      -38.277  74.285  25.044  0.00  0.00    +0.053 A 
ATOM      4  C   LIG    1      -39.441  74.815  24.488  0.00  0.00    +0.134 A 
ATOM      5  N   LIG    1      -40.404  74.073  23.885  0.00  0.00    -0.261 NA
ATOM      6  C   LIG    1      -40.203  72.739  23.829  0.00  0.00    +0.122 A 
ENDROOT
BRANCH   3   7
ATOM      7  N   LIG    1      -37.271  75.051  25.672  0.00  0.00    -0.280 N 
ATOM      8  H   LIG    1      -36.596  75.501  25.061  0.00  0.00    +0.155 HD
ATOM      9  C   LIG    1      -37.052  75.183  27.034  0.00  0.00    +0.250 C 
ATOM     10  O   LIG    1      -37.713  74.641  27.905  0.00  0.00    -0.270 OA
BRANCH   9  11
ATOM     11  C   LIG    1      -35.894  76.016  27.371  0.00  0.00    +0.064 A 
ATOM     12  C   LIG    1      -34.666  75.563  27.965  0.00  0.00    +0.031 A 
ATOM     13  C   LIG    1      -34.142  74.327  28.386  0.00  0.00    +0.017 A 
ATOM     14  C   LIG    1      -32.855  74.306  28.942  0.00  0.00    -0.032 A 
ATOM     15  C   LIG    1      -32.266  73.026  29.447  0.00  0.00    +0.045 C 
ATOM     16  C   LIG    1      -32.160  75.510  29.036  0.00  0.00    +0.116 A 
ATOM     17  N   LIG    1      -32.608  76.723  28.635  0.00  0.00    -0.237 NA
ATOM     18  C   LIG    1      -33.850  76.677  28.123  0.00  0.00    +0.139 A 
ATOM     19  N   LIG    1      -34.532  77.769  27.670  0.00  0.00    -0.345 N 
ATOM     20  H   LIG    1      -34.155  78.707  27.698  0.00  0.00    +0.167 HD
ATOM     21  C   LIG    1      -35.771  77.392  27.218  0.00  0.00    +0.098 A 
ENDBRANCH   9  11
ENDBRANCH   3   7
BRANCH   1  22
ATOM     22  C   LIG    1      -38.938  70.629  24.237  0.00  0.00    +0.197 C 
ATOM     23  O   LIG    1      -39.933  69.957  23.974  0.00  0.00    -0.287 OA
BRANCH  22  31
ATOM     24  N   LIG    1      -35.680  69.378  25.403  0.00  0.00    -0.329 N 
ATOM     25  C   LIG    1      -35.748  68.753  24.183  0.00  0.00    +0.145 A 
ATOM     26  N   LIG    1      -34.818  67.931  23.667  0.00  0.00    -0.218 NA
ATOM     27  C   LIG    1      -35.166  67.473  22.454  0.00  0.00    +0.223 A 
ATOM     28  N   LIG    1      -36.291  67.736  21.762  0.00  0.00    -0.243 NA
ATOM     29  C   LIG    1      -37.195  68.570  22.325  0.00  0.00    +0.124 A 
ATOM     30  C   LIG    1      -36.945  69.122  23.581  0.00  0.00    +0.048 A 
ATOM     31  C   LIG    1      -37.632  70.005  24.471  0.00  0.00    +0.051 A 
ATOM     32  C   LIG    1      -36.796  70.172  25.569  0.00  0.00    +0.100 A 
BRANCH  24  34
ATOM     33  C   LIG    1      -34.427  70.506  27.237  0.00  0.00    +0.030 C 
ATOM     34  C   LIG    1      -34.597  69.250  26.378  0.00  0.00    +0.083 C 
ATOM     35  C   LIG    1      -34.745  67.996  27.237  0.00  0.00    +0.030 C 
ENDBRANCH  24  34
ENDBRANCH  22  31
ENDBRANCH   1  22
TORSDOF 5
ENDMDL
MODEL 5
REMARK VINA RESULT:      -6.3     13.543     18.052
REMARK  Name = pdb/CHEMBL3666395.pdb
REMARK                            x       y       z     vdW  Elec       q    Type
REMARK                         _______ _______ _______ _____ _____    ______ ____
ROOT
ATOM      1  C   LIG    1      -39.087  74.358  25.354  0.00  0.00    +0.042 A 
ATOM      2  C   LIG    1      -37.879  74.735  25.962  0.00  0.00    +0.038 A 
ATOM      3  C   LIG    1      -37.277  75.959  25.628  0.00  0.00    +0.053 A 
ATOM      4  C   LIG    1      -37.927  76.748  24.681  0.00  0.00    +0.134 A 
ATOM      5  N   LIG    1      -39.087  76.402  24.066  0.00  0.00    -0.261 NA
ATOM      6  C   LIG    1      -39.629  75.214  24.408  0.00  0.00    +0.122 A 
ENDROOT
BRANCH   3   7
ATOM      7  N   LIG    1      -36.071  76.312  26.271  0.00  0.00    -0.280 N 
ATOM      8  H   LIG    1      -35.215  75.954  25.857  0.00  0.00    +0.155 HD
ATOM      9  C   LIG    1      -35.933  77.020  27.454  0.00  0.00    +0.250 C 
ATOM     10  O   LIG    1      -36.858  77.447  28.126  0.00  0.00    -0.270 OA
BRANCH   9  11
ATOM     11  C   LIG    1      -34.543  77.188  27.887  0.00  0.00    +0.064 A 
ATOM     12  C   LIG    1      -33.681  76.156  28.393  0.00  0.00    +0.031 A 
ATOM     13  C   LIG    1      -33.789  74.773  28.630  0.00  0.00    +0.017 A 
ATOM     14  C   LIG    1      -32.678  74.100  29.158  0.00  0.00    -0.032 A 
ATOM     15  C   LIG    1      -32.753  72.638  29.471  0.00  0.00    +0.045 C 
ATOM     16  C   LIG    1      -31.522  74.836  29.408  0.00  0.00    +0.116 A 
ATOM     17  N   LIG    1      -31.357  76.162  29.188  0.00  0.00    -0.237 NA
ATOM     18  C   LIG    1      -32.460  76.749  28.693  0.00  0.00    +0.139 A 
ATOM     19  N   LIG    1      -32.555  78.081  28.407  0.00  0.00    -0.345 N 
ATOM     20  H   LIG    1      -31.799  78.734  28.560  0.00  0.00    +0.167 HD
ATOM     21  C   LIG    1      -33.807  78.367  27.925  0.00  0.00    +0.098 A 
ENDBRANCH   9  11
ENDBRANCH   3   7
BRANCH   1  22
ATOM     22  C   LIG    1      -39.730  73.054  25.650  0.00  0.00    +0.197 C 
ATOM     23  O   LIG    1      -40.269  72.907  26.746  0.00  0.00    -0.287 OA
BRANCH  22  31
ATOM     24  N   LIG    1      -39.040  70.122  23.536  0.00  0.00    -0.329 N 
ATOM     25  C   LIG    1      -40.175  70.591  22.923  0.00  0.00    +0.145 A 
ATOM     26  N   LIG    1      -40.776  70.042  21.853  0.00  0.00    -0.218 NA
ATOM     27  C   LIG    1      -41.869  70.727  21.482  0.00  0.00    +0.223 A 
ATOM     28  N   LIG    1      -42.388  71.831  22.053  0.00  0.00    -0.243 NA
ATOM     29  C   LIG    1      -41.745  72.345  23.127  0.00  0.00    +0.124 A 
ATOM     30  C   LIG    1      -40.589  71.730  23.605  0.00  0.00    +0.048 A 
ATOM     31  C   LIG    1      -39.668  71.961  24.675  0.00  0.00    +0.051 A 
ATOM     32  C   LIG    1      -38.701  70.969  24.571  0.00  0.00    +0.100 A 
BRANCH  24  34
ATOM     33  C   LIG    1      -37.288  69.198  22.026  0.00  0.00    +0.030 C 
ATOM     34  C   LIG    1      -38.286  68.928  23.155  0.00  0.00    +0.083 C 
ATOM     35  C   LIG    1      -37.611  68.270  24.357  0.00  0.00    +0.030 C 
ENDBRANCH  24  34
ENDBRANCH  22  31
ENDBRANCH   1  22
TORSDOF 5
ENDMDL
MODEL 6
REMARK VINA RESULT:      -6.2     13.649     19.188
REMARK  Name = pdb/CHEMBL3666395.pdb
REMARK                            x       y       z     vdW  Elec       q    Type
REMARK                         _______ _______ _______ _____ _____    ______ ____
ROOT
ATOM      1  C   LIG    1      -35.985  75.549  29.186  0.00  0.00    +0.042 A 
ATOM      2  C   LIG    1      -37.009  75.765  28.248  0.00  0.00    +0.038 A 
ATOM      3  C   LIG    1      -37.542  74.684  27.531  0.00  0.00    +0.053 A 
ATOM      4  C   LIG    1      -37.007  73.423  27.791  0.00  0.00    +0.134 A 
ATOM      5  N   LIG    1      -36.009  73.187  28.680  0.00  0.00    -0.261 NA
ATOM      6  C   LIG    1      -35.516  74.255  29.344  0.00  0.00    +0.122 A 
ENDROOT
BRANCH   3   7
ATOM      7  N   LIG    1      -38.580  74.936  26.608  0.00  0.00    -0.280 N 
ATOM      8  H   LIG    1      -39.519  74.682  26.900  0.00  0.00    +0.155 HD
ATOM      9  C   LIG    1      -38.446  75.408  25.311  0.00  0.00    +0.250 C 
ATOM     10  O   LIG    1      -37.386  75.678  24.770  0.00  0.00    -0.270 OA
BRANCH   9  11
ATOM     11  C   LIG    1      -39.716  75.522  24.587  0.00  0.00    +0.064 A 
ATOM     12  C   LIG    1      -40.462  74.440  24.007  0.00  0.00    +0.031 A 
ATOM     13  C   LIG    1      -40.317  73.043  23.920  0.00  0.00    +0.017 A 
ATOM     14  C   LIG    1      -41.299  72.313  23.236  0.00  0.00    -0.032 A 
ATOM     15  C   LIG    1      -41.172  70.830  23.075  0.00  0.00    +0.045 C 
ATOM     16  C   LIG    1      -42.373  73.012  22.687  0.00  0.00    +0.116 A 
ATOM     17  N   LIG    1      -42.570  74.350  22.751  0.00  0.00    -0.237 NA
ATOM     18  C   LIG    1      -41.589  74.991  23.409  0.00  0.00    +0.139 A 
ATOM     19  N   LIG    1      -41.546  76.343  23.591  0.00  0.00    -0.345 N 
ATOM     20  H   LIG    1      -42.249  76.972  23.227  0.00  0.00    +0.167 HD
ATOM     21  C   LIG    1      -40.418  76.684  24.293  0.00  0.00    +0.098 A 
ENDBRANCH   9  11
ENDBRANCH   3   7
BRANCH   1  22
ATOM     22  C   LIG    1      -35.368  76.674  29.932  0.00  0.00    +0.197 C 
ATOM     23  O   LIG    1      -35.295  76.589  31.156  0.00  0.00    -0.287 OA
BRANCH  22  31
ATOM     24  N   LIG    1      -34.623  80.001  28.547  0.00  0.00    -0.329 N 
ATOM     25  C   LIG    1      -33.798  79.232  27.766  0.00  0.00    +0.145 A 
ATOM     26  N   LIG    1      -32.987  79.686  26.795  0.00  0.00    -0.218 NA
ATOM     27  C   LIG    1      -32.302  78.693  26.205  0.00  0.00    +0.223 A 
ATOM     28  N   LIG    1      -32.344  77.377  26.487  0.00  0.00    -0.243 NA
ATOM     29  C   LIG    1      -33.178  76.972  27.472  0.00  0.00    +0.124 A 
ATOM     30  C   LIG    1      -33.953  77.908  28.156  0.00  0.00    +0.048 A 
ATOM     31  C   LIG    1      -34.910  77.871  29.218  0.00  0.00    +0.051 A 
ATOM     32  C   LIG    1      -35.332  79.182  29.402  0.00  0.00    +0.100 A 
BRANCH  24  34
ATOM     33  C   LIG    1      -35.950  81.903  27.637  0.00  0.00    +0.030 C 
ATOM     34  C   LIG    1      -34.757  81.457  28.487  0.00  0.00    +0.083 C 
ATOM     35  C   LIG    1      -34.791  82.086  29.879  0.00  0.00    +0.030 C 
ENDBRANCH  24  34
ENDBRANCH  22  31
ENDBRANCH   1  22
TORSDOF 5
ENDMDL
MODEL 7
REMARK VINA RESULT:      -6.1     12.430     17.192
REMARK  Name = pdb/CHEMBL3666395.pdb
REMARK                            x       y       z     vdW  Elec       q    Type
REMARK                         _______ _______ _______ _____ _____    ______ ____
ROOT
ATOM      1  C   LIG    1      -38.949  74.439  24.741  0.00  0.00    +0.042 A 
ATOM      2  C   LIG    1      -37.755  74.779  25.399  0.00  0.00    +0.038 A 
ATOM      3  C   LIG    1      -37.380  76.126  25.519  0.00  0.00    +0.053 A 
ATOM      4  C   LIG    1      -38.232  77.075  24.958  0.00  0.00    +0.134 A 
ATOM      5  N   LIG    1      -39.383  76.775  24.304  0.00  0.00    -0.261 NA
ATOM      6  C   LIG    1      -39.704  75.468  24.201  0.00  0.00    +0.122 A 
ENDROOT
BRANCH   3   7
ATOM      7  N   LIG    1      -36.181  76.432  26.200  0.00  0.00    -0.280 N 
ATOM      8  H   LIG    1      -35.317  76.152  25.745  0.00  0.00    +0.155 HD
ATOM      9  C   LIG    1      -36.059  76.991  27.462  0.00  0.00    +0.250 C 
ATOM     10  O   LIG    1      -36.993  77.306  28.182  0.00  0.00    -0.270 OA
BRANCH   9  11
ATOM     11  C   LIG    1      -34.672  77.144  27.912  0.00  0.00    +0.064 A 
ATOM     12  C   LIG    1      -33.812  76.094  28.382  0.00  0.00    +0.031 A 
ATOM     13  C   LIG    1      -33.919  74.702  28.562  0.00  0.00    +0.017 A 
ATOM     14  C   LIG    1      -32.811  74.010  29.071  0.00  0.00    -0.032 A 
ATOM     15  C   LIG    1      -32.885  72.537  29.325  0.00  0.00    +0.045 C 
ATOM     16  C   LIG    1      -31.658  74.738  29.360  0.00  0.00    +0.116 A 
ATOM     17  N   LIG    1      -31.494  76.072  29.194  0.00  0.00    -0.237 NA
ATOM     18  C   LIG    1      -32.594  76.677  28.715  0.00  0.00    +0.139 A 
ATOM     19  N   LIG    1      -32.690  78.018  28.482  0.00  0.00    -0.345 N 
ATOM     20  H   LIG    1      -31.937  78.666  28.667  0.00  0.00    +0.167 HD
ATOM     21  C   LIG    1      -33.939  78.322  28.003  0.00  0.00    +0.098 A 
ENDBRANCH   9  11
ENDBRANCH   3   7
BRANCH   1  22
ATOM     22  C   LIG    1      -39.356  73.024  24.558  0.00  0.00    +0.197 C 
ATOM     23  O   LIG    1      -40.223  72.772  23.723  0.00  0.00    -0.287 OA
BRANCH  22  31
ATOM     24  N   LIG    1      -38.196  70.688  27.154  0.00  0.00    -0.329 N 
ATOM     25  C   LIG    1      -37.608  70.123  26.050  0.00  0.00    +0.145 A 
ATOM     26  N   LIG    1      -36.842  69.018  26.045  0.00  0.00    -0.218 NA
ATOM     27  C   LIG    1      -36.408  68.710  24.813  0.00  0.00    +0.223 A 
ATOM     28  N   LIG    1      -36.663  69.357  23.660  0.00  0.00    -0.243 NA
ATOM     29  C   LIG    1      -37.439  70.464  23.719  0.00  0.00    +0.124 A 
ATOM     30  C   LIG    1      -37.944  70.895  24.945  0.00  0.00    +0.048 A 
ATOM     31  C   LIG    1      -38.770  71.972  25.395  0.00  0.00    +0.051 A 
ATOM     32  C   LIG    1      -38.867  71.832  26.774  0.00  0.00    +0.100 A 
BRANCH  24  34
ATOM     33  C   LIG    1      -36.926  70.754  29.296  0.00  0.00    +0.030 C 
ATOM     34  C   LIG    1      -38.120  70.184  28.524  0.00  0.00    +0.083 C 
ATOM     35  C   LIG    1      -39.430  70.388  29.283  0.00  0.00    +0.030 C 
ENDBRANCH  24  34
ENDBRANCH  22  31
ENDBRANCH   1  22
TORSDOF 5
ENDMDL
MODEL 8
REMARK VINA RESULT:      -6.1     17.875     21.867
REMARK  Name = pdb/CHEMBL3666395.pdb
REMARK                            x       y       z     vdW  Elec       q    Type
REMARK                         _______ _______ _______ _____ _____    ______ ____
ROOT
ATOM      1  C   LIG    1      -40.433  82.170  22.712  0.00  0.00    +0.042 A 
ATOM      2  C   LIG    1      -39.757  80.984  23.044  0.00  0.00    +0.038 A 
ATOM      3  C   LIG    1      -40.402  80.000  23.809  0.00  0.00    +0.053 A 
ATOM      4  C   LIG    1      -41.709  80.265  24.212  0.00  0.00    +0.134 A 
ATOM      5  N   LIG    1      -42.381  81.407  23.919  0.00  0.00    -0.261 NA
ATOM      6  C   LIG    1      -41.723  82.333  23.189  0.00  0.00    +0.122 A 
ENDROOT
BRANCH   3   7
ATOM      7  N   LIG    1      -39.697  78.814  24.110  0.00  0.00    -0.280 N 
ATOM      8  H   LIG    1      -39.561  78.160  23.345  0.00  0.00    +0.155 HD
ATOM      9  C   LIG    1      -39.250  78.405  25.356  0.00  0.00    +0.250 C 
ATOM     10  O   LIG    1      -39.406  79.026  26.395  0.00  0.00    -0.270 OA
BRANCH   9  11
ATOM     11  C   LIG    1      -38.588  77.097  25.349  0.00  0.00    +0.064 A 
ATOM     12  C   LIG    1      -39.143  75.867  24.855  0.00  0.00    +0.031 A 
ATOM     13  C   LIG    1      -40.352  75.473  24.253  0.00  0.00    +0.017 A 
ATOM     14  C   LIG    1      -40.514  74.123  23.909  0.00  0.00    -0.032 A 
ATOM     15  C   LIG    1      -41.798  73.641  23.308  0.00  0.00    +0.045 C 
ATOM     16  C   LIG    1      -39.463  73.247  24.171  0.00  0.00    +0.116 A 
ATOM     17  N   LIG    1      -38.276  73.573  24.735  0.00  0.00    -0.237 NA
ATOM     18  C   LIG    1      -38.188  74.876  25.051  0.00  0.00    +0.139 A 
ATOM     19  N   LIG    1      -37.102  75.447  25.648  0.00  0.00    -0.345 N 
ATOM     20  H   LIG    1      -36.278  74.925  25.913  0.00  0.00    +0.167 HD
ATOM     21  C   LIG    1      -37.326  76.787  25.843  0.00  0.00    +0.098 A 
ENDBRANCH   9  11
ENDBRANCH   3   7
BRANCH   1  22
ATOM     22  C   LIG    1      -39.768  83.251  21.942  0.00  0.00    +0.197 C 
ATOM     23  O   LIG    1      -39.711  83.142  20.718  0.00  0.00    -0.287 OA
BRANCH  22  31
ATOM     24  N   LIG    1      -38.618  86.466  23.313  0.00  0.00    -0.329 N 
ATOM     25  C   LIG    1      -37.858  85.605  24.065  0.00  0.00    +0.145 A 
ATOM     26  N   LIG    1      -36.974  85.960  25.013  0.00  0.00    -0.218 NA
ATOM     27  C   LIG    1      -36.384  84.894  25.577  0.00  0.00    +0.223 A 
ATOM     28  N   LIG    1      -36.593  83.592  25.305  0.00  0.00    -0.243 NA
ATOM     29  C   LIG    1      -37.493  83.288  24.341  0.00  0.00    +0.124 A 
ATOM     30  C   LIG    1      -38.167  84.309  23.672  0.00  0.00    +0.048 A 
ATOM     31  C   LIG    1      -39.154  84.385  22.639  0.00  0.00    +0.051 A 
ATOM     32  C   LIG    1      -39.374  85.738  22.417  0.00  0.00    +0.100 A 
BRANCH  24  34
ATOM     33  C   LIG    1      -37.460  88.574  22.662  0.00  0.00    +0.030 C 
ATOM     34  C   LIG    1      -38.624  87.925  23.416  0.00  0.00    +0.083 C 
ATOM     35  C   LIG    1      -39.967  88.522  22.999  0.00  0.00    +0.030 C 
ENDBRANCH  24  34
ENDBRANCH  22  31
ENDBRANCH   1  22
TORSDOF 5
ENDMDL
MODEL 9
REMARK VINA RESULT:      -6.1      1.712      2.744
REMARK  Name = pdb/CHEMBL3666395.pdb
REMARK                            x       y       z     vdW  Elec       q    Type
REMARK                         _______ _______ _______ _____ _____    ______ ____
ROOT
ATOM      1  C   LIG    1      -20.970  76.906  30.928  0.00  0.00    +0.042 A 
ATOM      2  C   LIG    1      -21.341  77.898  31.850  0.00  0.00    +0.038 A 
ATOM      3  C   LIG    1      -20.379  78.452  32.709  0.00  0.00    +0.053 A 
ATOM      4  C   LIG    1      -19.076  77.969  32.599  0.00  0.00    +0.134 A 
ATOM      5  N   LIG    1      -18.693  77.001  31.728  0.00  0.00    -0.261 NA
ATOM      6  C   LIG    1      -19.649  76.486  30.925  0.00  0.00    +0.122 A 
ENDROOT
BRANCH   3   7
ATOM      7  N   LIG    1      -20.784  79.458  33.613  0.00  0.00    -0.280 N 
ATOM      8  H   LIG    1      -20.599  80.417  33.336  0.00  0.00    +0.155 HD
ATOM      9  C   LIG    1      -21.325  79.275  34.875  0.00  0.00    +0.250 C 
ATOM     10  O   LIG    1      -21.533  78.192  35.398  0.00  0.00    -0.270 OA
BRANCH   9  11
ATOM     11  C   LIG    1      -21.602  80.525  35.590  0.00  0.00    +0.064 A 
ATOM     12  C   LIG    1      -22.861  80.916  36.160  0.00  0.00    +0.031 A 
ATOM     13  C   LIG    1      -24.143  80.346  36.268  0.00  0.00    +0.017 A 
ATOM     14  C   LIG    1      -25.143  81.080  36.922  0.00  0.00    -0.032 A 
ATOM     15  C   LIG    1      -26.536  80.541  37.026  0.00  0.00    +0.045 C 
ATOM     16  C   LIG    1      -24.810  82.330  37.439  0.00  0.00    +0.116 A 
ATOM     17  N   LIG    1      -23.593  82.920  37.376  0.00  0.00    -0.237 NA
ATOM     18  C   LIG    1      -22.683  82.172  36.729  0.00  0.00    +0.139 A 
ATOM     19  N   LIG    1      -21.391  82.554  36.514  0.00  0.00    -0.345 N 
ATOM     20  H   LIG    1      -21.020  83.444  36.817  0.00  0.00    +0.167 HD
ATOM     21  C   LIG    1      -20.723  81.576  35.822  0.00  0.00    +0.098 A 
ENDBRANCH   9  11
ENDBRANCH   3   7
BRANCH   1  22
ATOM     22  C   LIG    1      -21.968  76.267  30.034  0.00  0.00    +0.197 C 
ATOM     23  O   LIG    1      -21.813  76.374  28.819  0.00  0.00    -0.287 OA
BRANCH  22  31
ATOM     24  N   LIG    1      -24.491  74.006  31.470  0.00  0.00    -0.329 N 
ATOM     25  C   LIG    1      -25.223  75.165  31.408  0.00  0.00    +0.145 A 
ATOM     26  N   LIG    1      -26.502  75.310  31.797  0.00  0.00    -0.218 NA
ATOM     27  C   LIG    1      -26.946  76.563  31.614  0.00  0.00    +0.223 A 
ATOM     28  N   LIG    1      -26.269  77.618  31.120  0.00  0.00    -0.243 NA
ATOM     29  C   LIG    1      -24.986  77.419  30.743  0.00  0.00    +0.124 A 
ATOM     30  C   LIG    1      -24.409  76.156  30.873  0.00  0.00    +0.048 A 
ATOM     31  C   LIG    1      -23.131  75.576  30.600  0.00  0.00    +0.051 A 
ATOM     32  C   LIG    1      -23.236  74.234  30.944  0.00  0.00    +0.100 A 
BRANCH  24  34
ATOM     33  C   LIG    1      -25.278  72.773  33.487  0.00  0.00    +0.030 C 
ATOM     34  C   LIG    1      -24.955  72.720  31.991  0.00  0.00    +0.083 C 
ATOM     35  C   LIG    1      -26.124  72.163  31.181  0.00  0.00    +0.030 C 
ENDBRANCH  24  34
ENDBRANCH  22  31
ENDBRANCH   1  22
TORSDOF 5
ENDMDL
