MODEL 1
REMARK VINA RESULT:      -6.2      0.000      0.000
REMARK  Name = pdb/CHEMBL3678285.pdb
REMARK                            x       y       z     vdW  Elec       q    Type
REMARK                         _______ _______ _______ _____ _____    ______ ____
ROOT
ATOM      1  C   LIG    1      -38.604  78.123  26.095  0.00  0.00    +0.162 A 
ATOM      2  C   LIG    1      -38.314  76.943  25.399  0.00  0.00    +0.162 A 
ATOM      3  C   LIG    1      -37.190  76.185  25.783  0.00  0.00    +0.050 A 
ATOM      4  C   LIG    1      -36.364  76.586  26.844  0.00  0.00    +0.009 A 
ATOM      5  C   LIG    1      -36.659  77.753  27.545  0.00  0.00    -0.024 A 
ATOM      6  C   LIG    1      -37.765  78.510  27.137  0.00  0.00    +0.054 A 
ENDROOT
BRANCH   1   8
ATOM      7  C   LIG    1      -39.377  80.313  25.557  0.00  0.00    +0.277 C 
ATOM      8  O   LIG    1      -39.643  78.922  25.704  0.00  0.00    -0.491 OA
ENDBRANCH   1   8
BRANCH   2   9
ATOM      9  O   LIG    1      -39.017  76.404  24.347  0.00  0.00    -0.484 OA
BRANCH   9  10
ATOM     10  C   LIG    1      -40.305  75.851  24.643  0.00  0.00    +0.266 C 
BRANCH  10  11
ATOM     11  C   LIG    1      -40.417  74.431  24.165  0.00  0.00    +0.008 A 
ATOM     12  C   LIG    1      -39.415  73.512  24.464  0.00  0.00    +0.118 A 
ATOM     13  N   LIG    1      -39.446  72.205  24.113  0.00  0.00    -0.259 NA
ATOM     14  C   LIG    1      -40.531  71.768  23.430  0.00  0.00    +0.044 A 
ATOM     15  C   LIG    1      -41.547  72.636  23.028  0.00  0.00    +0.024 A 
ATOM     16  C   LIG    1      -41.477  73.981  23.385  0.00  0.00    +0.010 A 
BRANCH  14  17
ATOM     17  C   LIG    1      -40.614  70.291  23.082  0.00  0.00    +0.032 C 
ATOM     18  C   LIG    1      -39.239  69.617  23.011  0.00  0.00    +0.014 C 
ATOM     19  C   LIG    1      -41.359  70.071  21.766  0.00  0.00    +0.014 C 
ENDBRANCH  14  17
ENDBRANCH  10  11
ENDBRANCH   9  10
ENDBRANCH   2   9
BRANCH   5  20
ATOM     20  C   LIG    1      -35.839  78.261  28.709  0.00  0.00    +0.161 C 
BRANCH  20  21
ATOM     21  N   LIG    1      -34.433  77.962  28.527  0.00  0.00    -0.293 N 
ATOM     22  C   LIG    1      -33.768  76.876  29.049  0.00  0.00    +0.162 A 
ATOM     23  N   LIG    1      -34.281  75.857  29.774  0.00  0.00    -0.235 NA
ATOM     24  C   LIG    1      -33.344  74.924  30.087  0.00  0.00    +0.121 A 
ATOM     25  C   LIG    1      -31.988  74.949  29.742  0.00  0.00    +0.005 A 
ATOM     26  C   LIG    1      -31.532  76.046  28.994  0.00  0.00    +0.041 A 
ATOM     27  C   LIG    1      -32.457  77.028  28.635  0.00  0.00    +0.110 A 
ATOM     28  N   LIG    1      -32.303  78.186  27.912  0.00  0.00    -0.213 NA
ATOM     29  C   LIG    1      -33.494  78.708  27.849  0.00  0.00    +0.195 A 
BRANCH  25  30
ATOM     30  C   LIG    1      -31.089  73.882  30.149  0.00  0.00    +0.021 A 
ATOM     31  C   LIG    1      -30.235  73.931  31.233  0.00  0.00    +0.116 A 
ATOM     32  N   LIG    1      -29.571  72.740  31.261  0.00  0.00    -0.274 N 
ATOM     33  C   LIG    1      -28.564  72.350  32.217  0.00  0.00    +0.172 C 
ATOM     34  N   LIG    1      -29.930  71.904  30.273  0.00  0.00    -0.179 NA
ATOM     35  C   LIG    1      -30.853  72.598  29.599  0.00  0.00    +0.143 A 
ENDBRANCH  25  30
BRANCH  29  36
ATOM     36  N   LIG    1      -33.810  79.849  27.201  0.00  0.00    -0.329 N 
ATOM     37  H   LIG    1      -33.361  79.899  26.289  0.00  0.00    +0.145 HD
ATOM     38  H   LIG    1      -34.800  80.046  27.096  0.00  0.00    +0.145 HD
ENDBRANCH  29  36
ENDBRANCH  20  21
ENDBRANCH   5  20
TORSDOF 9
ENDMDL
MODEL 2
REMARK VINA RESULT:      -6.1     14.540     17.577
REMARK  Name = pdb/CHEMBL3678285.pdb
REMARK                            x       y       z     vdW  Elec       q    Type
REMARK                         _______ _______ _______ _____ _____    ______ ____
ROOT
ATOM      1  C   LIG    1      -26.412  74.684  13.988  0.00  0.00    +0.162 A 
ATOM      2  C   LIG    1      -26.915  75.986  13.875  0.00  0.00    +0.162 A 
ATOM      3  C   LIG    1      -28.074  76.203  13.105  0.00  0.00    +0.050 A 
ATOM      4  C   LIG    1      -28.732  75.147  12.456  0.00  0.00    +0.009 A 
ATOM      5  C   LIG    1      -28.240  73.849  12.579  0.00  0.00    -0.024 A 
ATOM      6  C   LIG    1      -27.072  73.651  13.327  0.00  0.00    +0.054 A 
ENDROOT
BRANCH   1   8
ATOM      7  C   LIG    1      -24.824  73.091  14.778  0.00  0.00    +0.277 C 
ATOM      8  O   LIG    1      -25.248  74.446  14.667  0.00  0.00    -0.491 OA
ENDBRANCH   1   8
BRANCH   2   9
ATOM      9  O   LIG    1      -26.404  77.128  14.447  0.00  0.00    -0.484 OA
BRANCH   9  10
ATOM     10  C   LIG    1      -26.568  78.350  13.718  0.00  0.00    +0.266 C 
BRANCH  10  11
ATOM     11  C   LIG    1      -25.588  79.395  14.170  0.00  0.00    +0.008 A 
ATOM     12  C   LIG    1      -25.477  80.596  13.476  0.00  0.00    +0.118 A 
ATOM     13  N   LIG    1      -24.655  81.611  13.831  0.00  0.00    -0.259 NA
ATOM     14  C   LIG    1      -23.897  81.443  14.940  0.00  0.00    +0.044 A 
ATOM     15  C   LIG    1      -23.894  80.243  15.654  0.00  0.00    +0.024 A 
ATOM     16  C   LIG    1      -24.735  79.208  15.252  0.00  0.00    +0.010 A 
BRANCH  14  17
ATOM     17  C   LIG    1      -23.014  82.595  15.391  0.00  0.00    +0.032 C 
ATOM     18  C   LIG    1      -21.967  82.989  14.343  0.00  0.00    +0.014 C 
ATOM     19  C   LIG    1      -22.319  82.278  16.714  0.00  0.00    +0.014 C 
ENDBRANCH  14  17
ENDBRANCH  10  11
ENDBRANCH   9  10
ENDBRANCH   2   9
BRANCH   5  20
ATOM     20  C   LIG    1      -28.883  72.645  11.931  0.00  0.00    +0.161 C 
BRANCH  20  21
ATOM     21  N   LIG    1      -30.010  72.171  12.709  0.00  0.00    -0.293 N 
ATOM     22  C   LIG    1      -29.946  71.289  13.763  0.00  0.00    +0.162 A 
ATOM     23  N   LIG    1      -28.843  70.736  14.317  0.00  0.00    -0.235 NA
ATOM     24  C   LIG    1      -29.143  69.943  15.379  0.00  0.00    +0.121 A 
ATOM     25  C   LIG    1      -30.417  69.676  15.893  0.00  0.00    +0.005 A 
ATOM     26  C   LIG    1      -31.511  70.284  15.256  0.00  0.00    +0.041 A 
ATOM     27  C   LIG    1      -31.257  71.119  14.167  0.00  0.00    +0.110 A 
ATOM     28  N   LIG    1      -32.112  71.841  13.369  0.00  0.00    -0.213 NA
ATOM     29  C   LIG    1      -31.343  72.468  12.528  0.00  0.00    +0.195 A 
BRANCH  25  30
ATOM     30  C   LIG    1      -30.597  68.799  17.038  0.00  0.00    +0.021 A 
ATOM     31  C   LIG    1      -29.653  67.915  17.520  0.00  0.00    +0.116 A 
ATOM     32  N   LIG    1      -30.216  67.286  18.591  0.00  0.00    -0.274 N 
ATOM     33  C   LIG    1      -29.596  66.267  19.401  0.00  0.00    +0.172 C 
ATOM     34  N   LIG    1      -31.467  67.697  18.854  0.00  0.00    -0.179 NA
ATOM     35  C   LIG    1      -31.698  68.615  17.911  0.00  0.00    +0.143 A 
ENDBRANCH  25  30
BRANCH  29  36
ATOM     36  N   LIG    1      -31.769  73.321  11.572  0.00  0.00    -0.329 N 
ATOM     37  H   LIG    1      -32.744  73.160  11.333  0.00  0.00    +0.145 HD
ATOM     38  H   LIG    1      -31.631  74.310  11.760  0.00  0.00    +0.145 HD
ENDBRANCH  29  36
ENDBRANCH  20  21
ENDBRANCH   5  20
TORSDOF 9
ENDMDL
MODEL 3
REMARK VINA RESULT:      -6.0      6.604     11.572
REMARK  Name = pdb/CHEMBL3678285.pdb
REMARK                            x       y       z     vdW  Elec       q    Type
REMARK                         _______ _______ _______ _____ _____    ______ ____
ROOT
ATOM      1  C   LIG    1      -36.660  66.549  20.907  0.00  0.00    +0.162 A 
ATOM      2  C   LIG    1      -35.324  66.249  20.613  0.00  0.00    +0.162 A 
ATOM      3  C   LIG    1      -34.369  66.313  21.647  0.00  0.00    +0.050 A 
ATOM      4  C   LIG    1      -34.728  66.667  22.957  0.00  0.00    +0.009 A 
ATOM      5  C   LIG    1      -36.059  66.954  23.252  0.00  0.00    -0.024 A 
ATOM      6  C   LIG    1      -36.994  66.910  22.210  0.00  0.00    +0.054 A 
ENDROOT
BRANCH   1   8
ATOM      7  C   LIG    1      -37.796  67.798  19.224  0.00  0.00    +0.277 C 
ATOM      8  O   LIG    1      -37.602  66.568  19.915  0.00  0.00    -0.491 OA
ENDBRANCH   1   8
BRANCH   2   9
ATOM      9  O   LIG    1      -34.804  65.878  19.396  0.00  0.00    -0.484 OA
BRANCH   9  10
ATOM     10  C   LIG    1      -33.387  65.676  19.329  0.00  0.00    +0.266 C 
BRANCH  10  11
ATOM     11  C   LIG    1      -32.695  66.848  18.691  0.00  0.00    +0.008 A 
ATOM     12  C   LIG    1      -33.123  67.324  17.456  0.00  0.00    +0.118 A 
ATOM     13  N   LIG    1      -32.591  68.396  16.823  0.00  0.00    -0.259 NA
ATOM     14  C   LIG    1      -31.577  69.047  17.442  0.00  0.00    +0.044 A 
ATOM     15  C   LIG    1      -31.040  68.594  18.648  0.00  0.00    +0.024 A 
ATOM     16  C   LIG    1      -31.595  67.475  19.266  0.00  0.00    +0.010 A 
BRANCH  14  17
ATOM     17  C   LIG    1      -31.009  70.290  16.778  0.00  0.00    +0.032 C 
ATOM     18  C   LIG    1      -31.295  71.571  17.569  0.00  0.00    +0.014 C 
ATOM     19  C   LIG    1      -31.529  70.444  15.350  0.00  0.00    +0.014 C 
ENDBRANCH  14  17
ENDBRANCH  10  11
ENDBRANCH   9  10
ENDBRANCH   2   9
BRANCH   5  20
ATOM     20  C   LIG    1      -36.548  67.332  24.631  0.00  0.00    +0.161 C 
BRANCH  20  21
ATOM     21  N   LIG    1      -36.424  68.758  24.857  0.00  0.00    -0.293 N 
ATOM     22  C   LIG    1      -37.383  69.704  24.575  0.00  0.00    +0.162 A 
ATOM     23  N   LIG    1      -38.630  69.503  24.092  0.00  0.00    -0.235 NA
ATOM     24  C   LIG    1      -39.331  70.662  23.977  0.00  0.00    +0.121 A 
ATOM     25  C   LIG    1      -38.880  71.948  24.294  0.00  0.00    +0.005 A 
ATOM     26  C   LIG    1      -37.570  72.073  24.782  0.00  0.00    +0.041 A 
ATOM     27  C   LIG    1      -36.811  70.911  24.931  0.00  0.00    +0.110 A 
ATOM     28  N   LIG    1      -35.526  70.728  25.385  0.00  0.00    -0.213 NA
ATOM     29  C   LIG    1      -35.333  69.442  25.347  0.00  0.00    +0.195 A 
BRANCH  25  30
ATOM     30  C   LIG    1      -39.737  73.109  24.116  0.00  0.00    +0.021 A 
ATOM     31  C   LIG    1      -41.006  73.087  23.574  0.00  0.00    +0.116 A 
ATOM     32  N   LIG    1      -41.458  74.373  23.582  0.00  0.00    -0.274 N 
ATOM     33  C   LIG    1      -42.737  74.828  23.096  0.00  0.00    +0.172 C 
ATOM     34  N   LIG    1      -40.577  75.245  24.098  0.00  0.00    -0.179 NA
ATOM     35  C   LIG    1      -39.533  74.478  24.423  0.00  0.00    +0.143 A 
ENDBRANCH  25  30
BRANCH  29  36
ATOM     36  N   LIG    1      -34.203  68.814  25.737  0.00  0.00    -0.329 N 
ATOM     37  H   LIG    1      -33.971  69.026  26.704  0.00  0.00    +0.145 HD
ATOM     38  H   LIG    1      -34.180  67.807  25.603  0.00  0.00    +0.145 HD
ENDBRANCH  29  36
ENDBRANCH  20  21
ENDBRANCH   5  20
TORSDOF 9
ENDMDL
MODEL 4
REMARK VINA RESULT:      -6.0      7.113     11.586
REMARK  Name = pdb/CHEMBL3678285.pdb
REMARK                            x       y       z     vdW  Elec       q    Type
REMARK                         _______ _______ _______ _____ _____    ______ ____
ROOT
ATOM      1  C   LIG    1      -37.237  66.978  23.221  0.00  0.00    +0.162 A 
ATOM      2  C   LIG    1      -37.888  68.177  22.903  0.00  0.00    +0.162 A 
ATOM      3  C   LIG    1      -38.021  68.540  21.548  0.00  0.00    +0.050 A 
ATOM      4  C   LIG    1      -37.519  67.728  20.519  0.00  0.00    +0.009 A 
ATOM      5  C   LIG    1      -36.883  66.529  20.835  0.00  0.00    -0.024 A 
ATOM      6  C   LIG    1      -36.736  66.193  22.187  0.00  0.00    +0.054 A 
ENDROOT
BRANCH   1   8
ATOM      7  C   LIG    1      -35.726  66.860  25.061  0.00  0.00    +0.277 C 
ATOM      8  O   LIG    1      -37.026  66.629  24.527  0.00  0.00    -0.491 OA
ENDBRANCH   1   8
BRANCH   2   9
ATOM      9  O   LIG    1      -38.442  69.080  23.779  0.00  0.00    -0.484 OA
BRANCH   9  10
ATOM     10  C   LIG    1      -37.581  70.107  24.284  0.00  0.00    +0.266 C 
BRANCH  10  11
ATOM     11  C   LIG    1      -38.292  71.430  24.363  0.00  0.00    +0.008 A 
ATOM     12  C   LIG    1      -37.644  72.541  24.894  0.00  0.00    +0.118 A 
ATOM     13  N   LIG    1      -38.185  73.779  24.968  0.00  0.00    -0.259 NA
ATOM     14  C   LIG    1      -39.440  73.942  24.486  0.00  0.00    +0.044 A 
ATOM     15  C   LIG    1      -40.187  72.867  24.002  0.00  0.00    +0.024 A 
ATOM     16  C   LIG    1      -39.611  71.599  23.957  0.00  0.00    +0.010 A 
BRANCH  14  17
ATOM     17  C   LIG    1      -40.042  75.337  24.503  0.00  0.00    +0.032 C 
ATOM     18  C   LIG    1      -41.152  75.519  23.461  0.00  0.00    +0.014 C 
ATOM     19  C   LIG    1      -38.970  76.407  24.299  0.00  0.00    +0.014 C 
ENDBRANCH  14  17
ENDBRANCH  10  11
ENDBRANCH   9  10
ENDBRANCH   2   9
BRANCH   5  20
ATOM     20  C   LIG    1      -36.321  65.582  19.800  0.00  0.00    +0.161 C 
BRANCH  20  21
ATOM     21  N   LIG    1      -35.561  66.297  18.794  0.00  0.00    -0.293 N 
ATOM     22  C   LIG    1      -34.254  66.708  18.914  0.00  0.00    +0.162 A 
ATOM     23  N   LIG    1      -33.406  66.490  19.945  0.00  0.00    -0.235 NA
ATOM     24  C   LIG    1      -32.168  66.998  19.710  0.00  0.00    +0.121 A 
ATOM     25  C   LIG    1      -31.747  67.683  18.565  0.00  0.00    +0.005 A 
ATOM     26  C   LIG    1      -32.690  67.875  17.543  0.00  0.00    +0.041 A 
ATOM     27  C   LIG    1      -33.974  67.362  17.729  0.00  0.00    +0.110 A 
ATOM     28  N   LIG    1      -35.081  67.390  16.913  0.00  0.00    -0.213 NA
ATOM     29  C   LIG    1      -35.998  66.735  17.563  0.00  0.00    +0.195 A 
BRANCH  25  30
ATOM     30  C   LIG    1      -30.387  68.181  18.445  0.00  0.00    +0.021 A 
ATOM     31  C   LIG    1      -30.000  69.495  18.624  0.00  0.00    +0.116 A 
ATOM     32  N   LIG    1      -28.653  69.538  18.417  0.00  0.00    -0.274 N 
ATOM     33  C   LIG    1      -27.819  70.713  18.486  0.00  0.00    +0.172 C 
ATOM     34  N   LIG    1      -28.120  68.342  18.120  0.00  0.00    -0.179 NA
ATOM     35  C   LIG    1      -29.172  67.519  18.137  0.00  0.00    +0.143 A 
ENDBRANCH  25  30
BRANCH  29  36
ATOM     36  N   LIG    1      -37.247  66.493  17.112  0.00  0.00    -0.329 N 
ATOM     37  H   LIG    1      -37.837  66.093  17.838  0.00  0.00    +0.145 HD
ATOM     38  H   LIG    1      -37.731  67.279  16.687  0.00  0.00    +0.145 HD
ENDBRANCH  29  36
ENDBRANCH  20  21
ENDBRANCH   5  20
TORSDOF 9
ENDMDL
MODEL 5
REMARK VINA RESULT:      -6.0     20.593     23.491
REMARK  Name = pdb/CHEMBL3678285.pdb
REMARK                            x       y       z     vdW  Elec       q    Type
REMARK                         _______ _______ _______ _____ _____    ______ ____
ROOT
ATOM      1  C   LIG    1      -22.765  90.693  10.997  0.00  0.00    +0.162 A 
ATOM      2  C   LIG    1      -24.124  90.370  10.889  0.00  0.00    +0.162 A 
ATOM      3  C   LIG    1      -24.551  89.086  11.280  0.00  0.00    +0.050 A 
ATOM      4  C   LIG    1      -23.648  88.132  11.775  0.00  0.00    +0.009 A 
ATOM      5  C   LIG    1      -22.299  88.457  11.895  0.00  0.00    -0.024 A 
ATOM      6  C   LIG    1      -21.884  89.729  11.479  0.00  0.00    +0.054 A 
ENDROOT
BRANCH   1   8
ATOM      7  C   LIG    1      -21.290  91.892   9.560  0.00  0.00    +0.277 C 
ATOM      8  O   LIG    1      -22.303  91.904  10.560  0.00  0.00    -0.491 OA
ENDBRANCH   1   8
BRANCH   2   9
ATOM      9  O   LIG    1      -25.138  91.181  10.436  0.00  0.00    -0.484 OA
BRANCH   9  10
ATOM     10  C   LIG    1      -26.359  91.175  11.186  0.00  0.00    +0.266 C 
BRANCH  10  11
ATOM     11  C   LIG    1      -26.447  92.363  12.102  0.00  0.00    +0.008 A 
ATOM     12  C   LIG    1      -26.972  92.221  13.382  0.00  0.00    +0.118 A 
ATOM     13  N   LIG    1      -27.055  93.221  14.291  0.00  0.00    -0.259 NA
ATOM     14  C   LIG    1      -26.588  94.438  13.924  0.00  0.00    +0.044 A 
ATOM     15  C   LIG    1      -26.110  94.685  12.636  0.00  0.00    +0.024 A 
ATOM     16  C   LIG    1      -26.057  93.641  11.715  0.00  0.00    +0.010 A 
BRANCH  14  17
ATOM     17  C   LIG    1      -26.613  95.557  14.951  0.00  0.00    +0.032 C 
ATOM     18  C   LIG    1      -27.986  95.730  15.611  0.00  0.00    +0.014 C 
ATOM     19  C   LIG    1      -26.172  96.885  14.336  0.00  0.00    +0.014 C 
ENDBRANCH  14  17
ENDBRANCH  10  11
ENDBRANCH   9  10
ENDBRANCH   2   9
BRANCH   5  20
ATOM     20  C   LIG    1      -21.253  87.506  12.427  0.00  0.00    +0.161 C 
BRANCH  20  21
ATOM     21  N   LIG    1      -21.707  86.852  13.638  0.00  0.00    -0.293 N 
ATOM     22  C   LIG    1      -21.976  85.510  13.775  0.00  0.00    +0.162 A 
ATOM     23  N   LIG    1      -21.823  84.533  12.852  0.00  0.00    -0.235 NA
ATOM     24  C   LIG    1      -22.139  83.307  13.343  0.00  0.00    +0.121 A 
ATOM     25  C   LIG    1      -22.584  83.010  14.637  0.00  0.00    +0.005 A 
ATOM     26  C   LIG    1      -22.723  84.081  15.533  0.00  0.00    +0.041 A 
ATOM     27  C   LIG    1      -22.400  85.362  15.083  0.00  0.00    +0.110 A 
ATOM     28  N   LIG    1      -22.429  86.576  15.728  0.00  0.00    -0.213 NA
ATOM     29  C   LIG    1      -21.996  87.436  14.852  0.00  0.00    +0.195 A 
BRANCH  25  30
ATOM     30  C   LIG    1      -22.893  81.646  15.031  0.00  0.00    +0.021 A 
ATOM     31  C   LIG    1      -24.146  81.067  14.979  0.00  0.00    +0.116 A 
ATOM     32  N   LIG    1      -24.006  79.790  15.438  0.00  0.00    -0.274 N 
ATOM     33  C   LIG    1      -25.060  78.815  15.573  0.00  0.00    +0.172 C 
ATOM     34  N   LIG    1      -22.745  79.483  15.784  0.00  0.00    -0.179 NA
ATOM     35  C   LIG    1      -22.071  80.609  15.536  0.00  0.00    +0.143 A 
ENDBRANCH  25  30
BRANCH  29  36
ATOM     36  N   LIG    1      -21.835  88.758  15.074  0.00  0.00    -0.329 N 
ATOM     37  H   LIG    1      -21.056  89.136  14.541  0.00  0.00    +0.145 HD
ATOM     38  H   LIG    1      -22.654  89.340  14.926  0.00  0.00    +0.145 HD
ENDBRANCH  29  36
ENDBRANCH  20  21
ENDBRANCH   5  20
TORSDOF 9
ENDMDL
MODEL 6
REMARK VINA RESULT:      -6.0      5.853      9.606
REMARK  Name = pdb/CHEMBL3678285.pdb
REMARK                            x       y       z     vdW  Elec       q    Type
REMARK                         _______ _______ _______ _____ _____    ______ ____
ROOT
ATOM      1  C   LIG    1      -34.478  79.285  29.881  0.00  0.00    +0.162 A 
ATOM      2  C   LIG    1      -33.917  79.060  28.617  0.00  0.00    +0.162 A 
ATOM      3  C   LIG    1      -34.094  80.031  27.612  0.00  0.00    +0.050 A 
ATOM      4  C   LIG    1      -34.813  81.212  27.851  0.00  0.00    +0.009 A 
ATOM      5  C   LIG    1      -35.360  81.442  29.112  0.00  0.00    -0.024 A 
ATOM      6  C   LIG    1      -35.199  80.457  30.095  0.00  0.00    +0.054 A 
ENDROOT
BRANCH   1   8
ATOM      7  C   LIG    1      -34.622  78.753  32.200  0.00  0.00    +0.277 C 
ATOM      8  O   LIG    1      -34.390  78.333  30.859  0.00  0.00    -0.491 OA
ENDBRANCH   1   8
BRANCH   2   9
ATOM      9  O   LIG    1      -33.181  77.970  28.217  0.00  0.00    -0.484 OA
BRANCH   9  10
ATOM     10  C   LIG    1      -33.903  76.871  27.649  0.00  0.00    +0.266 C 
BRANCH  10  11
ATOM     11  C   LIG    1      -33.421  75.556  28.195  0.00  0.00    +0.008 A 
ATOM     12  C   LIG    1      -32.309  75.512  29.030  0.00  0.00    +0.118 A 
ATOM     13  N   LIG    1      -31.827  74.384  29.602  0.00  0.00    -0.259 NA
ATOM     14  C   LIG    1      -32.478  73.226  29.346  0.00  0.00    +0.044 A 
ATOM     15  C   LIG    1      -33.559  73.169  28.465  0.00  0.00    +0.024 A 
ATOM     16  C   LIG    1      -34.020  74.343  27.873  0.00  0.00    +0.010 A 
BRANCH  14  17
ATOM     17  C   LIG    1      -31.990  71.959  30.029  0.00  0.00    +0.032 C 
ATOM     18  C   LIG    1      -32.185  71.989  31.549  0.00  0.00    +0.014 C 
ATOM     19  C   LIG    1      -30.522  71.684  29.707  0.00  0.00    +0.014 C 
ENDBRANCH  14  17
ENDBRANCH  10  11
ENDBRANCH   9  10
ENDBRANCH   2   9
BRANCH   5  20
ATOM     20  C   LIG    1      -36.140  82.686  29.472  0.00  0.00    +0.161 C 
BRANCH  20  21
ATOM     21  N   LIG    1      -35.428  83.883  29.070  0.00  0.00    -0.293 N 
ATOM     22  C   LIG    1      -34.353  84.438  29.726  0.00  0.00    +0.162 A 
ATOM     23  N   LIG    1      -33.715  83.967  30.822  0.00  0.00    -0.235 NA
ATOM     24  C   LIG    1      -32.659  84.745  31.177  0.00  0.00    +0.121 A 
ATOM     25  C   LIG    1      -32.226  85.912  30.538  0.00  0.00    +0.005 A 
ATOM     26  C   LIG    1      -32.947  86.338  29.412  0.00  0.00    +0.041 A 
ATOM     27  C   LIG    1      -34.034  85.569  28.997  0.00  0.00    +0.110 A 
ATOM     28  N   LIG    1      -34.903  85.732  27.944  0.00  0.00    -0.213 NA
ATOM     29  C   LIG    1      -35.705  84.709  28.003  0.00  0.00    +0.195 A 
BRANCH  25  30
ATOM     30  C   LIG    1      -31.077  86.654  31.029  0.00  0.00    +0.021 A 
ATOM     31  C   LIG    1      -30.750  86.829  32.359  0.00  0.00    +0.116 A 
ATOM     32  N   LIG    1      -29.615  87.584  32.388  0.00  0.00    -0.274 N 
ATOM     33  C   LIG    1      -28.917  88.026  33.570  0.00  0.00    +0.172 C 
ATOM     34  N   LIG    1      -29.164  87.916  31.167  0.00  0.00    -0.179 NA
ATOM     35  C   LIG    1      -30.051  87.352  30.343  0.00  0.00    +0.143 A 
ENDBRANCH  25  30
BRANCH  29  36
ATOM     36  N   LIG    1      -36.705  84.454  27.133  0.00  0.00    -0.329 N 
ATOM     37  H   LIG    1      -37.545  84.135  27.610  0.00  0.00    +0.145 HD
ATOM     38  H   LIG    1      -36.950  85.208  26.498  0.00  0.00    +0.145 HD
ENDBRANCH  29  36
ENDBRANCH  20  21
ENDBRANCH   5  20
TORSDOF 9
ENDMDL
MODEL 7
REMARK VINA RESULT:      -6.0      5.007      8.518
REMARK  Name = pdb/CHEMBL3678285.pdb
REMARK                            x       y       z     vdW  Elec       q    Type
REMARK                         _______ _______ _______ _____ _____    ______ ____
ROOT
ATOM      1  C   LIG    1      -39.310  68.747  21.576  0.00  0.00    +0.162 A 
ATOM      2  C   LIG    1      -39.642  69.753  22.493  0.00  0.00    +0.162 A 
ATOM      3  C   LIG    1      -38.700  70.119  23.473  0.00  0.00    +0.050 A 
ATOM      4  C   LIG    1      -37.441  69.502  23.547  0.00  0.00    +0.009 A 
ATOM      5  C   LIG    1      -37.105  68.510  22.627  0.00  0.00    -0.024 A 
ATOM      6  C   LIG    1      -38.061  68.139  21.673  0.00  0.00    +0.054 A 
ENDROOT
BRANCH   1   8
ATOM      7  C   LIG    1      -40.806  67.033  20.868  0.00  0.00    +0.277 C 
ATOM      8  O   LIG    1      -40.226  68.316  20.656  0.00  0.00    -0.491 OA
ENDBRANCH   1   8
BRANCH   2   9
ATOM      9  O   LIG    1      -40.819  70.462  22.558  0.00  0.00    -0.484 OA
BRANCH   9  10
ATOM     10  C   LIG    1      -41.132  71.087  23.808  0.00  0.00    +0.266 C 
BRANCH  10  11
ATOM     11  C   LIG    1      -41.129  72.585  23.690  0.00  0.00    +0.008 A 
ATOM     12  C   LIG    1      -42.207  73.242  23.104  0.00  0.00    +0.118 A 
ATOM     13  N   LIG    1      -42.312  74.587  22.990  0.00  0.00    -0.259 NA
ATOM     14  C   LIG    1      -41.301  75.337  23.486  0.00  0.00    +0.044 A 
ATOM     15  C   LIG    1      -40.151  74.758  24.026  0.00  0.00    +0.024 A 
ATOM     16  C   LIG    1      -40.061  73.370  24.111  0.00  0.00    +0.010 A 
BRANCH  14  17
ATOM     17  C   LIG    1      -41.430  76.850  23.425  0.00  0.00    +0.032 C 
ATOM     18  C   LIG    1      -40.073  77.562  23.376  0.00  0.00    +0.014 C 
ATOM     19  C   LIG    1      -42.246  77.386  24.600  0.00  0.00    +0.014 C 
ENDBRANCH  14  17
ENDBRANCH  10  11
ENDBRANCH   9  10
ENDBRANCH   2   9
BRANCH   5  20
ATOM     20  C   LIG    1      -35.773  67.797  22.616  0.00  0.00    +0.161 C 
BRANCH  20  21
ATOM     21  N   LIG    1      -35.473  67.229  23.915  0.00  0.00    -0.293 N 
ATOM     22  C   LIG    1      -34.821  67.872  24.943  0.00  0.00    +0.162 A 
ATOM     23  N   LIG    1      -34.384  69.151  24.978  0.00  0.00    -0.235 NA
ATOM     24  C   LIG    1      -33.824  69.471  26.174  0.00  0.00    +0.121 A 
ATOM     25  C   LIG    1      -33.674  68.629  27.281  0.00  0.00    +0.005 A 
ATOM     26  C   LIG    1      -34.147  67.314  27.162  0.00  0.00    +0.041 A 
ATOM     27  C   LIG    1      -34.743  66.936  25.958  0.00  0.00    +0.110 A 
ATOM     28  N   LIG    1      -35.295  65.740  25.563  0.00  0.00    -0.213 NA
ATOM     29  C   LIG    1      -35.735  65.950  24.357  0.00  0.00    +0.195 A 
BRANCH  25  30
ATOM     30  C   LIG    1      -33.047  69.102  28.505  0.00  0.00    +0.021 A 
ATOM     31  C   LIG    1      -32.379  68.308  29.415  0.00  0.00    +0.116 A 
ATOM     32  N   LIG    1      -31.951  69.132  30.414  0.00  0.00    -0.274 N 
ATOM     33  C   LIG    1      -31.217  68.734  31.589  0.00  0.00    +0.172 C 
ATOM     34  N   LIG    1      -32.286  70.419  30.224  0.00  0.00    -0.179 NA
ATOM     35  C   LIG    1      -32.951  70.400  29.065  0.00  0.00    +0.143 A 
ENDBRANCH  25  30
BRANCH  29  36
ATOM     36  N   LIG    1      -36.380  65.042  23.595  0.00  0.00    -0.329 N 
ATOM     37  H   LIG    1      -36.761  64.284  24.157  0.00  0.00    +0.145 HD
ATOM     38  H   LIG    1      -37.108  65.403  22.986  0.00  0.00    +0.145 HD
ENDBRANCH  29  36
ENDBRANCH  20  21
ENDBRANCH   5  20
TORSDOF 9
ENDMDL
MODEL 8
REMARK VINA RESULT:      -5.9     16.444     17.895
REMARK  Name = pdb/CHEMBL3678285.pdb
REMARK                            x       y       z     vdW  Elec       q    Type
REMARK                         _______ _______ _______ _____ _____    ______ ____
ROOT
ATOM      1  C   LIG    1      -29.798  80.510   9.546  0.00  0.00    +0.162 A 
ATOM      2  C   LIG    1      -31.078  80.412  10.103  0.00  0.00    +0.162 A 
ATOM      3  C   LIG    1      -31.384  79.303  10.915  0.00  0.00    +0.050 A 
ATOM      4  C   LIG    1      -30.435  78.302  11.177  0.00  0.00    +0.009 A 
ATOM      5  C   LIG    1      -29.157  78.405  10.633  0.00  0.00    -0.024 A 
ATOM      6  C   LIG    1      -28.874  79.501   9.807  0.00  0.00    +0.054 A 
ENDROOT
BRANCH   1   8
ATOM      7  C   LIG    1      -29.035  82.753   9.279  0.00  0.00    +0.277 C 
ATOM      8  O   LIG    1      -29.487  81.535   8.695  0.00  0.00    -0.491 OA
ENDBRANCH   1   8
BRANCH   2   9
ATOM      9  O   LIG    1      -32.118  81.300   9.958  0.00  0.00    -0.484 OA
BRANCH   9  10
ATOM     10  C   LIG    1      -33.376  80.764   9.530  0.00  0.00    +0.266 C 
BRANCH  10  11
ATOM     11  C   LIG    1      -34.512  81.685   9.876  0.00  0.00    +0.008 A 
ATOM     12  C   LIG    1      -34.431  82.504  10.998  0.00  0.00    +0.118 A 
ATOM     13  N   LIG    1      -35.383  83.393  11.366  0.00  0.00    -0.259 NA
ATOM     14  C   LIG    1      -36.482  83.492  10.582  0.00  0.00    +0.044 A 
ATOM     15  C   LIG    1      -36.676  82.660   9.479  0.00  0.00    +0.024 A 
ATOM     16  C   LIG    1      -35.688  81.739   9.136  0.00  0.00    +0.010 A 
BRANCH  14  17
ATOM     17  C   LIG    1      -37.533  84.529  10.943  0.00  0.00    +0.032 C 
ATOM     18  C   LIG    1      -37.378  85.061  12.372  0.00  0.00    +0.014 C 
ATOM     19  C   LIG    1      -38.945  83.978  10.754  0.00  0.00    +0.014 C 
ENDBRANCH  14  17
ENDBRANCH  10  11
ENDBRANCH   9  10
ENDBRANCH   2   9
BRANCH   5  20
ATOM     20  C   LIG    1      -28.064  77.388  10.865  0.00  0.00    +0.161 C 
BRANCH  20  21
ATOM     21  N   LIG    1      -27.604  77.419  12.239  0.00  0.00    -0.293 N 
ATOM     22  C   LIG    1      -26.679  78.295  12.758  0.00  0.00    +0.162 A 
ATOM     23  N   LIG    1      -26.060  79.320  12.129  0.00  0.00    -0.235 NA
ATOM     24  C   LIG    1      -25.238  80.013  12.959  0.00  0.00    +0.121 A 
ATOM     25  C   LIG    1      -25.002  79.753  14.314  0.00  0.00    +0.005 A 
ATOM     26  C   LIG    1      -25.677  78.667  14.891  0.00  0.00    +0.041 A 
ATOM     27  C   LIG    1      -26.544  77.928  14.085  0.00  0.00    +0.110 A 
ATOM     28  N   LIG    1      -27.331  76.838  14.372  0.00  0.00    -0.213 NA
ATOM     29  C   LIG    1      -27.960  76.571  13.265  0.00  0.00    +0.195 A 
BRANCH  25  30
ATOM     30  C   LIG    1      -24.088  80.576  15.089  0.00  0.00    +0.021 A 
ATOM     31  C   LIG    1      -23.877  81.927  14.899  0.00  0.00    +0.116 A 
ATOM     32  N   LIG    1      -22.948  82.311  15.820  0.00  0.00    -0.274 N 
ATOM     33  C   LIG    1      -22.412  83.640  15.984  0.00  0.00    +0.172 C 
ATOM     34  N   LIG    1      -22.532  81.308  16.610  0.00  0.00    -0.179 NA
ATOM     35  C   LIG    1      -23.224  80.255  16.166  0.00  0.00    +0.143 A 
ENDBRANCH  25  30
BRANCH  29  36
ATOM     36  N   LIG    1      -28.867  75.584  13.104  0.00  0.00    -0.329 N 
ATOM     37  H   LIG    1      -29.565  75.826  12.405  0.00  0.00    +0.145 HD
ATOM     38  H   LIG    1      -28.494  74.662  12.897  0.00  0.00    +0.145 HD
ENDBRANCH  29  36
ENDBRANCH  20  21
ENDBRANCH   5  20
TORSDOF 9
ENDMDL
MODEL 9
REMARK VINA RESULT:      -5.9      4.773      7.904
REMARK  Name = pdb/CHEMBL3678285.pdb
REMARK                            x       y       z     vdW  Elec       q    Type
REMARK                         _______ _______ _______ _____ _____    ______ ____
ROOT
ATOM      1  C   LIG    1      -34.113  68.480  26.779  0.00  0.00    +0.162 A 
ATOM      2  C   LIG    1      -34.581  69.052  25.589  0.00  0.00    +0.162 A 
ATOM      3  C   LIG    1      -35.075  70.371  25.616  0.00  0.00    +0.050 A 
ATOM      4  C   LIG    1      -35.103  71.119  26.803  0.00  0.00    +0.009 A 
ATOM      5  C   LIG    1      -34.626  70.555  27.984  0.00  0.00    -0.024 A 
ATOM      6  C   LIG    1      -34.161  69.235  27.948  0.00  0.00    +0.054 A 
ENDROOT
BRANCH   1   8
ATOM      7  C   LIG    1      -34.690  66.177  26.988  0.00  0.00    +0.277 C 
ATOM      8  O   LIG    1      -33.694  67.178  26.806  0.00  0.00    -0.491 OA
ENDBRANCH   1   8
BRANCH   2   9
ATOM      9  O   LIG    1      -34.618  68.468  24.345  0.00  0.00    -0.484 OA
BRANCH   9  10
ATOM     10  C   LIG    1      -35.903  68.080  23.846  0.00  0.00    +0.266 C 
BRANCH  10  11
ATOM     11  C   LIG    1      -35.833  67.676  22.400  0.00  0.00    +0.008 A 
ATOM     12  C   LIG    1      -34.718  66.997  21.918  0.00  0.00    +0.118 A 
ATOM     13  N   LIG    1      -34.582  66.557  20.646  0.00  0.00    -0.259 NA
ATOM     14  C   LIG    1      -35.605  66.791  19.791  0.00  0.00    +0.044 A 
ATOM     15  C   LIG    1      -36.729  67.525  20.173  0.00  0.00    +0.024 A 
ATOM     16  C   LIG    1      -36.832  67.984  21.484  0.00  0.00    +0.010 A 
BRANCH  14  17
ATOM     17  C   LIG    1      -35.499  66.249  18.375  0.00  0.00    +0.032 C 
ATOM     18  C   LIG    1      -34.793  67.217  17.418  0.00  0.00    +0.014 C 
ATOM     19  C   LIG    1      -36.873  65.888  17.813  0.00  0.00    +0.014 C 
ENDBRANCH  14  17
ENDBRANCH  10  11
ENDBRANCH   9  10
ENDBRANCH   2   9
BRANCH   5  20
ATOM     20  C   LIG    1      -34.603  71.282  29.309  0.00  0.00    +0.161 C 
BRANCH  20  21
ATOM     21  N   LIG    1      -33.629  72.356  29.299  0.00  0.00    -0.293 N 
ATOM     22  C   LIG    1      -33.849  73.638  28.850  0.00  0.00    +0.162 A 
ATOM     23  N   LIG    1      -35.003  74.169  28.386  0.00  0.00    -0.235 NA
ATOM     24  C   LIG    1      -34.875  75.484  28.071  0.00  0.00    +0.121 A 
ATOM     25  C   LIG    1      -33.717  76.263  28.179  0.00  0.00    +0.005 A 
ATOM     26  C   LIG    1      -32.559  75.635  28.662  0.00  0.00    +0.041 A 
ATOM     27  C   LIG    1      -32.639  74.286  29.012  0.00  0.00    +0.110 A 
ATOM     28  N   LIG    1      -31.688  73.428  29.512  0.00  0.00    -0.213 NA
ATOM     29  C   LIG    1      -32.309  72.299  29.689  0.00  0.00    +0.195 A 
BRANCH  25  30
ATOM     30  C   LIG    1      -33.717  77.666  27.800  0.00  0.00    +0.021 A 
ATOM     31  C   LIG    1      -34.655  78.598  28.197  0.00  0.00    +0.116 A 
ATOM     32  N   LIG    1      -34.297  79.782  27.622  0.00  0.00    -0.274 N 
ATOM     33  C   LIG    1      -34.999  81.036  27.750  0.00  0.00    +0.172 C 
ATOM     34  N   LIG    1      -33.185  79.699  26.875  0.00  0.00    -0.179 NA
ATOM     35  C   LIG    1      -32.832  78.414  26.984  0.00  0.00    +0.143 A 
ENDBRANCH  25  30
BRANCH  29  36
ATOM     36  N   LIG    1      -31.753  71.177  30.195  0.00  0.00    -0.329 N 
ATOM     37  H   LIG    1      -32.437  70.430  30.291  0.00  0.00    +0.145 HD
ATOM     38  H   LIG    1      -30.938  70.821  29.706  0.00  0.00    +0.145 HD
ENDBRANCH  29  36
ENDBRANCH  20  21
ENDBRANCH   5  20
TORSDOF 9
ENDMDL
