MODEL 1
REMARK VINA RESULT:      -6.9      0.000      0.000
REMARK  Name = pdb/CHEMBL3911127.pdb
REMARK                            x       y       z     vdW  Elec       q    Type
REMARK                         _______ _______ _______ _____ _____    ______ ____
ROOT
ATOM      1  C   LIG    1      -36.453  71.243  25.879  0.00  0.00    +0.129 A 
ATOM      2  N   LIG    1      -37.599  71.651  25.169  0.00  0.00    -0.218 N 
ATOM      3  N   LIG    1      -38.223  70.564  24.607  0.00  0.00    -0.160 NA
ATOM      4  C   LIG    1      -37.596  69.476  25.112  0.00  0.00    +0.149 A 
ATOM      5  C   LIG    1      -36.542  69.878  25.947  0.00  0.00    +0.078 A 
ENDROOT
BRANCH   2   6
ATOM      6  C   LIG    1      -38.176  72.957  25.024  0.00  0.00    +0.067 A 
ATOM      7  C   LIG    1      -37.441  74.089  25.426  0.00  0.00    +0.028 A 
ATOM      8  C   LIG    1      -37.935  75.383  25.207  0.00  0.00    +0.002 A 
ATOM      9  C   LIG    1      -39.165  75.566  24.583  0.00  0.00    +0.000 A 
ATOM     10  C   LIG    1      -39.910  74.457  24.195  0.00  0.00    +0.002 A 
ATOM     11  C   LIG    1      -39.420  73.159  24.408  0.00  0.00    +0.028 A 
ENDBRANCH   2   6
BRANCH   1  13
ATOM     12  C   LIG    1      -35.362  72.532  27.727  0.00  0.00    +0.251 C 
ATOM     13  N   LIG    1      -35.396  72.048  26.363  0.00  0.00    -0.266 N 
ATOM     14  H   LIG    1      -34.623  72.244  25.759  0.00  0.00    +0.157 HD
ATOM     15  O   LIG    1      -36.271  72.256  28.489  0.00  0.00    -0.270 OA
BRANCH  12  20
ATOM     16  C   LIG    1      -31.305  75.999  29.980  0.00  0.00    +0.044 C 
ATOM     17  C   LIG    1      -32.308  75.146  29.238  0.00  0.00    -0.040 A 
ATOM     18  C   LIG    1      -33.339  75.678  28.421  0.00  0.00    +0.007 A 
ATOM     19  C   LIG    1      -34.282  74.725  27.963  0.00  0.00    +0.025 A 
ATOM     20  C   LIG    1      -34.221  73.331  28.238  0.00  0.00    +0.056 A 
ATOM     21  C   LIG    1      -33.132  72.846  28.935  0.00  0.00    +0.053 A 
ATOM     22 CL   LIG    1      -32.875  71.179  29.291  0.00  0.00    -0.083 Cl
ATOM     23  C   LIG    1      -32.184  73.747  29.425  0.00  0.00    +0.024 A 
BRANCH  18  24
ATOM     24  C   LIG    1      -33.465  77.134  28.040  0.00  0.00    +0.106 A 
ATOM     25  C   LIG    1      -32.659  77.803  27.106  0.00  0.00    +0.149 A 
ATOM     26  F   LIG    1      -31.693  77.192  26.409  0.00  0.00    -0.203 F 
ATOM     27  C   LIG    1      -32.828  79.167  26.866  0.00  0.00    +0.042 A 
ATOM     28  C   LIG    1      -33.814  79.863  27.545  0.00  0.00    +0.023 A 
ATOM     29  C   LIG    1      -34.587  79.157  28.441  0.00  0.00    +0.111 A 
ATOM     30  N   LIG    1      -34.424  77.837  28.700  0.00  0.00    -0.252 NA
ENDBRANCH  18  24
ENDBRANCH  12  20
ENDBRANCH   1  13
BRANCH   4  31
ATOM     31  C   LIG    1      -38.041  68.123  24.733  0.00  0.00    +0.236 C 
ATOM     32  N   LIG    1      -37.727  67.383  23.737  0.00  0.00    -0.246 NA
BRANCH  31  33
ATOM     33  O   LIG    1      -38.945  67.613  25.605  0.00  0.00    -0.491 OA
ATOM     34  H   LIG    1      -39.356  66.817  25.219  0.00  0.00    +0.294 HD
ENDBRANCH  31  33
BRANCH  32  35
ATOM     35  C   LIG    1      -36.802  67.686  22.645  0.00  0.00    +0.179 C 
BRANCH  35  36
ATOM     36  C   LIG    1      -35.371  67.187  23.031  0.00  0.00    +0.080 C 
ATOM     37  C   LIG    1      -34.548  66.787  21.801  0.00  0.00    +0.043 C 
ATOM     38  C   LIG    1      -35.414  65.997  23.994  0.00  0.00    +0.043 C 
BRANCH  36  39
ATOM     39  O   LIG    1      -34.666  68.256  23.673  0.00  0.00    -0.387 OA
ATOM     40  H   LIG    1      -35.304  68.646  24.303  0.00  0.00    +0.210 HD
ENDBRANCH  36  39
ENDBRANCH  35  36
ENDBRANCH  32  35
ENDBRANCH   4  31
TORSDOF 9
ENDMDL
MODEL 2
REMARK VINA RESULT:      -6.8      0.788      1.405
REMARK  Name = pdb/CHEMBL3911127.pdb
REMARK                            x       y       z     vdW  Elec       q    Type
REMARK                         _______ _______ _______ _____ _____    ______ ____
ROOT
ATOM      1  C   LIG    1      -36.291  71.130  26.089  0.00  0.00    +0.129 A 
ATOM      2  N   LIG    1      -37.426  71.499  25.341  0.00  0.00    -0.218 N 
ATOM      3  N   LIG    1      -38.059  70.382  24.853  0.00  0.00    -0.160 NA
ATOM      4  C   LIG    1      -37.451  69.326  25.441  0.00  0.00    +0.149 A 
ATOM      5  C   LIG    1      -36.398  69.774  26.255  0.00  0.00    +0.078 A 
ENDROOT
BRANCH   2   6
ATOM      6  C   LIG    1      -37.984  72.799  25.096  0.00  0.00    +0.067 A 
ATOM      7  C   LIG    1      -39.186  72.913  24.373  0.00  0.00    +0.028 A 
ATOM      8  C   LIG    1      -39.807  74.159  24.202  0.00  0.00    +0.002 A 
ATOM      9  C   LIG    1      -39.241  75.305  24.751  0.00  0.00    +0.000 A 
ATOM     10  C   LIG    1      -38.043  75.209  25.455  0.00  0.00    +0.002 A 
ATOM     11  C   LIG    1      -37.418  73.965  25.632  0.00  0.00    +0.028 A 
ENDBRANCH   2   6
BRANCH   1  13
ATOM     12  C   LIG    1      -35.164  72.479  27.871  0.00  0.00    +0.251 C 
ATOM     13  N   LIG    1      -35.228  71.954  26.523  0.00  0.00    -0.266 N 
ATOM     14  H   LIG    1      -34.471  72.136  25.895  0.00  0.00    +0.157 HD
ATOM     15  O   LIG    1      -36.053  72.221  28.662  0.00  0.00    -0.270 OA
BRANCH  12  20
ATOM     16  C   LIG    1      -31.074  76.024  29.936  0.00  0.00    +0.044 C 
ATOM     17  C   LIG    1      -32.093  75.150  29.240  0.00  0.00    -0.040 A 
ATOM     18  C   LIG    1      -33.164  75.660  28.462  0.00  0.00    +0.007 A 
ATOM     19  C   LIG    1      -34.109  74.690  28.048  0.00  0.00    +0.025 A 
ATOM     20  C   LIG    1      -34.016  73.299  28.330  0.00  0.00    +0.056 A 
ATOM     21  C   LIG    1      -32.893  72.836  28.987  0.00  0.00    +0.053 A 
ATOM     22 CL   LIG    1      -32.596  71.176  29.343  0.00  0.00    -0.083 Cl
ATOM     23  C   LIG    1      -31.940  73.755  29.432  0.00  0.00    +0.024 A 
BRANCH  18  24
ATOM     24  C   LIG    1      -33.328  77.111  28.075  0.00  0.00    +0.106 A 
ATOM     25  C   LIG    1      -32.588  77.779  27.087  0.00  0.00    +0.149 A 
ATOM     26  F   LIG    1      -31.660  77.170  26.337  0.00  0.00    -0.203 F 
ATOM     27  C   LIG    1      -32.784  79.138  26.845  0.00  0.00    +0.042 A 
ATOM     28  C   LIG    1      -33.732  79.833  27.578  0.00  0.00    +0.023 A 
ATOM     29  C   LIG    1      -34.442  79.128  28.527  0.00  0.00    +0.111 A 
ATOM     30  N   LIG    1      -34.250  77.812  28.788  0.00  0.00    -0.252 NA
ENDBRANCH  18  24
ENDBRANCH  12  20
ENDBRANCH   1  13
BRANCH   4  31
ATOM     31  C   LIG    1      -37.910  67.954  25.157  0.00  0.00    +0.236 C 
ATOM     32  N   LIG    1      -37.546  67.114  24.263  0.00  0.00    -0.246 NA
BRANCH  31  33
ATOM     33  O   LIG    1      -38.895  67.555  25.999  0.00  0.00    -0.491 OA
ATOM     34  H   LIG    1      -38.791  68.006  26.858  0.00  0.00    +0.294 HD
ENDBRANCH  31  33
BRANCH  32  35
ATOM     35  C   LIG    1      -36.530  67.287  23.225  0.00  0.00    +0.179 C 
BRANCH  35  36
ATOM     36  C   LIG    1      -37.173  67.993  21.988  0.00  0.00    +0.080 C 
ATOM     37  C   LIG    1      -38.696  67.822  21.952  0.00  0.00    +0.043 C 
ATOM     38  C   LIG    1      -36.595  67.480  20.665  0.00  0.00    +0.043 C 
BRANCH  36  39
ATOM     39  O   LIG    1      -36.914  69.400  22.073  0.00  0.00    -0.387 OA
ATOM     40  H   LIG    1      -37.773  69.832  21.903  0.00  0.00    +0.210 HD
ENDBRANCH  36  39
ENDBRANCH  35  36
ENDBRANCH  32  35
ENDBRANCH   4  31
TORSDOF 9
ENDMDL
MODEL 3
REMARK VINA RESULT:      -6.6      2.064      4.780
REMARK  Name = pdb/CHEMBL3911127.pdb
REMARK                            x       y       z     vdW  Elec       q    Type
REMARK                         _______ _______ _______ _____ _____    ______ ____
ROOT
ATOM      1  C   LIG    1      -35.724  70.884  25.959  0.00  0.00    +0.129 A 
ATOM      2  N   LIG    1      -36.027  69.563  26.341  0.00  0.00    -0.218 N 
ATOM      3  N   LIG    1      -37.255  69.194  25.848  0.00  0.00    -0.160 NA
ATOM      4  C   LIG    1      -37.632  70.190  25.012  0.00  0.00    +0.149 A 
ATOM      5  C   LIG    1      -36.668  71.211  25.022  0.00  0.00    +0.078 A 
ENDROOT
BRANCH   2   6
ATOM      6  C   LIG    1      -35.240  68.615  27.077  0.00  0.00    +0.067 A 
ATOM      7  C   LIG    1      -35.149  68.727  28.477  0.00  0.00    +0.028 A 
ATOM      8  C   LIG    1      -34.471  67.761  29.234  0.00  0.00    +0.002 A 
ATOM      9  C   LIG    1      -33.876  66.671  28.607  0.00  0.00    +0.000 A 
ATOM     10  C   LIG    1      -33.944  66.555  27.221  0.00  0.00    +0.002 A 
ATOM     11  C   LIG    1      -34.624  67.517  26.458  0.00  0.00    +0.028 A 
ENDBRANCH   2   6
BRANCH   1  13
ATOM     12  C   LIG    1      -34.866  72.445  27.718  0.00  0.00    +0.251 C 
ATOM     13  N   LIG    1      -34.712  71.729  26.470  0.00  0.00    -0.266 N 
ATOM     14  H   LIG    1      -33.842  71.791  25.980  0.00  0.00    +0.157 HD
ATOM     15  O   LIG    1      -35.900  72.336  28.353  0.00  0.00    -0.270 OA
BRANCH  12  20
ATOM     16  C   LIG    1      -31.029  76.063  30.114  0.00  0.00    +0.044 C 
ATOM     17  C   LIG    1      -31.970  75.172  29.337  0.00  0.00    -0.040 A 
ATOM     18  C   LIG    1      -32.985  75.663  28.475  0.00  0.00    +0.007 A 
ATOM     19  C   LIG    1      -33.873  74.675  27.984  0.00  0.00    +0.025 A 
ATOM     20  C   LIG    1      -33.776  73.285  28.271  0.00  0.00    +0.056 A 
ATOM     21  C   LIG    1      -32.700  72.842  29.016  0.00  0.00    +0.053 A 
ATOM     22 CL   LIG    1      -32.401  71.187  29.393  0.00  0.00    -0.083 Cl
ATOM     23  C   LIG    1      -31.806  73.779  29.538  0.00  0.00    +0.024 A 
BRANCH  18  24
ATOM     24  C   LIG    1      -33.145  77.112  28.078  0.00  0.00    +0.106 A 
ATOM     25  C   LIG    1      -32.449  77.754  27.042  0.00  0.00    +0.149 A 
ATOM     26  F   LIG    1      -31.574  77.120  26.252  0.00  0.00    -0.203 F 
ATOM     27  C   LIG    1      -32.635  79.113  26.794  0.00  0.00    +0.042 A 
ATOM     28  C   LIG    1      -33.531  79.833  27.567  0.00  0.00    +0.023 A 
ATOM     29  C   LIG    1      -34.200  79.152  28.563  0.00  0.00    +0.111 A 
ATOM     30  N   LIG    1      -34.015  77.836  28.830  0.00  0.00    -0.252 NA
ENDBRANCH  18  24
ENDBRANCH  12  20
ENDBRANCH   1  13
BRANCH   4  31
ATOM     31  C   LIG    1      -38.909  70.099  24.282  0.00  0.00    +0.236 C 
ATOM     32  N   LIG    1      -40.018  70.713  24.450  0.00  0.00    -0.246 NA
BRANCH  31  33
ATOM     33  O   LIG    1      -38.865  69.191  23.276  0.00  0.00    -0.491 OA
ATOM     34  H   LIG    1      -39.015  68.297  23.638  0.00  0.00    +0.294 HD
ENDBRANCH  31  33
BRANCH  32  35
ATOM     35  C   LIG    1      -40.348  71.719  25.460  0.00  0.00    +0.179 C 
BRANCH  35  36
ATOM     36  C   LIG    1      -40.569  73.099  24.758  0.00  0.00    +0.080 C 
ATOM     37  C   LIG    1      -41.287  72.954  23.412  0.00  0.00    +0.043 C 
ATOM     38  C   LIG    1      -39.252  73.847  24.528  0.00  0.00    +0.043 C 
BRANCH  36  39
ATOM     39  O   LIG    1      -41.405  73.912  25.591  0.00  0.00    -0.387 OA
ATOM     40  H   LIG    1      -40.791  74.419  26.158  0.00  0.00    +0.210 HD
ENDBRANCH  36  39
ENDBRANCH  35  36
ENDBRANCH  32  35
ENDBRANCH   4  31
TORSDOF 9
ENDMDL
MODEL 4
REMARK VINA RESULT:      -6.5      2.122      2.536
REMARK  Name = pdb/CHEMBL3911127.pdb
REMARK                            x       y       z     vdW  Elec       q    Type
REMARK                         _______ _______ _______ _____ _____    ______ ____
ROOT
ATOM      1  C   LIG    1      -38.376  72.514  25.183  0.00  0.00    +0.129 A 
ATOM      2  N   LIG    1      -39.337  73.249  24.462  0.00  0.00    -0.218 N 
ATOM      3  N   LIG    1      -40.244  72.400  23.876  0.00  0.00    -0.160 NA
ATOM      4  C   LIG    1      -39.977  71.171  24.376  0.00  0.00    +0.149 A 
ATOM      5  C   LIG    1      -38.866  71.236  25.232  0.00  0.00    +0.078 A 
ENDROOT
BRANCH   2   6
ATOM      6  C   LIG    1      -39.497  74.669  24.325  0.00  0.00    +0.067 A 
ATOM      7  C   LIG    1      -38.414  75.520  24.614  0.00  0.00    +0.028 A 
ATOM      8  C   LIG    1      -38.508  76.902  24.397  0.00  0.00    +0.002 A 
ATOM      9  C   LIG    1      -39.680  77.453  23.887  0.00  0.00    +0.000 A 
ATOM     10  C   LIG    1      -40.764  76.625  23.612  0.00  0.00    +0.002 A 
ATOM     11  C   LIG    1      -40.675  75.240  23.824  0.00  0.00    +0.028 A 
ENDBRANCH   2   6
BRANCH   1  13
ATOM     12  C   LIG    1      -36.966  73.331  27.083  0.00  0.00    +0.251 C 
ATOM     13  N   LIG    1      -37.137  72.965  25.693  0.00  0.00    -0.266 N 
ATOM     14  H   LIG    1      -36.342  72.981  25.086  0.00  0.00    +0.157 HD
ATOM     15  O   LIG    1      -37.913  73.265  27.846  0.00  0.00    -0.270 OA
BRANCH  12  20
ATOM     16  C   LIG    1      -32.110  75.370  29.495  0.00  0.00    +0.044 C 
ATOM     17  C   LIG    1      -33.315  74.894  28.716  0.00  0.00    -0.040 A 
ATOM     18  C   LIG    1      -34.203  75.766  28.034  0.00  0.00    +0.007 A 
ATOM     19  C   LIG    1      -35.366  75.142  27.520  0.00  0.00    +0.025 A 
ATOM     20  C   LIG    1      -35.648  73.751  27.619  0.00  0.00    +0.056 A 
ATOM     21  C   LIG    1      -34.695  72.926  28.185  0.00  0.00    +0.053 A 
ATOM     22 CL   LIG    1      -34.853  71.215  28.318  0.00  0.00    -0.083 Cl
ATOM     23  C   LIG    1      -33.539  73.495  28.723  0.00  0.00    +0.024 A 
BRANCH  18  24
ATOM     24  C   LIG    1      -33.971  77.246  27.841  0.00  0.00    +0.106 A 
ATOM     25  C   LIG    1      -32.984  77.816  27.023  0.00  0.00    +0.149 A 
ATOM     26  F   LIG    1      -32.145  77.084  26.277  0.00  0.00    -0.203 F 
ATOM     27  C   LIG    1      -32.823  79.199  26.958  0.00  0.00    +0.042 A 
ATOM     28  C   LIG    1      -33.659  80.020  27.696  0.00  0.00    +0.023 A 
ATOM     29  C   LIG    1      -34.622  79.412  28.472  0.00  0.00    +0.111 A 
ATOM     30  N   LIG    1      -34.779  78.068  28.563  0.00  0.00    -0.252 NA
ENDBRANCH  18  24
ENDBRANCH  12  20
ENDBRANCH   1  13
BRANCH   4  31
ATOM     31  C   LIG    1      -40.796  70.014  23.972  0.00  0.00    +0.236 C 
ATOM     32  N   LIG    1      -40.877  69.389  22.859  0.00  0.00    -0.246 NA
BRANCH  31  33
ATOM     33  O   LIG    1      -41.595  69.572  24.975  0.00  0.00    -0.491 OA
ATOM     34  H   LIG    1      -41.170  69.754  25.833  0.00  0.00    +0.294 HD
ENDBRANCH  31  33
BRANCH  32  35
ATOM     35  C   LIG    1      -40.151  69.661  21.618  0.00  0.00    +0.179 C 
BRANCH  35  36
ATOM     36  C   LIG    1      -38.974  68.641  21.476  0.00  0.00    +0.080 C 
ATOM     37  C   LIG    1      -39.345  67.253  22.012  0.00  0.00    +0.043 C 
ATOM     38  C   LIG    1      -37.708  69.116  22.195  0.00  0.00    +0.043 C 
BRANCH  36  39
ATOM     39  O   LIG    1      -38.666  68.482  20.086  0.00  0.00    -0.387 OA
ATOM     40  H   LIG    1      -39.310  69.043  19.612  0.00  0.00    +0.210 HD
ENDBRANCH  36  39
ENDBRANCH  35  36
ENDBRANCH  32  35
ENDBRANCH   4  31
TORSDOF 9
ENDMDL
MODEL 5
REMARK VINA RESULT:      -6.5      4.714     10.477
REMARK  Name = pdb/CHEMBL3911127.pdb
REMARK                            x       y       z     vdW  Elec       q    Type
REMARK                         _______ _______ _______ _____ _____    ______ ____
ROOT
ATOM      1  C   LIG    1      -37.845  77.968  27.139  0.00  0.00    +0.129 A 
ATOM      2  N   LIG    1      -36.528  78.089  27.623  0.00  0.00    -0.218 N 
ATOM      3  N   LIG    1      -36.182  79.414  27.735  0.00  0.00    -0.160 NA
ATOM      4  C   LIG    1      -37.319  80.113  27.512  0.00  0.00    +0.149 A 
ATOM      5  C   LIG    1      -38.368  79.233  27.204  0.00  0.00    +0.078 A 
ENDROOT
BRANCH   2   6
ATOM      6  C   LIG    1      -35.602  77.073  28.034  0.00  0.00    +0.067 A 
ATOM      7  C   LIG    1      -35.752  76.465  29.295  0.00  0.00    +0.028 A 
ATOM      8  C   LIG    1      -34.925  75.402  29.684  0.00  0.00    +0.002 A 
ATOM      9  C   LIG    1      -33.939  74.930  28.823  0.00  0.00    +0.000 A 
ATOM     10  C   LIG    1      -33.768  75.532  27.580  0.00  0.00    +0.002 A 
ATOM     11  C   LIG    1      -34.596  76.594  27.183  0.00  0.00    +0.028 A 
ENDBRANCH   2   6
BRANCH   1  13
ATOM     12  C   LIG    1      -38.098  76.220  25.365  0.00  0.00    +0.251 C 
ATOM     13  N   LIG    1      -38.483  76.814  26.627  0.00  0.00    -0.266 N 
ATOM     14  H   LIG    1      -39.185  76.366  27.181  0.00  0.00    +0.157 HD
ATOM     15  O   LIG    1      -37.207  76.725  24.706  0.00  0.00    -0.270 OA
BRANCH  12  20
ATOM     16  C   LIG    1      -40.575  71.173  23.968  0.00  0.00    +0.044 C 
ATOM     17  C   LIG    1      -39.798  72.443  24.231  0.00  0.00    -0.040 A 
ATOM     18  C   LIG    1      -38.540  72.472  24.887  0.00  0.00    +0.007 A 
ATOM     19  C   LIG    1      -38.065  73.770  25.198  0.00  0.00    +0.025 A 
ATOM     20  C   LIG    1      -38.738  74.978  24.865  0.00  0.00    +0.056 A 
ATOM     21  C   LIG    1      -39.899  74.900  24.120  0.00  0.00    +0.053 A 
ATOM     22 CL   LIG    1      -40.795  76.269  23.580  0.00  0.00    -0.083 Cl
ATOM     23  C   LIG    1      -40.418  73.643  23.804  0.00  0.00    +0.024 A 
BRANCH  18  24
ATOM     24  C   LIG    1      -37.731  71.248  25.244  0.00  0.00    +0.106 A 
ATOM     25  C   LIG    1      -37.203  70.325  24.328  0.00  0.00    +0.149 A 
ATOM     26  F   LIG    1      -37.334  70.460  23.002  0.00  0.00    -0.203 F 
ATOM     27  C   LIG    1      -36.513  69.196  24.770  0.00  0.00    +0.042 A 
ATOM     28  C   LIG    1      -36.332  68.994  26.128  0.00  0.00    +0.023 A 
ATOM     29  C   LIG    1      -36.858  69.937  26.986  0.00  0.00    +0.111 A 
ATOM     30  N   LIG    1      -37.548  71.028  26.574  0.00  0.00    -0.252 NA
ENDBRANCH  18  24
ENDBRANCH  12  20
ENDBRANCH   1  13
BRANCH   4  31
ATOM     31  C   LIG    1      -37.309  81.586  27.585  0.00  0.00    +0.236 C 
ATOM     32  N   LIG    1      -37.675  82.472  26.738  0.00  0.00    -0.246 NA
BRANCH  31  33
ATOM     33  O   LIG    1      -36.807  82.041  28.760  0.00  0.00    -0.491 OA
ATOM     34  H   LIG    1      -37.501  82.526  29.243  0.00  0.00    +0.294 HD
ENDBRANCH  31  33
BRANCH  32  35
ATOM     35  C   LIG    1      -38.228  82.265  25.400  0.00  0.00    +0.179 C 
BRANCH  35  36
ATOM     36  C   LIG    1      -38.180  83.613  24.609  0.00  0.00    +0.080 C 
ATOM     37  C   LIG    1      -36.980  84.477  25.013  0.00  0.00    +0.043 C 
ATOM     38  C   LIG    1      -39.456  84.438  24.795  0.00  0.00    +0.043 C 
BRANCH  36  39
ATOM     39  O   LIG    1      -38.034  83.325  23.213  0.00  0.00    -0.387 OA
ATOM     40  H   LIG    1      -38.296  84.144  22.750  0.00  0.00    +0.210 HD
ENDBRANCH  36  39
ENDBRANCH  35  36
ENDBRANCH  32  35
ENDBRANCH   4  31
TORSDOF 9
ENDMDL
MODEL 6
REMARK VINA RESULT:      -6.4     18.074     20.500
REMARK  Name = pdb/CHEMBL3911127.pdb
REMARK                            x       y       z     vdW  Elec       q    Type
REMARK                         _______ _______ _______ _____ _____    ______ ____
ROOT
ATOM      1  C   LIG    1      -22.822  80.030  14.069  0.00  0.00    +0.129 A 
ATOM      2  N   LIG    1      -22.445  79.005  14.959  0.00  0.00    -0.218 N 
ATOM      3  N   LIG    1      -23.557  78.341  15.418  0.00  0.00    -0.160 NA
ATOM      4  C   LIG    1      -24.595  78.808  14.685  0.00  0.00    +0.149 A 
ATOM      5  C   LIG    1      -24.147  79.806  13.805  0.00  0.00    +0.078 A 
ENDROOT
BRANCH   2   6
ATOM      6  C   LIG    1      -21.138  78.574  15.366  0.00  0.00    +0.067 A 
ATOM      7  C   LIG    1      -20.333  79.432  16.138  0.00  0.00    +0.028 A 
ATOM      8  C   LIG    1      -19.093  79.003  16.634  0.00  0.00    +0.002 A 
ATOM      9  C   LIG    1      -18.641  77.714  16.368  0.00  0.00    +0.000 A 
ATOM     10  C   LIG    1      -19.419  76.860  15.592  0.00  0.00    +0.002 A 
ATOM     11  C   LIG    1      -20.663  77.282  15.096  0.00  0.00    +0.028 A 
ENDBRANCH   2   6
BRANCH   1  13
ATOM     12  C   LIG    1      -21.789  82.288  14.391  0.00  0.00    +0.251 C 
ATOM     13  N   LIG    1      -22.034  81.104  13.595  0.00  0.00    -0.266 N 
ATOM     14  H   LIG    1      -21.590  81.020  12.702  0.00  0.00    +0.157 HD
ATOM     15  O   LIG    1      -22.280  82.381  15.502  0.00  0.00    -0.270 OA
BRANCH  12  20
ATOM     16  C   LIG    1      -18.672  86.924  12.858  0.00  0.00    +0.044 C 
ATOM     17  C   LIG    1      -19.545  85.713  13.097  0.00  0.00    -0.040 A 
ATOM     18  C   LIG    1      -20.961  85.737  13.018  0.00  0.00    +0.007 A 
ATOM     19  C   LIG    1      -21.599  84.549  13.452  0.00  0.00    +0.025 A 
ATOM     20  C   LIG    1      -20.918  83.385  13.903  0.00  0.00    +0.056 A 
ATOM     21  C   LIG    1      -19.538  83.368  13.846  0.00  0.00    +0.053 A 
ATOM     22 CL   LIG    1      -18.568  82.013  14.290  0.00  0.00    -0.083 Cl
ATOM     23  C   LIG    1      -18.861  84.520  13.442  0.00  0.00    +0.024 A 
BRANCH  18  24
ATOM     24  C   LIG    1      -21.771  86.909  12.515  0.00  0.00    +0.106 A 
ATOM     25  C   LIG    1      -22.465  87.825  13.321  0.00  0.00    +0.149 A 
ATOM     26  F   LIG    1      -22.447  87.775  14.659  0.00  0.00    -0.203 F 
ATOM     27  C   LIG    1      -23.228  88.843  12.749  0.00  0.00    +0.042 A 
ATOM     28  C   LIG    1      -23.287  88.961  11.371  0.00  0.00    +0.023 A 
ATOM     29  C   LIG    1      -22.576  88.045  10.624  0.00  0.00    +0.111 A 
ATOM     30  N   LIG    1      -21.846  87.038  11.163  0.00  0.00    -0.252 NA
ENDBRANCH  18  24
ENDBRANCH  12  20
ENDBRANCH   1  13
BRANCH   4  31
ATOM     31  C   LIG    1      -25.952  78.277  14.904  0.00  0.00    +0.236 C 
ATOM     32  N   LIG    1      -26.628  77.405  14.257  0.00  0.00    -0.246 NA
BRANCH  31  33
ATOM     33  O   LIG    1      -26.562  78.843  15.975  0.00  0.00    -0.491 OA
ATOM     34  H   LIG    1      -27.267  79.443  15.667  0.00  0.00    +0.294 HD
ENDBRANCH  31  33
BRANCH  32  35
ATOM     35  C   LIG    1      -26.227  76.658  13.064  0.00  0.00    +0.179 C 
BRANCH  35  36
ATOM     36  C   LIG    1      -25.903  75.182  13.467  0.00  0.00    +0.080 C 
ATOM     37  C   LIG    1      -24.460  75.021  13.959  0.00  0.00    +0.043 C 
ATOM     38  C   LIG    1      -26.134  74.204  12.311  0.00  0.00    +0.043 C 
BRANCH  36  39
ATOM     39  O   LIG    1      -26.758  74.801  14.552  0.00  0.00    -0.387 OA
ATOM     40  H   LIG    1      -26.735  75.552  15.176  0.00  0.00    +0.210 HD
ENDBRANCH  36  39
ENDBRANCH  35  36
ENDBRANCH  32  35
ENDBRANCH   4  31
TORSDOF 9
ENDMDL
MODEL 7
REMARK VINA RESULT:      -6.4      4.044      6.678
REMARK  Name = pdb/CHEMBL3911127.pdb
REMARK                            x       y       z     vdW  Elec       q    Type
REMARK                         _______ _______ _______ _____ _____    ______ ____
ROOT
ATOM      1  C   LIG    1      -36.121  68.695  23.312  0.00  0.00    +0.129 A 
ATOM      2  N   LIG    1      -35.321  68.275  24.393  0.00  0.00    -0.218 N 
ATOM      3  N   LIG    1      -34.846  67.006  24.167  0.00  0.00    -0.160 NA
ATOM      4  C   LIG    1      -35.177  66.709  22.889  0.00  0.00    +0.149 A 
ATOM      5  C   LIG    1      -35.910  67.767  22.328  0.00  0.00    +0.078 A 
ENDROOT
BRANCH   2   6
ATOM      6  C   LIG    1      -34.931  68.982  25.579  0.00  0.00    +0.067 A 
ATOM      7  C   LIG    1      -34.095  68.351  26.520  0.00  0.00    +0.028 A 
ATOM      8  C   LIG    1      -33.617  69.048  27.639  0.00  0.00    +0.002 A 
ATOM      9  C   LIG    1      -33.964  70.382  27.834  0.00  0.00    +0.000 A 
ATOM     10  C   LIG    1      -34.803  71.013  26.921  0.00  0.00    +0.002 A 
ATOM     11  C   LIG    1      -35.282  70.322  25.797  0.00  0.00    +0.028 A 
ENDBRANCH   2   6
BRANCH   1  13
ATOM     12  C   LIG    1      -38.307  69.766  23.897  0.00  0.00    +0.251 C 
ATOM     13  N   LIG    1      -37.007  69.796  23.261  0.00  0.00    -0.266 N 
ATOM     14  H   LIG    1      -36.703  70.639  22.817  0.00  0.00    +0.157 HD
ATOM     15  O   LIG    1      -38.668  68.764  24.487  0.00  0.00    -0.270 OA
BRANCH  12  20
ATOM     16  C   LIG    1      -41.356  74.685  23.633  0.00  0.00    +0.044 C 
ATOM     17  C   LIG    1      -40.584  73.407  23.872  0.00  0.00    -0.040 A 
ATOM     18  C   LIG    1      -39.373  73.347  24.608  0.00  0.00    +0.007 A 
ATOM     19  C   LIG    1      -38.714  72.094  24.563  0.00  0.00    +0.025 A 
ATOM     20  C   LIG    1      -39.205  70.947  23.882  0.00  0.00    +0.056 A 
ATOM     21  C   LIG    1      -40.447  71.021  23.282  0.00  0.00    +0.053 A 
ATOM     22 CL   LIG    1      -41.212  69.703  22.476  0.00  0.00    -0.083 Cl
ATOM     23  C   LIG    1      -41.129  72.239  23.283  0.00  0.00    +0.024 A 
BRANCH  18  24
ATOM     24  C   LIG    1      -38.791  74.498  25.396  0.00  0.00    +0.106 A 
ATOM     25  C   LIG    1      -39.210  74.903  26.673  0.00  0.00    +0.149 A 
ATOM     26  F   LIG    1      -40.169  74.269  27.360  0.00  0.00    -0.203 F 
ATOM     27  C   LIG    1      -38.638  76.015  27.291  0.00  0.00    +0.042 A 
ATOM     28  C   LIG    1      -37.634  76.716  26.644  0.00  0.00    +0.023 A 
ATOM     29  C   LIG    1      -37.250  76.268  25.398  0.00  0.00    +0.111 A 
ATOM     30  N   LIG    1      -37.808  75.202  24.775  0.00  0.00    -0.252 NA
ENDBRANCH  18  24
ENDBRANCH  12  20
ENDBRANCH   1  13
BRANCH   4  31
ATOM     31  C   LIG    1      -34.787  65.412  22.306  0.00  0.00    +0.236 C 
ATOM     32  N   LIG    1      -34.515  65.081  21.101  0.00  0.00    -0.246 NA
BRANCH  31  33
ATOM     33  O   LIG    1      -34.729  64.425  23.234  0.00  0.00    -0.491 OA
ATOM     34  H   LIG    1      -34.192  63.687  22.889  0.00  0.00    +0.294 HD
ENDBRANCH  31  33
BRANCH  32  35
ATOM     35  C   LIG    1      -34.518  65.931  19.910  0.00  0.00    +0.179 C 
BRANCH  35  36
ATOM     36  C   LIG    1      -33.056  66.069  19.373  0.00  0.00    +0.080 C 
ATOM     37  C   LIG    1      -32.973  67.000  18.158  0.00  0.00    +0.043 C 
ATOM     38  C   LIG    1      -32.451  64.715  18.990  0.00  0.00    +0.043 C 
BRANCH  36  39
ATOM     39  O   LIG    1      -32.240  66.648  20.398  0.00  0.00    -0.387 OA
ATOM     40  H   LIG    1      -31.359  66.764  19.994  0.00  0.00    +0.210 HD
ENDBRANCH  36  39
ENDBRANCH  35  36
ENDBRANCH  32  35
ENDBRANCH   4  31
TORSDOF 9
ENDMDL
MODEL 8
REMARK VINA RESULT:      -6.4      4.156      9.378
REMARK  Name = pdb/CHEMBL3911127.pdb
REMARK                            x       y       z     vdW  Elec       q    Type
REMARK                         _______ _______ _______ _____ _____    ______ ____
ROOT
ATOM      1  C   LIG    1      -37.762  77.576  26.876  0.00  0.00    +0.129 A 
ATOM      2  N   LIG    1      -38.225  78.906  26.858  0.00  0.00    -0.218 N 
ATOM      3  N   LIG    1      -37.438  79.695  27.662  0.00  0.00    -0.160 NA
ATOM      4  C   LIG    1      -36.388  78.922  28.024  0.00  0.00    +0.149 A 
ATOM      5  C   LIG    1      -36.542  77.630  27.496  0.00  0.00    +0.078 A 
ENDROOT
BRANCH   2   6
ATOM      6  C   LIG    1      -39.301  79.497  26.114  0.00  0.00    +0.067 A 
ATOM      7  C   LIG    1      -40.183  80.386  26.755  0.00  0.00    +0.028 A 
ATOM      8  C   LIG    1      -41.182  81.054  26.034  0.00  0.00    +0.002 A 
ATOM      9  C   LIG    1      -41.315  80.846  24.664  0.00  0.00    +0.000 A 
ATOM     10  C   LIG    1      -40.460  79.957  24.019  0.00  0.00    +0.002 A 
ATOM     11  C   LIG    1      -39.455  79.288  24.735  0.00  0.00    +0.028 A 
ENDBRANCH   2   6
BRANCH   1  13
ATOM     12  C   LIG    1      -38.143  75.822  25.130  0.00  0.00    +0.251 C 
ATOM     13  N   LIG    1      -38.429  76.416  26.420  0.00  0.00    -0.266 N 
ATOM     14  H   LIG    1      -39.079  75.962  27.029  0.00  0.00    +0.157 HD
ATOM     15  O   LIG    1      -37.313  76.334  24.400  0.00  0.00    -0.270 OA
BRANCH  12  20
ATOM     16  C   LIG    1      -40.686  70.754  23.947  0.00  0.00    +0.044 C 
ATOM     17  C   LIG    1      -39.899  72.029  24.146  0.00  0.00    -0.040 A 
ATOM     18  C   LIG    1      -38.598  72.069  24.711  0.00  0.00    +0.007 A 
ATOM     19  C   LIG    1      -38.109  73.371  24.979  0.00  0.00    +0.025 A 
ATOM     20  C   LIG    1      -38.810  74.574  24.686  0.00  0.00    +0.056 A 
ATOM     21  C   LIG    1      -40.020  74.485  24.025  0.00  0.00    +0.053 A 
ATOM     22 CL   LIG    1      -40.959  75.846  23.539  0.00  0.00    -0.083 Cl
ATOM     23  C   LIG    1      -40.554  73.223  23.755  0.00  0.00    +0.024 A 
BRANCH  18  24
ATOM     24  C   LIG    1      -37.760  70.851  25.020  0.00  0.00    +0.106 A 
ATOM     25  C   LIG    1      -37.235  69.962  24.068  0.00  0.00    +0.149 A 
ATOM     26  F   LIG    1      -37.398  70.129  22.750  0.00  0.00    -0.203 F 
ATOM     27  C   LIG    1      -36.516  68.836  24.466  0.00  0.00    +0.042 A 
ATOM     28  C   LIG    1      -36.302  68.602  25.814  0.00  0.00    +0.023 A 
ATOM     29  C   LIG    1      -36.825  69.513  26.707  0.00  0.00    +0.111 A 
ATOM     30  N   LIG    1      -37.544  70.601  26.339  0.00  0.00    -0.252 NA
ENDBRANCH  18  24
ENDBRANCH  12  20
ENDBRANCH   1  13
BRANCH   4  31
ATOM     31  C   LIG    1      -35.321  79.475  28.878  0.00  0.00    +0.236 C 
ATOM     32  N   LIG    1      -34.327  78.911  29.452  0.00  0.00    -0.246 NA
BRANCH  31  33
ATOM     33  O   LIG    1      -35.460  80.810  29.078  0.00  0.00    -0.491 OA
ATOM     34  H   LIG    1      -34.596  81.247  28.957  0.00  0.00    +0.294 HD
ENDBRANCH  31  33
BRANCH  32  35
ATOM     35  C   LIG    1      -33.952  77.497  29.422  0.00  0.00    +0.179 C 
BRANCH  35  36
ATOM     36  C   LIG    1      -32.703  77.315  28.500  0.00  0.00    +0.080 C 
ATOM     37  C   LIG    1      -33.086  76.809  27.104  0.00  0.00    +0.043 C 
ATOM     38  C   LIG    1      -31.676  76.351  29.101  0.00  0.00    +0.043 C 
BRANCH  36  39
ATOM     39  O   LIG    1      -32.071  78.588  28.322  0.00  0.00    -0.387 OA
ATOM     40  H   LIG    1      -31.625  78.777  29.170  0.00  0.00    +0.210 HD
ENDBRANCH  36  39
ENDBRANCH  35  36
ENDBRANCH  32  35
ENDBRANCH   4  31
TORSDOF 9
ENDMDL
MODEL 9
REMARK VINA RESULT:      -6.4      3.730      8.925
REMARK  Name = pdb/CHEMBL3911127.pdb
REMARK                            x       y       z     vdW  Elec       q    Type
REMARK                         _______ _______ _______ _____ _____    ______ ____
ROOT
ATOM      1  C   LIG    1      -34.639  76.596  27.406  0.00  0.00    +0.129 A 
ATOM      2  N   LIG    1      -34.615  77.755  28.207  0.00  0.00    -0.218 N 
ATOM      3  N   LIG    1      -33.671  77.629  29.197  0.00  0.00    -0.160 NA
ATOM      4  C   LIG    1      -32.981  76.501  28.909  0.00  0.00    +0.149 A 
ATOM      5  C   LIG    1      -33.526  75.885  27.771  0.00  0.00    +0.078 A 
ENDROOT
BRANCH   2   6
ATOM      6  C   LIG    1      -35.362  78.974  28.084  0.00  0.00    +0.067 A 
ATOM      7  C   LIG    1      -34.687  80.176  27.799  0.00  0.00    +0.028 A 
ATOM      8  C   LIG    1      -35.396  81.364  27.576  0.00  0.00    +0.002 A 
ATOM      9  C   LIG    1      -36.787  81.370  27.631  0.00  0.00    +0.000 A 
ATOM     10  C   LIG    1      -37.467  80.193  27.927  0.00  0.00    +0.002 A 
ATOM     11  C   LIG    1      -36.762  78.999  28.148  0.00  0.00    +0.028 A 
ENDBRANCH   2   6
BRANCH   1  13
ATOM     12  C   LIG    1      -36.816  75.483  26.869  0.00  0.00    +0.251 C 
ATOM     13  N   LIG    1      -35.625  76.203  26.472  0.00  0.00    -0.266 N 
ATOM     14  H   LIG    1      -35.520  76.478  25.516  0.00  0.00    +0.157 HD
ATOM     15  O   LIG    1      -36.982  75.189  28.039  0.00  0.00    -0.270 OA
BRANCH  12  20
ATOM     16  C   LIG    1      -41.153  73.729  23.453  0.00  0.00    +0.044 C 
ATOM     17  C   LIG    1      -39.915  74.111  24.232  0.00  0.00    -0.040 A 
ATOM     18  C   LIG    1      -39.046  73.166  24.837  0.00  0.00    +0.007 A 
ATOM     19  C   LIG    1      -38.050  73.729  25.672  0.00  0.00    +0.025 A 
ATOM     20  C   LIG    1      -37.869  75.123  25.888  0.00  0.00    +0.056 A 
ATOM     21  C   LIG    1      -38.663  76.006  25.181  0.00  0.00    +0.053 A 
ATOM     22 CL   LIG    1      -38.525  77.721  25.278  0.00  0.00    -0.083 Cl
ATOM     23  C   LIG    1      -39.672  75.501  24.359  0.00  0.00    +0.024 A 
BRANCH  18  24
ATOM     24  C   LIG    1      -39.132  71.672  24.637  0.00  0.00    +0.106 A 
ATOM     25  C   LIG    1      -40.158  70.843  25.118  0.00  0.00    +0.149 A 
ATOM     26  F   LIG    1      -41.216  71.313  25.791  0.00  0.00    -0.203 F 
ATOM     27  C   LIG    1      -40.112  69.463  24.921  0.00  0.00    +0.042 A 
ATOM     28  C   LIG    1      -39.050  68.907  24.227  0.00  0.00    +0.023 A 
ATOM     29  C   LIG    1      -38.076  69.765  23.763  0.00  0.00    +0.111 A 
ATOM     30  N   LIG    1      -38.095  71.106  23.963  0.00  0.00    -0.252 NA
ENDBRANCH  18  24
ENDBRANCH  12  20
ENDBRANCH   1  13
BRANCH   4  31
ATOM     31  C   LIG    1      -31.860  76.080  29.769  0.00  0.00    +0.236 C 
ATOM     32  N   LIG    1      -31.749  75.104  30.588  0.00  0.00    -0.246 NA
BRANCH  31  33
ATOM     33  O   LIG    1      -30.785  76.898  29.652  0.00  0.00    -0.491 OA
ATOM     34  H   LIG    1      -30.218  76.805  30.441  0.00  0.00    +0.294 HD
ENDBRANCH  31  33
BRANCH  32  35
ATOM     35  C   LIG    1      -32.748  74.088  30.920  0.00  0.00    +0.179 C 
BRANCH  35  36
ATOM     36  C   LIG    1      -32.365  72.742  30.224  0.00  0.00    +0.080 C 
ATOM     37  C   LIG    1      -30.898  72.720  29.777  0.00  0.00    +0.043 C 
ATOM     38  C   LIG    1      -33.247  72.448  29.007  0.00  0.00    +0.043 C 
BRANCH  36  39
ATOM     39  O   LIG    1      -32.529  71.673  31.163  0.00  0.00    -0.387 OA
ATOM     40  H   LIG    1      -31.643  71.272  31.259  0.00  0.00    +0.210 HD
ENDBRANCH  36  39
ENDBRANCH  35  36
ENDBRANCH  32  35
ENDBRANCH   4  31
TORSDOF 9
ENDMDL
