MODEL 1
REMARK VINA RESULT:      -5.9      0.000      0.000
REMARK  Name = pdb/CHEMBL3659494.pdb
REMARK                            x       y       z     vdW  Elec       q    Type
REMARK                         _______ _______ _______ _____ _____    ______ ____
ROOT
ATOM      1  C   LIG    1      -25.370  78.545  35.339  0.00  0.00    +0.122 A 
ATOM      2  N   LIG    1      -25.086  78.168  34.071  0.00  0.00    -0.213 NA
ATOM      3  C   LIG    1      -26.072  77.481  33.444  0.00  0.00    +0.168 A 
ATOM      4  N   LIG    1      -26.091  76.961  32.158  0.00  0.00    -0.266 N 
ATOM      5  C   LIG    1      -27.344  76.402  31.988  0.00  0.00    +0.207 A 
ATOM      6  N   LIG    1      -28.101  76.498  33.060  0.00  0.00    -0.234 NA
ATOM      7  C   LIG    1      -27.320  77.155  33.968  0.00  0.00    +0.108 A 
ATOM      8  C   LIG    1      -27.585  77.531  35.282  0.00  0.00    +0.035 A 
ATOM      9  C   LIG    1      -26.570  78.202  35.972  0.00  0.00    +0.046 A 
ENDROOT
BRANCH   4  10
ATOM     10  C   LIG    1      -25.064  76.996  31.179  0.00  0.00    +0.162 A 
ATOM     11  N   LIG    1      -25.274  77.665  30.033  0.00  0.00    -0.155 NA
ATOM     12  N   LIG    1      -24.105  77.525  29.380  0.00  0.00    -0.279 N 
ATOM     13  H   LIG    1      -24.005  77.969  28.468  0.00  0.00    +0.189 HD
ATOM     14  C   LIG    1      -23.187  76.778  30.054  0.00  0.00    +0.041 A 
ATOM     15  C   LIG    1      -23.787  76.407  31.240  0.00  0.00    +0.071 A 
BRANCH  14  16
ATOM     16  C   LIG    1      -21.794  76.448  29.563  0.00  0.00    +0.037 C 
ATOM     17  C   LIG    1      -20.761  75.989  30.568  0.00  0.00    +0.010 C 
ATOM     18  C   LIG    1      -20.642  77.348  29.963  0.00  0.00    +0.010 C 
ENDBRANCH  14  16
ENDBRANCH   4  10
BRANCH   1  19
ATOM     19  N   LIG    1      -24.361  79.242  35.997  0.00  0.00    -0.321 N 
ATOM     20  H   LIG    1      -23.780  78.567  36.496  0.00  0.00    +0.148 HD
BRANCH  19  22
ATOM     21  C   LIG    1      -23.760  81.628  36.103  0.00  0.00    +0.034 C 
ATOM     22  C   LIG    1      -23.592  80.307  35.340  0.00  0.00    +0.117 C 
BRANCH  22  23
ATOM     23  C   LIG    1      -22.118  79.927  35.182  0.00  0.00    +0.061 A 
ATOM     24  N   LIG    1      -21.233  80.306  36.145  0.00  0.00    -0.255 NA
ATOM     25  C   LIG    1      -19.938  79.928  35.986  0.00  0.00    +0.149 A 
ATOM     26  C   LIG    1      -19.486  79.172  34.920  0.00  0.00    +0.141 A 
ATOM     27  F   LIG    1      -18.200  78.810  34.831  0.00  0.00    -0.204 F 
ATOM     28  C   LIG    1      -20.390  78.786  33.946  0.00  0.00    +0.042 A 
ATOM     29  C   LIG    1      -21.725  79.169  34.074  0.00  0.00    +0.028 A 
ENDBRANCH  22  23
ENDBRANCH  19  22
ENDBRANCH   1  19
TORSDOF 5
ENDMDL
MODEL 2
REMARK VINA RESULT:      -5.9      5.519      9.055
REMARK  Name = pdb/CHEMBL3659494.pdb
REMARK                            x       y       z     vdW  Elec       q    Type
REMARK                         _______ _______ _______ _____ _____    ______ ____
ROOT
ATOM      1  C   LIG    1      -30.048  76.455  31.627  0.00  0.00    +0.122 A 
ATOM      2  N   LIG    1      -28.731  76.657  31.388  0.00  0.00    -0.213 NA
ATOM      3  C   LIG    1      -27.921  76.483  32.462  0.00  0.00    +0.168 A 
ATOM      4  N   LIG    1      -26.543  76.614  32.545  0.00  0.00    -0.266 N 
ATOM      5  C   LIG    1      -26.202  76.275  33.842  0.00  0.00    +0.207 A 
ATOM      6  N   LIG    1      -27.245  75.973  34.586  0.00  0.00    -0.234 NA
ATOM      7  C   LIG    1      -28.312  76.107  33.744  0.00  0.00    +0.108 A 
ATOM      8  C   LIG    1      -29.673  75.927  33.976  0.00  0.00    +0.035 A 
ATOM      9  C   LIG    1      -30.539  76.144  32.900  0.00  0.00    +0.046 A 
ENDROOT
BRANCH   4  10
ATOM     10  C   LIG    1      -25.632  76.992  31.526  0.00  0.00    +0.162 A 
ATOM     11  N   LIG    1      -25.953  78.006  30.704  0.00  0.00    -0.155 NA
ATOM     12  N   LIG    1      -24.868  78.113  29.914  0.00  0.00    -0.279 N 
ATOM     13  H   LIG    1      -24.859  78.840  29.200  0.00  0.00    +0.189 HD
ATOM     14  C   LIG    1      -23.898  77.195  30.187  0.00  0.00    +0.041 A 
ATOM     15  C   LIG    1      -24.370  76.437  31.239  0.00  0.00    +0.071 A 
BRANCH  14  16
ATOM     16  C   LIG    1      -22.578  77.072  29.459  0.00  0.00    +0.037 C 
ATOM     17  C   LIG    1      -21.567  76.063  29.956  0.00  0.00    +0.010 C 
ATOM     18  C   LIG    1      -21.309  77.519  30.157  0.00  0.00    +0.010 C 
ENDBRANCH  14  16
ENDBRANCH   4  10
BRANCH   1  19
ATOM     19  N   LIG    1      -30.890  76.642  30.535  0.00  0.00    -0.321 N 
ATOM     20  H   LIG    1      -30.665  77.541  30.109  0.00  0.00    +0.148 HD
BRANCH  19  22
ATOM     21  C   LIG    1      -31.189  74.213  30.260  0.00  0.00    +0.034 C 
ATOM     22  C   LIG    1      -31.148  75.577  29.557  0.00  0.00    +0.117 C 
BRANCH  22  23
ATOM     23  C   LIG    1      -32.423  75.840  28.755  0.00  0.00    +0.061 A 
ATOM     24  N   LIG    1      -32.589  77.054  28.161  0.00  0.00    -0.255 NA
ATOM     25  C   LIG    1      -33.720  77.244  27.433  0.00  0.00    +0.149 A 
ATOM     26  C   LIG    1      -34.687  76.273  27.253  0.00  0.00    +0.141 A 
ATOM     27  F   LIG    1      -35.770  76.512  26.504  0.00  0.00    -0.204 F 
ATOM     28  C   LIG    1      -34.513  75.039  27.856  0.00  0.00    +0.042 A 
ATOM     29  C   LIG    1      -33.368  74.817  28.620  0.00  0.00    +0.028 A 
ENDBRANCH  22  23
ENDBRANCH  19  22
ENDBRANCH   1  19
TORSDOF 5
ENDMDL
MODEL 3
REMARK VINA RESULT:      -5.8      1.517      2.219
REMARK  Name = pdb/CHEMBL3659494.pdb
REMARK                            x       y       z     vdW  Elec       q    Type
REMARK                         _______ _______ _______ _____ _____    ______ ____
ROOT
ATOM      1  C   LIG    1      -23.281  80.518  35.213  0.00  0.00    +0.122 A 
ATOM      2  N   LIG    1      -23.373  79.757  34.098  0.00  0.00    -0.213 NA
ATOM      3  C   LIG    1      -24.451  78.935  34.054  0.00  0.00    +0.168 A 
ATOM      4  N   LIG    1      -24.827  78.041  33.062  0.00  0.00    -0.266 N 
ATOM      5  C   LIG    1      -26.027  77.491  33.474  0.00  0.00    +0.207 A 
ATOM      6  N   LIG    1      -26.422  77.937  34.648  0.00  0.00    -0.234 NA
ATOM      7  C   LIG    1      -25.450  78.823  35.017  0.00  0.00    +0.108 A 
ATOM      8  C   LIG    1      -25.325  79.596  36.168  0.00  0.00    +0.035 A 
ATOM      9  C   LIG    1      -24.200  80.421  36.264  0.00  0.00    +0.046 A 
ENDROOT
BRANCH   4  10
ATOM     10  C   LIG    1      -24.156  77.741  31.848  0.00  0.00    +0.162 A 
ATOM     11  N   LIG    1      -24.684  78.163  30.687  0.00  0.00    -0.155 NA
ATOM     12  N   LIG    1      -23.784  77.749  29.774  0.00  0.00    -0.279 N 
ATOM     13  H   LIG    1      -23.954  77.968  28.794  0.00  0.00    +0.189 HD
ATOM     14  C   LIG    1      -22.735  77.065  30.311  0.00  0.00    +0.041 A 
ATOM     15  C   LIG    1      -22.950  77.035  31.674  0.00  0.00    +0.071 A 
BRANCH  14  16
ATOM     16  C   LIG    1      -21.581  76.476  29.530  0.00  0.00    +0.037 C 
ATOM     17  C   LIG    1      -20.414  75.887  30.292  0.00  0.00    +0.010 C 
ATOM     18  C   LIG    1      -20.237  77.177  29.563  0.00  0.00    +0.010 C 
ENDBRANCH  14  16
ENDBRANCH   4  10
BRANCH   1  19
ATOM     19  N   LIG    1      -22.173  81.357  35.275  0.00  0.00    -0.321 N 
ATOM     20  H   LIG    1      -22.468  82.245  35.681  0.00  0.00    +0.148 HD
BRANCH  19  22
ATOM     21  C   LIG    1      -20.862  80.853  37.298  0.00  0.00    +0.034 C 
ATOM     22  C   LIG    1      -20.868  80.892  35.764  0.00  0.00    +0.117 C 
BRANCH  22  23
ATOM     23  C   LIG    1      -20.485  79.540  35.160  0.00  0.00    +0.061 A 
ATOM     24  N   LIG    1      -20.668  78.412  35.901  0.00  0.00    -0.255 NA
ATOM     25  C   LIG    1      -20.343  77.227  35.324  0.00  0.00    +0.149 A 
ATOM     26  C   LIG    1      -19.863  77.109  34.033  0.00  0.00    +0.141 A 
ATOM     27  F   LIG    1      -19.583  75.909  33.510  0.00  0.00    -0.204 F 
ATOM     28  C   LIG    1      -19.682  78.258  33.282  0.00  0.00    +0.042 A 
ATOM     29  C   LIG    1      -19.994  79.492  33.851  0.00  0.00    +0.028 A 
ENDBRANCH  22  23
ENDBRANCH  19  22
ENDBRANCH   1  19
TORSDOF 5
ENDMDL
MODEL 4
REMARK VINA RESULT:      -5.7     12.692     16.088
REMARK  Name = pdb/CHEMBL3659494.pdb
REMARK                            x       y       z     vdW  Elec       q    Type
REMARK                         _______ _______ _______ _____ _____    ______ ____
ROOT
ATOM      1  C   LIG    1      -38.494  76.040  24.888  0.00  0.00    +0.122 A 
ATOM      2  N   LIG    1      -38.026  74.777  25.014  0.00  0.00    -0.213 NA
ATOM      3  C   LIG    1      -38.872  73.807  24.587  0.00  0.00    +0.168 A 
ATOM      4  N   LIG    1      -38.692  72.432  24.582  0.00  0.00    -0.266 N 
ATOM      5  C   LIG    1      -39.825  71.898  23.996  0.00  0.00    +0.207 A 
ATOM      6  N   LIG    1      -40.711  72.811  23.661  0.00  0.00    -0.234 NA
ATOM      7  C   LIG    1      -40.135  73.994  24.030  0.00  0.00    +0.108 A 
ATOM      8  C   LIG    1      -40.609  75.298  23.931  0.00  0.00    +0.035 A 
ATOM      9  C   LIG    1      -39.778  76.319  24.405  0.00  0.00    +0.046 A 
ENDROOT
BRANCH   4  10
ATOM     10  C   LIG    1      -37.578  71.689  25.051  0.00  0.00    +0.162 A 
ATOM     11  N   LIG    1      -36.805  71.038  24.165  0.00  0.00    -0.155 NA
ATOM     12  N   LIG    1      -35.847  70.494  24.939  0.00  0.00    -0.279 N 
ATOM     13  H   LIG    1      -35.112  69.950  24.488  0.00  0.00    +0.189 HD
ATOM     14  C   LIG    1      -36.003  70.753  26.267  0.00  0.00    +0.041 A 
ATOM     15  C   LIG    1      -37.136  71.532  26.378  0.00  0.00    +0.071 A 
BRANCH  14  16
ATOM     16  C   LIG    1      -35.086  70.266  27.369  0.00  0.00    +0.037 C 
ATOM     17  C   LIG    1      -35.285  70.804  28.768  0.00  0.00    +0.010 C 
ATOM     18  C   LIG    1      -34.093  71.234  27.980  0.00  0.00    +0.010 C 
ENDBRANCH  14  16
ENDBRANCH   4  10
BRANCH   1  19
ATOM     19  N   LIG    1      -37.638  77.043  25.332  0.00  0.00    -0.321 N 
ATOM     20  H   LIG    1      -37.866  77.902  24.831  0.00  0.00    +0.148 HD
BRANCH  19  22
ATOM     21  C   LIG    1      -38.595  76.911  27.598  0.00  0.00    +0.034 C 
ATOM     22  C   LIG    1      -37.356  77.253  26.759  0.00  0.00    +0.117 C 
BRANCH  22  23
ATOM     23  C   LIG    1      -36.127  76.465  27.215  0.00  0.00    +0.061 A 
ATOM     24  N   LIG    1      -34.889  76.919  26.872  0.00  0.00    -0.255 NA
ATOM     25  C   LIG    1      -33.820  76.211  27.318  0.00  0.00    +0.149 A 
ATOM     26  C   LIG    1      -33.924  75.081  28.107  0.00  0.00    +0.141 A 
ATOM     27  F   LIG    1      -32.830  74.438  28.535  0.00  0.00    -0.204 F 
ATOM     28  C   LIG    1      -35.184  74.625  28.456  0.00  0.00    +0.042 A 
ATOM     29  C   LIG    1      -36.302  75.323  28.004  0.00  0.00    +0.028 A 
ENDBRANCH  22  23
ENDBRANCH  19  22
ENDBRANCH   1  19
TORSDOF 5
ENDMDL
MODEL 5
REMARK VINA RESULT:      -5.6     13.259     16.572
REMARK  Name = pdb/CHEMBL3659494.pdb
REMARK                            x       y       z     vdW  Elec       q    Type
REMARK                         _______ _______ _______ _____ _____    ______ ____
ROOT
ATOM      1  C   LIG    1      -37.424  76.103  25.431  0.00  0.00    +0.122 A 
ATOM      2  N   LIG    1      -37.930  77.311  25.092  0.00  0.00    -0.213 NA
ATOM      3  C   LIG    1      -39.146  77.275  24.493  0.00  0.00    +0.168 A 
ATOM      4  N   LIG    1      -39.923  78.328  24.032  0.00  0.00    -0.266 N 
ATOM      5  C   LIG    1      -41.093  77.764  23.557  0.00  0.00    +0.207 A 
ATOM      6  N   LIG    1      -41.107  76.451  23.653  0.00  0.00    -0.234 NA
ATOM      7  C   LIG    1      -39.905  76.140  24.222  0.00  0.00    +0.108 A 
ATOM      8  C   LIG    1      -39.358  74.904  24.556  0.00  0.00    +0.035 A 
ATOM      9  C   LIG    1      -38.084  74.904  25.134  0.00  0.00    +0.046 A 
ENDROOT
BRANCH   4  10
ATOM     10  C   LIG    1      -39.623  79.715  24.046  0.00  0.00    +0.162 A 
ATOM     11  N   LIG    1      -39.360  80.340  22.886  0.00  0.00    -0.155 NA
ATOM     12  N   LIG    1      -39.169  81.618  23.266  0.00  0.00    -0.279 N 
ATOM     13  H   LIG    1      -38.966  82.311  22.546  0.00  0.00    +0.189 HD
ATOM     14  C   LIG    1      -39.274  81.812  24.610  0.00  0.00    +0.041 A 
ATOM     15  C   LIG    1      -39.565  80.579  25.156  0.00  0.00    +0.071 A 
BRANCH  14  16
ATOM     16  C   LIG    1      -39.101  83.137  25.321  0.00  0.00    +0.037 C 
ATOM     17  C   LIG    1      -38.417  84.269  24.588  0.00  0.00    +0.010 C 
ATOM     18  C   LIG    1      -37.706  83.586  25.708  0.00  0.00    +0.010 C 
ENDBRANCH  14  16
ENDBRANCH   4  10
BRANCH   1  19
ATOM     19  N   LIG    1      -36.172  76.126  26.036  0.00  0.00    -0.321 N 
ATOM     20  H   LIG    1      -35.546  76.681  25.452  0.00  0.00    +0.148 HD
BRANCH  19  22
ATOM     21  C   LIG    1      -35.057  75.326  28.082  0.00  0.00    +0.034 C 
ATOM     22  C   LIG    1      -36.004  76.370  27.474  0.00  0.00    +0.117 C 
BRANCH  22  23
ATOM     23  C   LIG    1      -35.531  77.797  27.756  0.00  0.00    +0.061 A 
ATOM     24  N   LIG    1      -36.426  78.819  27.658  0.00  0.00    -0.255 NA
ATOM     25  C   LIG    1      -35.978  80.070  27.942  0.00  0.00    +0.149 A 
ATOM     26  C   LIG    1      -34.683  80.349  28.339  0.00  0.00    +0.141 A 
ATOM     27  F   LIG    1      -34.308  81.600  28.628  0.00  0.00    -0.204 F 
ATOM     28  C   LIG    1      -33.779  79.306  28.440  0.00  0.00    +0.042 A 
ATOM     29  C   LIG    1      -34.204  78.012  28.143  0.00  0.00    +0.028 A 
ENDBRANCH  22  23
ENDBRANCH  19  22
ENDBRANCH   1  19
TORSDOF 5
ENDMDL
MODEL 6
REMARK VINA RESULT:      -5.6     14.569     18.597
REMARK  Name = pdb/CHEMBL3659494.pdb
REMARK                            x       y       z     vdW  Elec       q    Type
REMARK                         _______ _______ _______ _____ _____    ______ ____
ROOT
ATOM      1  C   LIG    1      -39.478  71.501  24.194  0.00  0.00    +0.122 A 
ATOM      2  N   LIG    1      -38.841  72.589  24.687  0.00  0.00    -0.213 NA
ATOM      3  C   LIG    1      -39.462  73.771  24.451  0.00  0.00    +0.168 A 
ATOM      4  N   LIG    1      -39.071  75.050  24.819  0.00  0.00    -0.266 N 
ATOM      5  C   LIG    1      -40.075  75.898  24.388  0.00  0.00    +0.207 A 
ATOM      6  N   LIG    1      -41.045  75.270  23.758  0.00  0.00    -0.234 NA
ATOM      7  C   LIG    1      -40.670  73.957  23.784  0.00  0.00    +0.108 A 
ATOM      8  C   LIG    1      -41.298  72.829  23.264  0.00  0.00    +0.035 A 
ATOM      9  C   LIG    1      -40.660  71.598  23.450  0.00  0.00    +0.046 A 
ENDROOT
BRANCH   4  10
ATOM     10  C   LIG    1      -37.900  75.446  25.517  0.00  0.00    +0.162 A 
ATOM     11  N   LIG    1      -37.132  76.422  25.004  0.00  0.00    -0.155 NA
ATOM     12  N   LIG    1      -36.160  76.561  25.926  0.00  0.00    -0.279 N 
ATOM     13  H   LIG    1      -35.444  77.268  25.771  0.00  0.00    +0.189 HD
ATOM     14  C   LIG    1      -36.273  75.698  26.975  0.00  0.00    +0.041 A 
ATOM     15  C   LIG    1      -37.404  74.945  26.735  0.00  0.00    +0.071 A 
BRANCH  14  16
ATOM     16  C   LIG    1      -35.325  75.620  28.152  0.00  0.00    +0.037 C 
ATOM     17  C   LIG    1      -33.973  76.288  28.039  0.00  0.00    +0.010 C 
ATOM     18  C   LIG    1      -34.058  74.798  28.021  0.00  0.00    +0.010 C 
ENDBRANCH  14  16
ENDBRANCH   4  10
BRANCH   1  19
ATOM     19  N   LIG    1      -38.845  70.283  24.420  0.00  0.00    -0.321 N 
ATOM     20  H   LIG    1      -39.340  69.564  23.892  0.00  0.00    +0.148 HD
BRANCH  19  22
ATOM     21  C   LIG    1      -36.852  69.717  25.752  0.00  0.00    +0.034 C 
ATOM     22  C   LIG    1      -37.384  70.143  24.377  0.00  0.00    +0.117 C 
BRANCH  22  23
ATOM     23  C   LIG    1      -36.938  69.182  23.273  0.00  0.00    +0.061 A 
ATOM     24  N   LIG    1      -35.832  68.414  23.476  0.00  0.00    -0.255 NA
ATOM     25  C   LIG    1      -35.481  67.552  22.487  0.00  0.00    +0.149 A 
ATOM     26  C   LIG    1      -36.194  67.403  21.311  0.00  0.00    +0.141 A 
ATOM     27  F   LIG    1      -35.811  66.518  20.383  0.00  0.00    -0.204 F 
ATOM     28  C   LIG    1      -37.319  68.184  21.112  0.00  0.00    +0.042 A 
ATOM     29  C   LIG    1      -37.698  69.088  22.102  0.00  0.00    +0.028 A 
ENDBRANCH  22  23
ENDBRANCH  19  22
ENDBRANCH   1  19
TORSDOF 5
ENDMDL
MODEL 7
REMARK VINA RESULT:      -5.5      2.116      5.496
REMARK  Name = pdb/CHEMBL3659494.pdb
REMARK                            x       y       z     vdW  Elec       q    Type
REMARK                         _______ _______ _______ _____ _____    ______ ____
ROOT
ATOM      1  C   LIG    1      -20.648  77.543  31.094  0.00  0.00    +0.122 A 
ATOM      2  N   LIG    1      -21.678  77.884  31.903  0.00  0.00    -0.213 NA
ATOM      3  C   LIG    1      -22.903  77.508  31.460  0.00  0.00    +0.168 A 
ATOM      4  N   LIG    1      -24.142  77.705  32.050  0.00  0.00    -0.266 N 
ATOM      5  C   LIG    1      -25.064  77.084  31.226  0.00  0.00    +0.207 A 
ATOM      6  N   LIG    1      -24.517  76.541  30.159  0.00  0.00    -0.234 NA
ATOM      7  C   LIG    1      -23.183  76.806  30.290  0.00  0.00    +0.108 A 
ATOM      8  C   LIG    1      -22.114  76.485  29.459  0.00  0.00    +0.035 A 
ATOM      9  C   LIG    1      -20.841  76.900  29.866  0.00  0.00    +0.046 A 
ENDROOT
BRANCH   4  10
ATOM     10  C   LIG    1      -24.443  78.380  33.261  0.00  0.00    +0.162 A 
ATOM     11  N   LIG    1      -25.567  78.062  33.926  0.00  0.00    -0.155 NA
ATOM     12  N   LIG    1      -25.506  78.847  35.019  0.00  0.00    -0.279 N 
ATOM     13  H   LIG    1      -26.255  78.778  35.706  0.00  0.00    +0.189 HD
ATOM     14  C   LIG    1      -24.411  79.657  35.051  0.00  0.00    +0.041 A 
ATOM     15  C   LIG    1      -23.692  79.381  33.907  0.00  0.00    +0.071 A 
BRANCH  14  16
ATOM     16  C   LIG    1      -24.085  80.647  36.149  0.00  0.00    +0.037 C 
ATOM     17  C   LIG    1      -22.794  81.430  36.060  0.00  0.00    +0.010 C 
ATOM     18  C   LIG    1      -22.928  80.352  37.084  0.00  0.00    +0.010 C 
ENDBRANCH  14  16
ENDBRANCH   4  10
BRANCH   1  19
ATOM     19  N   LIG    1      -19.387  77.934  31.532  0.00  0.00    -0.321 N 
ATOM     20  H   LIG    1      -19.396  78.945  31.669  0.00  0.00    +0.148 HD
BRANCH  19  22
ATOM     21  C   LIG    1      -17.281  76.781  32.079  0.00  0.00    +0.034 C 
ATOM     22  C   LIG    1      -18.666  77.206  32.584  0.00  0.00    +0.117 C 
BRANCH  22  23
ATOM     23  C   LIG    1      -18.574  78.020  33.876  0.00  0.00    +0.061 A 
ATOM     24  N   LIG    1      -19.690  78.646  34.342  0.00  0.00    -0.255 NA
ATOM     25  C   LIG    1      -19.578  79.337  35.506  0.00  0.00    +0.149 A 
ATOM     26  C   LIG    1      -18.409  79.417  36.240  0.00  0.00    +0.141 A 
ATOM     27  F   LIG    1      -18.368  80.095  37.394  0.00  0.00    -0.204 F 
ATOM     28  C   LIG    1      -17.279  78.776  35.765  0.00  0.00    +0.042 A 
ATOM     29  C   LIG    1      -17.357  78.069  34.566  0.00  0.00    +0.028 A 
ENDBRANCH  22  23
ENDBRANCH  19  22
ENDBRANCH   1  19
TORSDOF 5
ENDMDL
MODEL 8
REMARK VINA RESULT:      -5.5      2.422      5.544
REMARK  Name = pdb/CHEMBL3659494.pdb
REMARK                            x       y       z     vdW  Elec       q    Type
REMARK                         _______ _______ _______ _____ _____    ______ ____
ROOT
ATOM      1  C   LIG    1      -19.687  78.956  33.317  0.00  0.00    +0.122 A 
ATOM      2  N   LIG    1      -20.760  78.542  32.606  0.00  0.00    -0.213 NA
ATOM      3  C   LIG    1      -20.468  77.821  31.495  0.00  0.00    +0.168 A 
ATOM      4  N   LIG    1      -21.331  77.261  30.566  0.00  0.00    -0.266 N 
ATOM      5  C   LIG    1      -20.536  76.585  29.659  0.00  0.00    +0.207 A 
ATOM      6  N   LIG    1      -19.250  76.696  29.919  0.00  0.00    -0.234 NA
ATOM      7  C   LIG    1      -19.198  77.466  31.047  0.00  0.00    +0.108 A 
ATOM      8  C   LIG    1      -18.106  77.922  31.778  0.00  0.00    +0.035 A 
ATOM      9  C   LIG    1      -18.373  78.707  32.905  0.00  0.00    +0.046 A 
ENDROOT
BRANCH   4  10
ATOM     10  C   LIG    1      -22.749  77.325  30.531  0.00  0.00    +0.162 A 
ATOM     11  N   LIG    1      -23.364  77.572  29.363  0.00  0.00    -0.155 NA
ATOM     12  N   LIG    1      -24.670  77.519  29.689  0.00  0.00    -0.279 N 
ATOM     13  H   LIG    1      -25.358  77.661  28.952  0.00  0.00    +0.189 HD
ATOM     14  C   LIG    1      -24.894  77.277  31.011  0.00  0.00    +0.041 A 
ATOM     15  C   LIG    1      -23.652  77.151  31.597  0.00  0.00    +0.071 A 
BRANCH  14  16
ATOM     16  C   LIG    1      -26.256  77.172  31.663  0.00  0.00    +0.037 C 
ATOM     17  C   LIG    1      -26.352  76.569  33.047  0.00  0.00    +0.010 C 
ATOM     18  C   LIG    1      -26.865  75.800  31.876  0.00  0.00    +0.010 C 
ENDBRANCH  14  16
ENDBRANCH   4  10
BRANCH   1  19
ATOM     19  N   LIG    1      -19.974  79.706  34.453  0.00  0.00    -0.321 N 
ATOM     20  H   LIG    1      -20.440  80.565  34.160  0.00  0.00    +0.148 HD
BRANCH  19  22
ATOM     21  C   LIG    1      -20.083  79.854  36.910  0.00  0.00    +0.034 C 
ATOM     22  C   LIG    1      -20.560  79.104  35.658  0.00  0.00    +0.117 C 
BRANCH  22  23
ATOM     23  C   LIG    1      -22.086  79.045  35.579  0.00  0.00    +0.061 A 
ATOM     24  N   LIG    1      -22.715  77.866  35.842  0.00  0.00    -0.255 NA
ATOM     25  C   LIG    1      -24.072  77.857  35.789  0.00  0.00    +0.149 A 
ATOM     26  C   LIG    1      -24.836  78.975  35.506  0.00  0.00    +0.141 A 
ATOM     27  F   LIG    1      -26.172  78.909  35.492  0.00  0.00    -0.204 F 
ATOM     28  C   LIG    1      -24.192  80.172  35.243  0.00  0.00    +0.042 A 
ATOM     29  C   LIG    1      -22.799  80.211  35.277  0.00  0.00    +0.028 A 
ENDBRANCH  22  23
ENDBRANCH  19  22
ENDBRANCH   1  19
TORSDOF 5
ENDMDL
MODEL 9
REMARK VINA RESULT:      -5.5     12.788     16.105
REMARK  Name = pdb/CHEMBL3659494.pdb
REMARK                            x       y       z     vdW  Elec       q    Type
REMARK                         _______ _______ _______ _____ _____    ______ ____
ROOT
ATOM      1  C   LIG    1      -37.385  76.123  25.512  0.00  0.00    +0.122 A 
ATOM      2  N   LIG    1      -37.899  77.325  25.165  0.00  0.00    -0.213 NA
ATOM      3  C   LIG    1      -39.093  77.274  24.524  0.00  0.00    +0.168 A 
ATOM      4  N   LIG    1      -39.871  78.317  24.044  0.00  0.00    -0.266 N 
ATOM      5  C   LIG    1      -41.014  77.738  23.524  0.00  0.00    +0.207 A 
ATOM      6  N   LIG    1      -41.009  76.424  23.609  0.00  0.00    -0.234 NA
ATOM      7  C   LIG    1      -39.823  76.128  24.218  0.00  0.00    +0.108 A 
ATOM      8  C   LIG    1      -39.266  74.900  24.561  0.00  0.00    +0.035 A 
ATOM      9  C   LIG    1      -38.013  74.916  25.182  0.00  0.00    +0.046 A 
ENDROOT
BRANCH   4  10
ATOM     10  C   LIG    1      -39.595  79.709  24.080  0.00  0.00    +0.162 A 
ATOM     11  N   LIG    1      -39.357  80.359  22.928  0.00  0.00    -0.155 NA
ATOM     12  N   LIG    1      -39.184  81.634  23.328  0.00  0.00    -0.279 N 
ATOM     13  H   LIG    1      -39.002  82.342  22.619  0.00  0.00    +0.189 HD
ATOM     14  C   LIG    1      -39.276  81.802  24.677  0.00  0.00    +0.041 A 
ATOM     15  C   LIG    1      -39.540  80.554  25.204  0.00  0.00    +0.071 A 
BRANCH  14  16
ATOM     16  C   LIG    1      -39.118  83.117  25.409  0.00  0.00    +0.037 C 
ATOM     17  C   LIG    1      -38.167  84.150  24.847  0.00  0.00    +0.010 C 
ATOM     18  C   LIG    1      -37.803  83.421  26.098  0.00  0.00    +0.010 C 
ENDBRANCH  14  16
ENDBRANCH   4  10
BRANCH   1  19
ATOM     19  N   LIG    1      -36.155  76.162  26.160  0.00  0.00    -0.321 N 
ATOM     20  H   LIG    1      -35.437  76.387  25.470  0.00  0.00    +0.148 HD
BRANCH  19  22
ATOM     21  C   LIG    1      -37.013  76.362  28.460  0.00  0.00    +0.034 C 
ATOM     22  C   LIG    1      -35.971  76.850  27.444  0.00  0.00    +0.117 C 
BRANCH  22  23
ATOM     23  C   LIG    1      -34.545  76.692  27.974  0.00  0.00    +0.061 A 
ATOM     24  N   LIG    1      -34.247  75.613  28.751  0.00  0.00    -0.255 NA
ATOM     25  C   LIG    1      -32.964  75.490  29.181  0.00  0.00    +0.149 A 
ATOM     26  C   LIG    1      -31.958  76.380  28.857  0.00  0.00    +0.141 A 
ATOM     27  F   LIG    1      -30.707  76.192  29.293  0.00  0.00    -0.204 F 
ATOM     28  C   LIG    1      -32.265  77.473  28.065  0.00  0.00    +0.042 A 
ATOM     29  C   LIG    1      -33.575  77.635  27.617  0.00  0.00    +0.028 A 
ENDBRANCH  22  23
ENDBRANCH  19  22
ENDBRANCH   1  19
TORSDOF 5
ENDMDL
