MODEL 1
REMARK VINA RESULT:      -6.2      0.000      0.000
REMARK  Name = pdb/CHEMBL3916979.pdb
REMARK                            x       y       z     vdW  Elec       q    Type
REMARK                         _______ _______ _______ _____ _____    ______ ____
ROOT
ATOM      1  C   LIG    1      -19.400  85.484  13.602  0.00  0.00    +0.098 A 
ATOM      2  C   LIG    1      -19.694  84.139  13.496  0.00  0.00    +0.179 A 
ATOM      3  N   LIG    1      -20.623  83.346  14.124  0.00  0.00    -0.211 NA
ATOM      4  C   LIG    1      -20.648  82.061  13.826  0.00  0.00    +0.126 A 
ATOM      5  C   LIG    1      -19.700  81.475  12.799  0.00  0.00    +0.063 A 
ATOM      6  C   LIG    1      -18.838  82.302  12.200  0.00  0.00    +0.118 A 
ATOM      7  N   LIG    1      -18.810  83.640  12.540  0.00  0.00    -0.220 N 
ATOM      8  N   LIG    1      -17.984  84.594  12.048  0.00  0.00    -0.171 NA
ATOM      9  C   LIG    1      -18.340  85.702  12.700  0.00  0.00    +0.160 A 
ENDROOT
BRANCH   4  10
ATOM     10  N   LIG    1      -21.578  81.236  14.450  0.00  0.00    -0.308 N 
ATOM     11  C   LIG    1      -21.437  80.627  15.787  0.00  0.00    +0.108 C 
ATOM     12  C   LIG    1      -22.884  80.297  16.214  0.00  0.00    +0.029 C 
ATOM     13  C   LIG    1      -23.778  80.954  15.173  0.00  0.00    +0.021 C 
ATOM     14  C   LIG    1      -22.916  80.991  13.924  0.00  0.00    +0.107 C 
BRANCH  11  15
ATOM     15  C   LIG    1      -20.534  79.400  15.781  0.00  0.00    +0.011 A 
ATOM     16  C   LIG    1      -19.203  79.486  16.217  0.00  0.00    +0.129 A 
ATOM     17  F   LIG    1      -18.718  80.654  16.661  0.00  0.00    -0.205 F 
ATOM     18  C   LIG    1      -18.352  78.374  16.215  0.00  0.00    +0.041 A 
ATOM     19  C   LIG    1      -18.828  77.138  15.785  0.00  0.00    +0.041 A 
ATOM     20  C   LIG    1      -20.140  77.035  15.347  0.00  0.00    +0.124 A 
ATOM     21  F   LIG    1      -20.614  75.851  14.942  0.00  0.00    -0.205 F 
ATOM     22  C   LIG    1      -20.979  78.145  15.330  0.00  0.00    +0.046 A 
ENDBRANCH  11  15
ENDBRANCH   4  10
BRANCH   1  24
ATOM     23  C   LIG    1      -21.327  86.843  14.201  0.00  0.00    +0.303 C 
ATOM     24  N   LIG    1      -20.067  86.348  14.446  0.00  0.00    -0.273 N 
ATOM     25  H   LIG    1      -19.592  86.592  15.310  0.00  0.00    +0.155 HD
ATOM     26  O   LIG    1      -22.060  86.619  13.249  0.00  0.00    -0.265 OA
BRANCH  23  30
ATOM     27  N   LIG    1      -21.234  87.465  16.563  0.00  0.00    -0.322 N 
ATOM     28  H   LIG    1      -20.600  86.685  16.675  0.00  0.00    +0.145 HD
ATOM     29  H   LIG    1      -21.591  87.936  17.384  0.00  0.00    +0.145 HD
ATOM     30  C   LIG    1      -21.851  87.701  15.362  0.00  0.00    +0.297 C 
ATOM     31  O   LIG    1      -22.705  88.549  15.189  0.00  0.00    -0.265 OA
ENDBRANCH  23  30
ENDBRANCH   1  24
TORSDOF 4
ENDMDL
MODEL 2
REMARK VINA RESULT:      -5.9     19.668     22.411
REMARK  Name = pdb/CHEMBL3916979.pdb
REMARK                            x       y       z     vdW  Elec       q    Type
REMARK                         _______ _______ _______ _____ _____    ______ ____
ROOT
ATOM      1  C   LIG    1      -35.794  77.120  28.523  0.00  0.00    +0.098 A 
ATOM      2  C   LIG    1      -36.981  76.743  27.928  0.00  0.00    +0.179 A 
ATOM      3  N   LIG    1      -37.440  76.853  26.638  0.00  0.00    -0.211 NA
ATOM      4  C   LIG    1      -38.656  76.415  26.371  0.00  0.00    +0.126 A 
ATOM      5  C   LIG    1      -39.517  75.784  27.447  0.00  0.00    +0.063 A 
ATOM      6  C   LIG    1      -39.004  75.679  28.676  0.00  0.00    +0.118 A 
ATOM      7  N   LIG    1      -37.738  76.163  28.943  0.00  0.00    -0.220 N 
ATOM      8  N   LIG    1      -37.093  76.157  30.134  0.00  0.00    -0.171 NA
ATOM      9  C   LIG    1      -35.924  76.744  29.875  0.00  0.00    +0.160 A 
ENDROOT
BRANCH   4  10
ATOM     10  N   LIG    1      -39.146  76.516  25.073  0.00  0.00    -0.308 N 
ATOM     11  C   LIG    1      -40.403  75.929  24.573  0.00  0.00    +0.108 C 
ATOM     12  C   LIG    1      -40.740  76.756  23.312  0.00  0.00    +0.029 C 
ATOM     13  C   LIG    1      -39.755  77.917  23.310  0.00  0.00    +0.021 C 
ATOM     14  C   LIG    1      -38.549  77.373  24.054  0.00  0.00    +0.107 C 
BRANCH  11  15
ATOM     15  C   LIG    1      -40.280  74.439  24.279  0.00  0.00    +0.011 A 
ATOM     16  C   LIG    1      -41.356  73.725  23.728  0.00  0.00    +0.129 A 
ATOM     17  F   LIG    1      -42.501  74.358  23.438  0.00  0.00    -0.205 F 
ATOM     18  C   LIG    1      -41.270  72.355  23.456  0.00  0.00    +0.041 A 
ATOM     19  C   LIG    1      -40.087  71.668  23.721  0.00  0.00    +0.041 A 
ATOM     20  C   LIG    1      -39.016  72.357  24.270  0.00  0.00    +0.124 A 
ATOM     21  F   LIG    1      -37.869  71.713  24.518  0.00  0.00    -0.205 F 
ATOM     22  C   LIG    1      -39.108  73.715  24.559  0.00  0.00    +0.046 A 
ENDBRANCH  11  15
ENDBRANCH   4  10
BRANCH   1  24
ATOM     23  C   LIG    1      -33.646  77.064  27.380  0.00  0.00    +0.303 C 
ATOM     24  N   LIG    1      -34.757  77.729  27.845  0.00  0.00    -0.273 N 
ATOM     25  H   LIG    1      -34.860  78.723  27.662  0.00  0.00    +0.155 HD
ATOM     26  O   LIG    1      -33.382  75.875  27.464  0.00  0.00    -0.265 OA
BRANCH  23  30
ATOM     27  N   LIG    1      -33.039  79.313  26.638  0.00  0.00    -0.322 N 
ATOM     28  H   LIG    1      -33.911  79.614  27.054  0.00  0.00    +0.145 HD
ATOM     29  H   LIG    1      -32.515  79.960  26.064  0.00  0.00    +0.145 HD
ATOM     30  C   LIG    1      -32.711  77.983  26.580  0.00  0.00    +0.297 C 
ATOM     31  O   LIG    1      -31.738  77.545  25.998  0.00  0.00    -0.265 OA
ENDBRANCH  23  30
ENDBRANCH   1  24
TORSDOF 4
ENDMDL
MODEL 3
REMARK VINA RESULT:      -5.8     19.230     21.813
REMARK  Name = pdb/CHEMBL3916979.pdb
REMARK                            x       y       z     vdW  Elec       q    Type
REMARK                         _______ _______ _______ _____ _____    ______ ____
ROOT
ATOM      1  C   LIG    1      -35.666  78.839  28.446  0.00  0.00    +0.098 A 
ATOM      2  C   LIG    1      -36.896  78.700  27.835  0.00  0.00    +0.179 A 
ATOM      3  N   LIG    1      -37.317  77.937  26.773  0.00  0.00    -0.211 NA
ATOM      4  C   LIG    1      -38.577  78.038  26.394  0.00  0.00    +0.126 A 
ATOM      5  C   LIG    1      -39.545  78.948  27.124  0.00  0.00    +0.063 A 
ATOM      6  C   LIG    1      -39.084  79.643  28.168  0.00  0.00    +0.118 A 
ATOM      7  N   LIG    1      -37.757  79.543  28.536  0.00  0.00    -0.220 N 
ATOM      8  N   LIG    1      -37.134  80.198  29.545  0.00  0.00    -0.171 NA
ATOM      9  C   LIG    1      -35.871  79.774  29.479  0.00  0.00    +0.160 A 
ENDROOT
BRANCH   4  10
ATOM     10  N   LIG    1      -39.027  77.278  25.320  0.00  0.00    -0.308 N 
ATOM     11  C   LIG    1      -39.873  76.073  25.406  0.00  0.00    +0.108 C 
ATOM     12  C   LIG    1      -40.515  75.952  24.005  0.00  0.00    +0.029 C 
ATOM     13  C   LIG    1      -40.159  77.242  23.281  0.00  0.00    +0.021 C 
ATOM     14  C   LIG    1      -38.856  77.676  23.927  0.00  0.00    +0.107 C 
BRANCH  11  15
ATOM     15  C   LIG    1      -39.084  74.828  25.797  0.00  0.00    +0.011 A 
ATOM     16  C   LIG    1      -38.867  74.512  27.146  0.00  0.00    +0.129 A 
ATOM     17  F   LIG    1      -39.369  75.299  28.108  0.00  0.00    -0.205 F 
ATOM     18  C   LIG    1      -38.140  73.379  27.531  0.00  0.00    +0.041 A 
ATOM     19  C   LIG    1      -37.624  72.524  26.560  0.00  0.00    +0.041 A 
ATOM     20  C   LIG    1      -37.826  72.824  25.221  0.00  0.00    +0.124 A 
ATOM     21  F   LIG    1      -37.347  72.005  24.277  0.00  0.00    -0.205 F 
ATOM     22  C   LIG    1      -38.532  73.961  24.839  0.00  0.00    +0.046 A 
ENDBRANCH  11  15
ENDBRANCH   4  10
BRANCH   1  24
ATOM     23  C   LIG    1      -33.540  78.701  27.270  0.00  0.00    +0.303 C 
ATOM     24  N   LIG    1      -34.534  78.156  28.050  0.00  0.00    -0.273 N 
ATOM     25  H   LIG    1      -34.435  77.206  28.396  0.00  0.00    +0.155 HD
ATOM     26  O   LIG    1      -33.467  79.831  26.812  0.00  0.00    -0.265 OA
BRANCH  23  30
ATOM     27  N   LIG    1      -32.050  76.991  28.182  0.00  0.00    -0.322 N 
ATOM     28  H   LIG    1      -32.479  77.188  29.076  0.00  0.00    +0.145 HD
ATOM     29  H   LIG    1      -31.230  76.401  28.145  0.00  0.00    +0.145 HD
ATOM     30  C   LIG    1      -32.360  77.737  27.074  0.00  0.00    +0.297 C 
ATOM     31  O   LIG    1      -31.802  77.628  26.000  0.00  0.00    -0.265 OA
ENDBRANCH  23  30
ENDBRANCH   1  24
TORSDOF 4
ENDMDL
MODEL 4
REMARK VINA RESULT:      -5.8     15.712     17.899
REMARK  Name = pdb/CHEMBL3916979.pdb
REMARK                            x       y       z     vdW  Elec       q    Type
REMARK                         _______ _______ _______ _____ _____    ______ ____
ROOT
ATOM      1  C   LIG    1      -32.010  93.689  22.851  0.00  0.00    +0.098 A 
ATOM      2  C   LIG    1      -32.530  93.380  21.610  0.00  0.00    +0.179 A 
ATOM      3  N   LIG    1      -33.650  92.682  21.228  0.00  0.00    -0.211 NA
ATOM      4  C   LIG    1      -33.875  92.526  19.937  0.00  0.00    +0.126 A 
ATOM      5  C   LIG    1      -32.944  93.122  18.900  0.00  0.00    +0.063 A 
ATOM      6  C   LIG    1      -31.887  93.814  19.333  0.00  0.00    +0.118 A 
ATOM      7  N   LIG    1      -31.654  93.949  20.688  0.00  0.00    -0.220 N 
ATOM      8  N   LIG    1      -30.620  94.591  21.282  0.00  0.00    -0.171 NA
ATOM      9  C   LIG    1      -30.837  94.423  22.587  0.00  0.00    +0.160 A 
ENDROOT
BRANCH   4  10
ATOM     10  N   LIG    1      -35.001  91.821  19.524  0.00  0.00    -0.308 N 
ATOM     11  C   LIG    1      -35.018  90.437  19.014  0.00  0.00    +0.108 C 
ATOM     12  C   LIG    1      -36.476  89.968  19.222  0.00  0.00    +0.029 C 
ATOM     13  C   LIG    1      -37.140  91.056  20.053  0.00  0.00    +0.021 C 
ATOM     14  C   LIG    1      -36.364  92.311  19.698  0.00  0.00    +0.107 C 
BRANCH  11  15
ATOM     15  C   LIG    1      -34.575  90.341  17.559  0.00  0.00    +0.011 A 
ATOM     16  C   LIG    1      -33.630  89.384  17.159  0.00  0.00    +0.129 A 
ATOM     17  F   LIG    1      -33.120  88.530  18.057  0.00  0.00    -0.205 F 
ATOM     18  C   LIG    1      -33.202  89.281  15.830  0.00  0.00    +0.041 A 
ATOM     19  C   LIG    1      -33.729  90.134  14.863  0.00  0.00    +0.041 A 
ATOM     20  C   LIG    1      -34.661  91.089  15.242  0.00  0.00    +0.124 A 
ATOM     21  F   LIG    1      -35.185  91.907  14.322  0.00  0.00    -0.205 F 
ATOM     22  C   LIG    1      -35.071  91.205  16.567  0.00  0.00    +0.046 A 
ENDBRANCH  11  15
ENDBRANCH   4  10
BRANCH   1  24
ATOM     23  C   LIG    1      -32.141  92.280  24.830  0.00  0.00    +0.303 C 
ATOM     24  N   LIG    1      -32.597  93.311  24.042  0.00  0.00    -0.273 N 
ATOM     25  H   LIG    1      -33.392  93.864  24.350  0.00  0.00    +0.155 HD
ATOM     26  O   LIG    1      -31.180  91.549  24.646  0.00  0.00    -0.265 OA
BRANCH  23  30
ATOM     27  N   LIG    1      -33.636  90.986  26.268  0.00  0.00    -0.322 N 
ATOM     28  H   LIG    1      -33.726  90.348  25.488  0.00  0.00    +0.145 HD
ATOM     29  H   LIG    1      -34.245  90.879  27.068  0.00  0.00    +0.145 HD
ATOM     30  C   LIG    1      -32.933  92.156  26.141  0.00  0.00    +0.297 C 
ATOM     31  O   LIG    1      -32.879  93.016  26.998  0.00  0.00    -0.265 OA
ENDBRANCH  23  30
ENDBRANCH   1  24
TORSDOF 4
ENDMDL
MODEL 5
REMARK VINA RESULT:      -5.7     19.486     22.180
REMARK  Name = pdb/CHEMBL3916979.pdb
REMARK                            x       y       z     vdW  Elec       q    Type
REMARK                         _______ _______ _______ _____ _____    ______ ____
ROOT
ATOM      1  C   LIG    1      -35.887  79.401  27.829  0.00  0.00    +0.098 A 
ATOM      2  C   LIG    1      -36.944  78.521  27.708  0.00  0.00    +0.179 A 
ATOM      3  N   LIG    1      -37.045  77.277  27.133  0.00  0.00    -0.211 NA
ATOM      4  C   LIG    1      -38.221  76.678  27.152  0.00  0.00    +0.126 A 
ATOM      5  C   LIG    1      -39.422  77.325  27.812  0.00  0.00    +0.063 A 
ATOM      6  C   LIG    1      -39.254  78.523  28.379  0.00  0.00    +0.118 A 
ATOM      7  N   LIG    1      -38.022  79.147  28.330  0.00  0.00    -0.220 N 
ATOM      8  N   LIG    1      -37.699  80.364  28.829  0.00  0.00    -0.171 NA
ATOM      9  C   LIG    1      -36.411  80.514  28.515  0.00  0.00    +0.160 A 
ENDROOT
BRANCH   4  10
ATOM     10  N   LIG    1      -38.351  75.418  26.575  0.00  0.00    -0.308 N 
ATOM     11  C   LIG    1      -38.272  75.113  25.135  0.00  0.00    +0.108 C 
ATOM     12  C   LIG    1      -37.934  73.606  25.078  0.00  0.00    +0.029 C 
ATOM     13  C   LIG    1      -37.619  73.205  26.512  0.00  0.00    +0.021 C 
ATOM     14  C   LIG    1      -38.421  74.184  27.350  0.00  0.00    +0.107 C 
BRANCH  11  15
ATOM     15  C   LIG    1      -39.558  75.452  24.390  0.00  0.00    +0.011 A 
ATOM     16  C   LIG    1      -39.824  76.767  23.979  0.00  0.00    +0.129 A 
ATOM     17  F   LIG    1      -38.933  77.738  24.225  0.00  0.00    -0.205 F 
ATOM     18  C   LIG    1      -41.000  77.104  23.300  0.00  0.00    +0.041 A 
ATOM     19  C   LIG    1      -41.938  76.117  23.005  0.00  0.00    +0.041 A 
ATOM     20  C   LIG    1      -41.693  74.813  23.407  0.00  0.00    +0.124 A 
ATOM     21  F   LIG    1      -42.579  73.852  23.119  0.00  0.00    -0.205 F 
ATOM     22  C   LIG    1      -40.533  74.481  24.100  0.00  0.00    +0.046 A 
ENDBRANCH  11  15
ENDBRANCH   4  10
BRANCH   1  24
ATOM     23  C   LIG    1      -33.716  78.310  27.957  0.00  0.00    +0.303 C 
ATOM     24  N   LIG    1      -34.620  79.147  27.344  0.00  0.00    -0.273 N 
ATOM     25  H   LIG    1      -34.376  79.590  26.463  0.00  0.00    +0.155 HD
ATOM     26  O   LIG    1      -33.855  77.661  28.982  0.00  0.00    -0.265 OA
BRANCH  23  30
ATOM     27  N   LIG    1      -32.370  78.925  26.010  0.00  0.00    -0.322 N 
ATOM     28  H   LIG    1      -33.183  79.438  25.694  0.00  0.00    +0.145 HD
ATOM     29  H   LIG    1      -31.588  78.800  25.382  0.00  0.00    +0.145 HD
ATOM     30  C   LIG    1      -32.428  78.146  27.137  0.00  0.00    +0.297 C 
ATOM     31  O   LIG    1      -31.528  77.418  27.509  0.00  0.00    -0.265 OA
ENDBRANCH  23  30
ENDBRANCH   1  24
TORSDOF 4
ENDMDL
MODEL 6
REMARK VINA RESULT:      -5.7     20.499     22.922
REMARK  Name = pdb/CHEMBL3916979.pdb
REMARK                            x       y       z     vdW  Elec       q    Type
REMARK                         _______ _______ _______ _____ _____    ______ ____
ROOT
ATOM      1  C   LIG    1      -37.888  76.093  24.928  0.00  0.00    +0.098 A 
ATOM      2  C   LIG    1      -38.462  74.849  24.756  0.00  0.00    +0.179 A 
ATOM      3  N   LIG    1      -38.018  73.582  25.044  0.00  0.00    -0.211 NA
ATOM      4  C   LIG    1      -38.798  72.564  24.733  0.00  0.00    +0.126 A 
ATOM      5  C   LIG    1      -40.159  72.782  24.103  0.00  0.00    +0.063 A 
ATOM      6  C   LIG    1      -40.547  74.039  23.873  0.00  0.00    +0.118 A 
ATOM      7  N   LIG    1      -39.709  75.092  24.183  0.00  0.00    -0.220 N 
ATOM      8  N   LIG    1      -39.944  76.411  23.987  0.00  0.00    -0.171 NA
ATOM      9  C   LIG    1      -38.837  77.009  24.432  0.00  0.00    +0.160 A 
ENDROOT
BRANCH   4  10
ATOM     10  N   LIG    1      -38.371  71.270  25.013  0.00  0.00    -0.308 N 
ATOM     11  C   LIG    1      -37.690  70.360  24.072  0.00  0.00    +0.108 C 
ATOM     12  C   LIG    1      -36.970  69.336  24.978  0.00  0.00    +0.029 C 
ATOM     13  C   LIG    1      -37.110  69.875  26.394  0.00  0.00    +0.021 C 
ATOM     14  C   LIG    1      -38.392  70.688  26.350  0.00  0.00    +0.107 C 
BRANCH  11  15
ATOM     15  C   LIG    1      -38.653  69.699  23.093  0.00  0.00    +0.011 A 
ATOM     16  C   LIG    1      -38.204  69.238  21.846  0.00  0.00    +0.129 A 
ATOM     17  F   LIG    1      -36.912  69.362  21.511  0.00  0.00    -0.205 F 
ATOM     18  C   LIG    1      -39.070  68.635  20.927  0.00  0.00    +0.041 A 
ATOM     19  C   LIG    1      -40.415  68.466  21.249  0.00  0.00    +0.041 A 
ATOM     20  C   LIG    1      -40.876  68.919  22.475  0.00  0.00    +0.124 A 
ATOM     21  F   LIG    1      -42.163  68.753  22.804  0.00  0.00    -0.205 F 
ATOM     22  C   LIG    1      -40.019  69.538  23.381  0.00  0.00    +0.046 A 
ENDBRANCH  11  15
ENDBRANCH   4  10
BRANCH   1  24
ATOM     23  C   LIG    1      -36.398  76.334  26.836  0.00  0.00    +0.303 C 
ATOM     24  N   LIG    1      -36.639  76.290  25.483  0.00  0.00    -0.273 N 
ATOM     25  H   LIG    1      -35.863  76.370  24.831  0.00  0.00    +0.155 HD
ATOM     26  O   LIG    1      -37.192  76.205  27.755  0.00  0.00    -0.265 OA
BRANCH  23  30
ATOM     27  N   LIG    1      -34.272  75.277  27.421  0.00  0.00    -0.322 N 
ATOM     28  H   LIG    1      -34.804  74.424  27.536  0.00  0.00    +0.145 HD
ATOM     29  H   LIG    1      -33.307  75.304  27.722  0.00  0.00    +0.145 HD
ATOM     30  C   LIG    1      -34.901  76.466  27.155  0.00  0.00    +0.297 C 
ATOM     31  O   LIG    1      -34.337  77.542  27.116  0.00  0.00    -0.265 OA
ENDBRANCH  23  30
ENDBRANCH   1  24
TORSDOF 4
ENDMDL
MODEL 7
REMARK VINA RESULT:      -5.6     16.284     19.605
REMARK  Name = pdb/CHEMBL3916979.pdb
REMARK                            x       y       z     vdW  Elec       q    Type
REMARK                         _______ _______ _______ _____ _____    ______ ____
ROOT
ATOM      1  C   LIG    1      -32.873  65.569  19.855  0.00  0.00    +0.098 A 
ATOM      2  C   LIG    1      -31.731  66.002  19.212  0.00  0.00    +0.179 A 
ATOM      3  N   LIG    1      -30.980  67.145  19.337  0.00  0.00    -0.211 NA
ATOM      4  C   LIG    1      -29.932  67.291  18.549  0.00  0.00    +0.126 A 
ATOM      5  C   LIG    1      -29.546  66.218  17.550  0.00  0.00    +0.063 A 
ATOM      6  C   LIG    1      -30.299  65.116  17.494  0.00  0.00    +0.118 A 
ATOM      7  N   LIG    1      -31.405  64.989  18.311  0.00  0.00    -0.220 N 
ATOM      8  N   LIG    1      -32.278  63.954  18.355  0.00  0.00    -0.171 NA
ATOM      9  C   LIG    1      -33.165  64.315  19.283  0.00  0.00    +0.160 A 
ENDROOT
BRANCH   4  10
ATOM     10  N   LIG    1      -29.156  68.441  18.654  0.00  0.00    -0.308 N 
ATOM     11  C   LIG    1      -29.651  69.829  18.594  0.00  0.00    +0.108 C 
ATOM     12  C   LIG    1      -28.549  70.661  19.287  0.00  0.00    +0.029 C 
ATOM     13  C   LIG    1      -27.595  69.646  19.900  0.00  0.00    +0.021 C 
ATOM     14  C   LIG    1      -27.741  68.425  19.011  0.00  0.00    +0.107 C 
BRANCH  11  15
ATOM     15  C   LIG    1      -29.926  70.293  17.169  0.00  0.00    +0.011 A 
ATOM     16  C   LIG    1      -31.225  70.252  16.639  0.00  0.00    +0.129 A 
ATOM     17  F   LIG    1      -32.243  69.816  17.395  0.00  0.00    -0.205 F 
ATOM     18  C   LIG    1      -31.502  70.667  15.331  0.00  0.00    +0.041 A 
ATOM     19  C   LIG    1      -30.474  71.150  14.525  0.00  0.00    +0.041 A 
ATOM     20  C   LIG    1      -29.183  71.194  15.031  0.00  0.00    +0.124 A 
ATOM     21  F   LIG    1      -28.188  71.667  14.272  0.00  0.00    -0.205 F 
ATOM     22  C   LIG    1      -28.905  70.763  16.325  0.00  0.00    +0.046 A 
ENDBRANCH  11  15
ENDBRANCH   4  10
BRANCH   1  24
ATOM     23  C   LIG    1      -34.822  66.713  20.756  0.00  0.00    +0.303 C 
ATOM     24  N   LIG    1      -33.516  66.290  20.841  0.00  0.00    -0.273 N 
ATOM     25  H   LIG    1      -32.981  66.478  21.684  0.00  0.00    +0.155 HD
ATOM     26  O   LIG    1      -35.621  66.535  19.849  0.00  0.00    -0.265 OA
BRANCH  23  30
ATOM     27  N   LIG    1      -36.655  67.455  22.193  0.00  0.00    -0.322 N 
ATOM     28  H   LIG    1      -37.270  67.185  21.436  0.00  0.00    +0.145 HD
ATOM     29  H   LIG    1      -37.031  67.973  22.976  0.00  0.00    +0.145 HD
ATOM     30  C   LIG    1      -35.293  67.407  22.043  0.00  0.00    +0.297 C 
ATOM     31  O   LIG    1      -34.501  67.820  22.867  0.00  0.00    -0.265 OA
ENDBRANCH  23  30
ENDBRANCH   1  24
TORSDOF 4
ENDMDL
MODEL 8
REMARK VINA RESULT:      -5.5      3.073      3.943
REMARK  Name = pdb/CHEMBL3916979.pdb
REMARK                            x       y       z     vdW  Elec       q    Type
REMARK                         _______ _______ _______ _____ _____    ______ ____
ROOT
ATOM      1  C   LIG    1      -23.759  84.694  12.081  0.00  0.00    +0.098 A 
ATOM      2  C   LIG    1      -24.099  83.360  11.976  0.00  0.00    +0.179 A 
ATOM      3  N   LIG    1      -24.304  82.384  12.921  0.00  0.00    -0.211 NA
ATOM      4  C   LIG    1      -24.600  81.167  12.505  0.00  0.00    +0.126 A 
ATOM      5  C   LIG    1      -24.739  80.855  11.029  0.00  0.00    +0.063 A 
ATOM      6  C   LIG    1      -24.556  81.852  10.158  0.00  0.00    +0.118 A 
ATOM      7  N   LIG    1      -24.225  83.115  10.610  0.00  0.00    -0.220 N 
ATOM      8  N   LIG    1      -23.982  84.216   9.860  0.00  0.00    -0.171 NA
ATOM      9  C   LIG    1      -23.693  85.163  10.754  0.00  0.00    +0.160 A 
ENDROOT
BRANCH   4  10
ATOM     10  N   LIG    1      -24.810  80.160  13.442  0.00  0.00    -0.308 N 
ATOM     11  C   LIG    1      -24.656  80.290  14.903  0.00  0.00    +0.108 C 
ATOM     12  C   LIG    1      -25.501  79.134  15.484  0.00  0.00    +0.029 C 
ATOM     13  C   LIG    1      -26.268  78.556  14.303  0.00  0.00    +0.021 C 
ATOM     14  C   LIG    1      -25.383  78.861  13.108  0.00  0.00    +0.107 C 
BRANCH  11  15
ATOM     15  C   LIG    1      -23.200  80.231  15.348  0.00  0.00    +0.011 A 
ATOM     16  C   LIG    1      -22.556  81.372  15.849  0.00  0.00    +0.129 A 
ATOM     17  F   LIG    1      -23.227  82.527  15.956  0.00  0.00    -0.205 F 
ATOM     18  C   LIG    1      -21.217  81.344  16.257  0.00  0.00    +0.041 A 
ATOM     19  C   LIG    1      -20.494  80.156  16.184  0.00  0.00    +0.041 A 
ATOM     20  C   LIG    1      -21.114  79.019  15.687  0.00  0.00    +0.124 A 
ATOM     21  F   LIG    1      -20.436  77.867  15.623  0.00  0.00    -0.205 F 
ATOM     22  C   LIG    1      -22.439  79.052  15.263  0.00  0.00    +0.046 A 
ENDBRANCH  11  15
ENDBRANCH   4  10
BRANCH   1  24
ATOM     23  C   LIG    1      -22.409  85.207  14.039  0.00  0.00    +0.303 C 
ATOM     24  N   LIG    1      -23.551  85.338  13.284  0.00  0.00    -0.273 N 
ATOM     25  H   LIG    1      -24.287  85.967  13.593  0.00  0.00    +0.155 HD
ATOM     26  O   LIG    1      -21.412  84.542  13.801  0.00  0.00    -0.265 OA
BRANCH  23  30
ATOM     27  N   LIG    1      -22.028  87.408  15.032  0.00  0.00    -0.322 N 
ATOM     28  H   LIG    1      -21.627  87.667  14.140  0.00  0.00    +0.145 HD
ATOM     29  H   LIG    1      -21.932  88.035  15.819  0.00  0.00    +0.145 HD
ATOM     30  C   LIG    1      -22.422  86.118  15.276  0.00  0.00    +0.297 C 
ATOM     31  O   LIG    1      -22.805  85.714  16.357  0.00  0.00    -0.265 OA
ENDBRANCH  23  30
ENDBRANCH   1  24
TORSDOF 4
ENDMDL
MODEL 9
REMARK VINA RESULT:      -5.5     18.332     20.167
REMARK  Name = pdb/CHEMBL3916979.pdb
REMARK                            x       y       z     vdW  Elec       q    Type
REMARK                         _______ _______ _______ _____ _____    ______ ____
ROOT
ATOM      1  C   LIG    1      -23.554  79.879  35.461  0.00  0.00    +0.098 A 
ATOM      2  C   LIG    1      -23.555  79.036  34.368  0.00  0.00    +0.179 A 
ATOM      3  N   LIG    1      -22.553  78.610  33.531  0.00  0.00    -0.211 NA
ATOM      4  C   LIG    1      -22.873  77.806  32.535  0.00  0.00    +0.126 A 
ATOM      5  C   LIG    1      -24.300  77.339  32.332  0.00  0.00    +0.063 A 
ATOM      6  C   LIG    1      -25.227  77.764  33.195  0.00  0.00    +0.118 A 
ATOM      7  N   LIG    1      -24.878  78.623  34.219  0.00  0.00    -0.220 N 
ATOM      8  N   LIG    1      -25.699  79.161  35.153  0.00  0.00    -0.171 NA
ATOM      9  C   LIG    1      -24.894  79.925  35.894  0.00  0.00    +0.160 A 
ENDROOT
BRANCH   4  10
ATOM     10  N   LIG    1      -21.876  77.362  31.672  0.00  0.00    -0.308 N 
ATOM     11  C   LIG    1      -20.788  76.426  32.012  0.00  0.00    +0.108 C 
ATOM     12  C   LIG    1      -20.329  75.858  30.651  0.00  0.00    +0.029 C 
ATOM     13  C   LIG    1      -21.352  76.349  29.637  0.00  0.00    +0.021 C 
ATOM     14  C   LIG    1      -21.872  77.641  30.240  0.00  0.00    +0.107 C 
BRANCH  11  15
ATOM     15  C   LIG    1      -19.655  77.097  32.779  0.00  0.00    +0.011 A 
ATOM     16  C   LIG    1      -19.460  76.838  34.144  0.00  0.00    +0.129 A 
ATOM     17  F   LIG    1      -20.267  75.980  34.785  0.00  0.00    -0.205 F 
ATOM     18  C   LIG    1      -18.431  77.447  34.871  0.00  0.00    +0.041 A 
ATOM     19  C   LIG    1      -17.557  78.326  34.234  0.00  0.00    +0.041 A 
ATOM     20  C   LIG    1      -17.737  78.595  32.886  0.00  0.00    +0.124 A 
ATOM     21  F   LIG    1      -16.898  79.427  32.257  0.00  0.00    -0.205 F 
ATOM     22  C   LIG    1      -18.773  78.006  32.168  0.00  0.00    +0.046 A 
ENDBRANCH  11  15
ENDBRANCH   4  10
BRANCH   1  24
ATOM     23  C   LIG    1      -22.261  81.861  36.029  0.00  0.00    +0.303 C 
ATOM     24  N   LIG    1      -22.420  80.497  35.949  0.00  0.00    -0.273 N 
ATOM     25  H   LIG    1      -21.686  79.885  36.295  0.00  0.00    +0.155 HD
ATOM     26  O   LIG    1      -23.050  82.738  35.711  0.00  0.00    -0.265 OA
BRANCH  23  30
ATOM     27  N   LIG    1      -20.768  83.604  36.869  0.00  0.00    -0.322 N 
ATOM     28  H   LIG    1      -21.404  84.263  36.439  0.00  0.00    +0.145 HD
ATOM     29  H   LIG    1      -19.882  83.933  37.228  0.00  0.00    +0.145 HD
ATOM     30  C   LIG    1      -20.939  82.254  36.703  0.00  0.00    +0.297 C 
ATOM     31  O   LIG    1      -20.153  81.414  37.096  0.00  0.00    -0.265 OA
ENDBRANCH  23  30
ENDBRANCH   1  24
TORSDOF 4
ENDMDL
