MODEL 1
REMARK VINA RESULT:      -5.7      0.000      0.000
REMARK  Name = pdb/CHEMBL3930913.pdb
REMARK                            x       y       z     vdW  Elec       q    Type
REMARK                         _______ _______ _______ _____ _____    ______ ____
ROOT
ATOM      1  C   LIG    1      -20.611  76.904  30.726  0.00  0.00    +0.042 A 
ATOM      2  C   LIG    1      -20.756  77.882  31.733  0.00  0.00    +0.042 A 
ATOM      3  C   LIG    1      -19.640  78.431  32.390  0.00  0.00    +0.086 A 
ATOM      4  C   LIG    1      -18.394  77.954  31.974  0.00  0.00    +0.138 A 
ATOM      5  N   LIG    1      -18.203  77.007  31.016  0.00  0.00    -0.260 NA
ATOM      6  C   LIG    1      -19.314  76.520  30.410  0.00  0.00    +0.122 A 
ENDROOT
BRANCH   1   7
ATOM      7  C   LIG    1      -21.780  76.362  29.957  0.00  0.00    +0.197 C 
ATOM      8  O   LIG    1      -21.750  76.445  28.720  0.00  0.00    -0.287 OA
BRANCH   7  16
ATOM      9  N   LIG    1      -24.139  74.285  31.870  0.00  0.00    -0.343 N 
ATOM     10  C   LIG    1      -24.961  75.377  31.691  0.00  0.00    +0.053 A 
ATOM     11  C   LIG    1      -26.268  75.624  32.132  0.00  0.00    +0.046 A 
ATOM     12  C   LIG    1      -26.829  76.821  31.741  0.00  0.00    +0.113 A 
ATOM     13  N   LIG    1      -26.205  77.729  30.970  0.00  0.00    -0.263 NA
ATOM     14  C   LIG    1      -24.927  77.489  30.555  0.00  0.00    +0.121 A 
ATOM     15  C   LIG    1      -24.252  76.307  30.914  0.00  0.00    +0.029 A 
ATOM     16  C   LIG    1      -22.934  75.756  30.652  0.00  0.00    +0.049 A 
ATOM     17  C   LIG    1      -22.935  74.501  31.248  0.00  0.00    +0.099 A 
BRANCH   9  19
ATOM     18  C   LIG    1      -23.765  71.831  32.024  0.00  0.00    +0.030 C 
ATOM     19  C   LIG    1      -24.475  73.060  32.600  0.00  0.00    +0.081 C 
ATOM     20  C   LIG    1      -24.248  73.207  34.107  0.00  0.00    +0.030 C 
ENDBRANCH   9  19
ENDBRANCH   7  16
ENDBRANCH   1   7
BRANCH   3  21
ATOM     21  N   LIG    1      -19.855  79.442  33.361  0.00  0.00    -0.216 NA
ATOM     22  C   LIG    1      -19.983  79.162  34.621  0.00  0.00    +0.193 C 
BRANCH  22  23
ATOM     23  O   LIG    1      -19.876  77.900  35.088  0.00  0.00    -0.495 OA
ATOM     24  H   LIG    1      -20.418  77.270  34.568  0.00  0.00    +0.293 HD
ENDBRANCH  22  23
BRANCH  22  25
ATOM     25  C   LIG    1      -20.250  80.234  35.668  0.00  0.00    +0.150 C 
BRANCH  25  26
ATOM     26  C   LIG    1      -21.717  80.353  36.019  0.00  0.00    +0.050 A 
ATOM     27  N   LIG    1      -22.346  79.188  36.351  0.00  0.00    -0.258 NA
ATOM     28  C   LIG    1      -23.675  79.244  36.624  0.00  0.00    +0.131 A 
ATOM     29  C   LIG    1      -24.418  80.409  36.567  0.00  0.00    +0.059 A 
ATOM     30 CL   LIG    1      -26.099  80.398  36.906  0.00  0.00    -0.082 Cl
ATOM     31  C   LIG    1      -23.766  81.586  36.220  0.00  0.00    +0.023 A 
ATOM     32  C   LIG    1      -22.397  81.564  35.941  0.00  0.00    +0.025 A 
ENDBRANCH  25  26
ENDBRANCH  22  25
ENDBRANCH   3  21
TORSDOF 7
ENDMDL
MODEL 2
REMARK VINA RESULT:      -5.5     16.307     20.459
REMARK  Name = pdb/CHEMBL3930913.pdb
REMARK                            x       y       z     vdW  Elec       q    Type
REMARK                         _______ _______ _______ _____ _____    ______ ____
ROOT
ATOM      1  C   LIG    1      -40.369  70.520  23.156  0.00  0.00    +0.042 A 
ATOM      2  C   LIG    1      -39.021  70.126  23.294  0.00  0.00    +0.042 A 
ATOM      3  C   LIG    1      -38.391  69.314  22.334  0.00  0.00    +0.086 A 
ATOM      4  C   LIG    1      -39.179  68.939  21.242  0.00  0.00    +0.138 A 
ATOM      5  N   LIG    1      -40.484  69.285  21.069  0.00  0.00    -0.260 NA
ATOM      6  C   LIG    1      -41.037  70.076  22.022  0.00  0.00    +0.122 A 
ENDROOT
BRANCH   1   7
ATOM      7  C   LIG    1      -41.039  71.449  24.125  0.00  0.00    +0.197 C 
ATOM      8  O   LIG    1      -41.622  70.951  25.099  0.00  0.00    -0.287 OA
BRANCH   7  16
ATOM      9  N   LIG    1      -41.727  74.994  23.413  0.00  0.00    -0.343 N 
ATOM     10  C   LIG    1      -40.465  75.155  23.941  0.00  0.00    +0.053 A 
ATOM     11  C   LIG    1      -39.705  76.311  24.165  0.00  0.00    +0.046 A 
ATOM     12  C   LIG    1      -38.440  76.121  24.680  0.00  0.00    +0.113 A 
ATOM     13  N   LIG    1      -37.914  74.916  24.958  0.00  0.00    -0.263 NA
ATOM     14  C   LIG    1      -38.664  73.794  24.751  0.00  0.00    +0.121 A 
ATOM     15  C   LIG    1      -39.975  73.875  24.247  0.00  0.00    +0.029 A 
ATOM     16  C   LIG    1      -41.012  72.913  23.920  0.00  0.00    +0.049 A 
ATOM     17  C   LIG    1      -42.056  73.662  23.390  0.00  0.00    +0.099 A 
BRANCH   9  19
ATOM     18  C   LIG    1      -43.642  75.548  21.925  0.00  0.00    +0.030 C 
ATOM     19  C   LIG    1      -42.607  76.062  22.930  0.00  0.00    +0.081 C 
ATOM     20  C   LIG    1      -43.252  76.840  24.080  0.00  0.00    +0.030 C 
ENDBRANCH   9  19
ENDBRANCH   7  16
ENDBRANCH   1   7
BRANCH   3  21
ATOM     21  N   LIG    1      -37.022  68.991  22.513  0.00  0.00    -0.216 NA
ATOM     22  C   LIG    1      -36.650  67.908  23.122  0.00  0.00    +0.193 C 
BRANCH  22  23
ATOM     23  O   LIG    1      -37.539  67.004  23.582  0.00  0.00    -0.495 OA
ATOM     24  H   LIG    1      -37.606  66.224  22.991  0.00  0.00    +0.293 HD
ENDBRANCH  22  23
BRANCH  22  25
ATOM     25  C   LIG    1      -35.183  67.569  23.351  0.00  0.00    +0.150 C 
BRANCH  25  26
ATOM     26  C   LIG    1      -34.714  67.927  24.744  0.00  0.00    +0.050 A 
ATOM     27  N   LIG    1      -34.389  69.237  24.945  0.00  0.00    -0.258 NA
ATOM     28  C   LIG    1      -33.916  69.590  26.168  0.00  0.00    +0.131 A 
ATOM     29  C   LIG    1      -33.733  68.693  27.204  0.00  0.00    +0.059 A 
ATOM     30 CL   LIG    1      -33.111  69.209  28.716  0.00  0.00    -0.082 Cl
ATOM     31  C   LIG    1      -34.060  67.361  26.983  0.00  0.00    +0.023 A 
ATOM     32  C   LIG    1      -34.558  66.967  25.738  0.00  0.00    +0.025 A 
ENDBRANCH  25  26
ENDBRANCH  22  25
ENDBRANCH   3  21
TORSDOF 7
ENDMDL
MODEL 3
REMARK VINA RESULT:      -5.4     16.911     19.903
REMARK  Name = pdb/CHEMBL3930913.pdb
REMARK                            x       y       z     vdW  Elec       q    Type
REMARK                         _______ _______ _______ _____ _____    ______ ____
ROOT
ATOM      1  C   LIG    1      -23.476  81.132  15.484  0.00  0.00    +0.042 A 
ATOM      2  C   LIG    1      -23.329  79.768  15.816  0.00  0.00    +0.042 A 
ATOM      3  C   LIG    1      -24.146  78.780  15.236  0.00  0.00    +0.086 A 
ATOM      4  C   LIG    1      -25.092  79.236  14.314  0.00  0.00    +0.138 A 
ATOM      5  N   LIG    1      -25.278  80.539  13.970  0.00  0.00    -0.260 NA
ATOM      6  C   LIG    1      -24.456  81.447  14.552  0.00  0.00    +0.122 A 
ENDROOT
BRANCH   1   7
ATOM      7  C   LIG    1      -22.565  82.194  16.028  0.00  0.00    +0.197 C 
ATOM      8  O   LIG    1      -22.408  82.251  17.257  0.00  0.00    -0.287 OA
BRANCH   7  16
ATOM      9  N   LIG    1      -21.467  85.045  13.977  0.00  0.00    -0.343 N 
ATOM     10  C   LIG    1      -20.349  84.257  13.809  0.00  0.00    +0.053 A 
ATOM     11  C   LIG    1      -19.159  84.491  13.106  0.00  0.00    +0.046 A 
ATOM     12  C   LIG    1      -18.240  83.464  13.102  0.00  0.00    +0.113 A 
ATOM     13  N   LIG    1      -18.429  82.281  13.713  0.00  0.00    -0.263 NA
ATOM     14  C   LIG    1      -19.584  82.064  14.408  0.00  0.00    +0.121 A 
ATOM     15  C   LIG    1      -20.582  83.053  14.493  0.00  0.00    +0.029 A 
ATOM     16  C   LIG    1      -21.884  83.147  15.128  0.00  0.00    +0.049 A 
ATOM     17  C   LIG    1      -22.387  84.388  14.754  0.00  0.00    +0.099 A 
BRANCH   9  19
ATOM     18  C   LIG    1      -22.364  86.333  12.049  0.00  0.00    +0.030 C 
ATOM     19  C   LIG    1      -21.676  86.382  13.416  0.00  0.00    +0.081 C 
ATOM     20  C   LIG    1      -22.399  87.311  14.396  0.00  0.00    +0.030 C 
ENDBRANCH   9  19
ENDBRANCH   7  16
ENDBRANCH   1   7
BRANCH   3  21
ATOM     21  N   LIG    1      -23.916  77.423  15.581  0.00  0.00    -0.216 NA
ATOM     22  C   LIG    1      -23.177  76.649  14.849  0.00  0.00    +0.193 C 
BRANCH  22  23
ATOM     23  O   LIG    1      -22.548  77.096  13.743  0.00  0.00    -0.495 OA
ATOM     24  H   LIG    1      -21.664  77.469  13.950  0.00  0.00    +0.293 HD
ENDBRANCH  22  23
BRANCH  22  25
ATOM     25  C   LIG    1      -22.952  75.182  15.190  0.00  0.00    +0.150 C 
BRANCH  25  26
ATOM     26  C   LIG    1      -21.633  74.943  15.892  0.00  0.00    +0.050 A 
ATOM     27  N   LIG    1      -20.617  75.789  15.554  0.00  0.00    -0.258 NA
ATOM     28  C   LIG    1      -19.403  75.577  16.124  0.00  0.00    +0.131 A 
ATOM     29  C   LIG    1      -19.145  74.547  17.009  0.00  0.00    +0.059 A 
ATOM     30 CL   LIG    1      -17.579  74.329  17.674  0.00  0.00    -0.082 Cl
ATOM     31  C   LIG    1      -20.186  73.688  17.339  0.00  0.00    +0.023 A 
ATOM     32  C   LIG    1      -21.450  73.885  16.776  0.00  0.00    +0.025 A 
ENDBRANCH  25  26
ENDBRANCH  22  25
ENDBRANCH   3  21
TORSDOF 7
ENDMDL
MODEL 4
REMARK VINA RESULT:      -5.4     18.507     21.542
REMARK  Name = pdb/CHEMBL3930913.pdb
REMARK                            x       y       z     vdW  Elec       q    Type
REMARK                         _______ _______ _______ _____ _____    ______ ____
ROOT
ATOM      1  C   LIG    1      -39.941  70.534  23.376  0.00  0.00    +0.042 A 
ATOM      2  C   LIG    1      -38.600  70.096  23.350  0.00  0.00    +0.042 A 
ATOM      3  C   LIG    1      -38.119  69.266  22.321  0.00  0.00    +0.086 A 
ATOM      4  C   LIG    1      -39.046  68.919  21.335  0.00  0.00    +0.138 A 
ATOM      5  N   LIG    1      -40.350  69.307  21.322  0.00  0.00    -0.260 NA
ATOM      6  C   LIG    1      -40.757  70.114  22.333  0.00  0.00    +0.122 A 
ENDROOT
BRANCH   1   7
ATOM      7  C   LIG    1      -40.458  71.482  24.418  0.00  0.00    +0.197 C 
ATOM      8  O   LIG    1      -40.789  71.014  25.517  0.00  0.00    -0.287 OA
BRANCH   7  16
ATOM      9  N   LIG    1      -41.498  74.904  23.550  0.00  0.00    -0.343 N 
ATOM     10  C   LIG    1      -40.245  75.211  24.035  0.00  0.00    +0.053 A 
ATOM     11  C   LIG    1      -39.594  76.444  24.181  0.00  0.00    +0.046 A 
ATOM     12  C   LIG    1      -38.306  76.401  24.670  0.00  0.00    +0.113 A 
ATOM     13  N   LIG    1      -37.661  75.267  24.993  0.00  0.00    -0.263 NA
ATOM     14  C   LIG    1      -38.304  74.070  24.862  0.00  0.00    +0.121 A 
ATOM     15  C   LIG    1      -39.628  74.001  24.391  0.00  0.00    +0.029 A 
ATOM     16  C   LIG    1      -40.575  72.929  24.140  0.00  0.00    +0.049 A 
ATOM     17  C   LIG    1      -41.698  73.548  23.603  0.00  0.00    +0.099 A 
BRANCH   9  19
ATOM     18  C   LIG    1      -43.526  75.185  22.139  0.00  0.00    +0.030 C 
ATOM     19  C   LIG    1      -42.486  75.858  23.039  0.00  0.00    +0.081 C 
ATOM     20  C   LIG    1      -43.132  76.674  24.162  0.00  0.00    +0.030 C 
ENDBRANCH   9  19
ENDBRANCH   7  16
ENDBRANCH   1   7
BRANCH   3  21
ATOM     21  N   LIG    1      -36.749  68.899  22.332  0.00  0.00    -0.216 NA
ATOM     22  C   LIG    1      -36.352  67.757  22.801  0.00  0.00    +0.193 C 
BRANCH  22  23
ATOM     23  O   LIG    1      -37.219  66.834  23.265  0.00  0.00    -0.495 OA
ATOM     24  H   LIG    1      -38.109  66.935  22.867  0.00  0.00    +0.293 HD
ENDBRANCH  22  23
BRANCH  22  25
ATOM     25  C   LIG    1      -34.881  67.367  22.851  0.00  0.00    +0.150 C 
BRANCH  25  26
ATOM     26  C   LIG    1      -34.510  66.357  21.788  0.00  0.00    +0.050 A 
ATOM     27  N   LIG    1      -35.161  65.159  21.852  0.00  0.00    -0.258 NA
ATOM     28  C   LIG    1      -34.821  64.208  20.945  0.00  0.00    +0.131 A 
ATOM     29  C   LIG    1      -33.845  64.384  19.982  0.00  0.00    +0.059 A 
ATOM     30 CL   LIG    1      -33.454  63.127  18.883  0.00  0.00    -0.082 Cl
ATOM     31  C   LIG    1      -33.185  65.606  19.933  0.00  0.00    +0.023 A 
ATOM     32  C   LIG    1      -33.518  66.610  20.847  0.00  0.00    +0.025 A 
ENDBRANCH  25  26
ENDBRANCH  22  25
ENDBRANCH   3  21
TORSDOF 7
ENDMDL
MODEL 5
REMARK VINA RESULT:      -5.4     18.386     21.525
REMARK  Name = pdb/CHEMBL3930913.pdb
REMARK                            x       y       z     vdW  Elec       q    Type
REMARK                         _______ _______ _______ _____ _____    ______ ____
ROOT
ATOM      1  C   LIG    1      -39.777  70.527  23.445  0.00  0.00    +0.042 A 
ATOM      2  C   LIG    1      -38.450  70.050  23.398  0.00  0.00    +0.042 A 
ATOM      3  C   LIG    1      -37.989  69.267  22.325  0.00  0.00    +0.086 A 
ATOM      4  C   LIG    1      -38.921  69.006  21.316  0.00  0.00    +0.138 A 
ATOM      5  N   LIG    1      -40.212  69.434  21.322  0.00  0.00    -0.260 NA
ATOM      6  C   LIG    1      -40.600  70.193  22.377  0.00  0.00    +0.122 A 
ENDROOT
BRANCH   1   7
ATOM      7  C   LIG    1      -40.270  71.429  24.539  0.00  0.00    +0.197 C 
ATOM      8  O   LIG    1      -40.604  70.910  25.614  0.00  0.00    -0.287 OA
BRANCH   7  16
ATOM      9  N   LIG    1      -39.759  75.066  24.309  0.00  0.00    -0.343 N 
ATOM     10  C   LIG    1      -40.978  75.012  23.669  0.00  0.00    +0.053 A 
ATOM     11  C   LIG    1      -41.754  76.023  23.086  0.00  0.00    +0.046 A 
ATOM     12  C   LIG    1      -42.965  75.635  22.555  0.00  0.00    +0.113 A 
ATOM     13  N   LIG    1      -43.427  74.372  22.578  0.00  0.00    -0.263 NA
ATOM     14  C   LIG    1      -42.661  73.389  23.134  0.00  0.00    +0.121 A 
ATOM     15  C   LIG    1      -41.398  73.672  23.688  0.00  0.00    +0.029 A 
ATOM     16  C   LIG    1      -40.362  72.890  24.337  0.00  0.00    +0.049 A 
ATOM     17  C   LIG    1      -39.390  73.809  24.716  0.00  0.00    +0.099 A 
BRANCH   9  19
ATOM     18  C   LIG    1      -39.545  77.147  25.655  0.00  0.00    +0.030 C 
ATOM     19  C   LIG    1      -38.957  76.270  24.545  0.00  0.00    +0.081 C 
ATOM     20  C   LIG    1      -37.482  75.941  24.786  0.00  0.00    +0.030 C 
ENDBRANCH   9  19
ENDBRANCH   7  16
ENDBRANCH   1   7
BRANCH   3  21
ATOM     21  N   LIG    1      -36.631  68.858  22.319  0.00  0.00    -0.216 NA
ATOM     22  C   LIG    1      -36.259  67.719  22.815  0.00  0.00    +0.193 C 
BRANCH  22  23
ATOM     23  O   LIG    1      -37.143  66.837  23.326  0.00  0.00    -0.495 OA
ATOM     24  H   LIG    1      -37.578  67.182  24.134  0.00  0.00    +0.293 HD
ENDBRANCH  22  23
BRANCH  22  25
ATOM     25  C   LIG    1      -34.800  67.285  22.847  0.00  0.00    +0.150 C 
BRANCH  25  26
ATOM     26  C   LIG    1      -34.466  66.285  21.763  0.00  0.00    +0.050 A 
ATOM     27  N   LIG    1      -35.130  65.094  21.827  0.00  0.00    -0.258 NA
ATOM     28  C   LIG    1      -34.823  64.150  20.901  0.00  0.00    +0.131 A 
ATOM     29  C   LIG    1      -33.868  64.327  19.917  0.00  0.00    +0.059 A 
ATOM     30 CL   LIG    1      -33.518  63.079  18.794  0.00  0.00    -0.082 Cl
ATOM     31  C   LIG    1      -33.193  65.541  19.869  0.00  0.00    +0.023 A 
ATOM     32  C   LIG    1      -33.492  66.537  20.802  0.00  0.00    +0.025 A 
ENDBRANCH  25  26
ENDBRANCH  22  25
ENDBRANCH   3  21
TORSDOF 7
ENDMDL
MODEL 6
REMARK VINA RESULT:      -5.3     20.802     23.255
REMARK  Name = pdb/CHEMBL3930913.pdb
REMARK                            x       y       z     vdW  Elec       q    Type
REMARK                         _______ _______ _______ _____ _____    ______ ____
ROOT
ATOM      1  C   LIG    1      -22.542  87.950  12.457  0.00  0.00    +0.042 A 
ATOM      2  C   LIG    1      -22.902  87.006  13.443  0.00  0.00    +0.042 A 
ATOM      3  C   LIG    1      -22.022  86.662  14.486  0.00  0.00    +0.086 A 
ATOM      4  C   LIG    1      -20.789  87.320  14.484  0.00  0.00    +0.138 A 
ATOM      5  N   LIG    1      -20.393  88.228  13.551  0.00  0.00    -0.260 NA
ATOM      6  C   LIG    1      -21.285  88.528  12.574  0.00  0.00    +0.122 A 
ENDROOT
BRANCH   1   7
ATOM      7  C   LIG    1      -23.492  88.391  11.382  0.00  0.00    +0.197 C 
ATOM      8  O   LIG    1      -23.864  87.548  10.553  0.00  0.00    -0.287 OA
BRANCH   7  16
ATOM      9  N   LIG    1      -25.217  91.626  11.701  0.00  0.00    -0.343 N 
ATOM     10  C   LIG    1      -24.134  92.068  10.973  0.00  0.00    +0.053 A 
ATOM     11  C   LIG    1      -23.788  93.352  10.530  0.00  0.00    +0.046 A 
ATOM     12  C   LIG    1      -22.638  93.449   9.777  0.00  0.00    +0.113 A 
ATOM     13  N   LIG    1      -21.862  92.401   9.449  0.00  0.00    -0.263 NA
ATOM     14  C   LIG    1      -22.195  91.155   9.895  0.00  0.00    +0.121 A 
ATOM     15  C   LIG    1      -23.339  90.946  10.689  0.00  0.00    +0.029 A 
ATOM     16  C   LIG    1      -23.962  89.791  11.309  0.00  0.00    +0.049 A 
ATOM     17  C   LIG    1      -25.125  90.271  11.898  0.00  0.00    +0.099 A 
BRANCH   9  19
ATOM     18  C   LIG    1      -27.589  92.287  11.352  0.00  0.00    +0.030 C 
ATOM     19  C   LIG    1      -26.322  92.452  12.196  0.00  0.00    +0.081 C 
ATOM     20  C   LIG    1      -26.586  92.226  13.688  0.00  0.00    +0.030 C 
ENDBRANCH   9  19
ENDBRANCH   7  16
ENDBRANCH   1   7
BRANCH   3  21
ATOM     21  N   LIG    1      -22.464  85.739  15.467  0.00  0.00    -0.216 NA
ATOM     22  C   LIG    1      -22.374  84.458  15.289  0.00  0.00    +0.193 C 
BRANCH  22  23
ATOM     23  O   LIG    1      -21.815  83.927  14.182  0.00  0.00    -0.495 OA
ATOM     24  H   LIG    1      -21.515  83.005  14.330  0.00  0.00    +0.293 HD
ENDBRANCH  22  23
BRANCH  22  25
ATOM     25  C   LIG    1      -22.877  83.457  16.320  0.00  0.00    +0.150 C 
BRANCH  25  26
ATOM     26  C   LIG    1      -22.259  82.087  16.153  0.00  0.00    +0.050 A 
ATOM     27  N   LIG    1      -20.896  82.053  16.085  0.00  0.00    -0.258 NA
ATOM     28  C   LIG    1      -20.304  80.848  15.885  0.00  0.00    +0.131 A 
ATOM     29  C   LIG    1      -21.007  79.668  15.731  0.00  0.00    +0.059 A 
ATOM     30 CL   LIG    1      -20.190  78.184  15.459  0.00  0.00    -0.082 Cl
ATOM     31  C   LIG    1      -22.394  79.718  15.794  0.00  0.00    +0.023 A 
ATOM     32  C   LIG    1      -23.034  80.941  16.007  0.00  0.00    +0.025 A 
ENDBRANCH  25  26
ENDBRANCH  22  25
ENDBRANCH   3  21
TORSDOF 7
ENDMDL
MODEL 7
REMARK VINA RESULT:      -5.3     12.135     14.012
REMARK  Name = pdb/CHEMBL3930913.pdb
REMARK                            x       y       z     vdW  Elec       q    Type
REMARK                         _______ _______ _______ _____ _____    ______ ____
ROOT
ATOM      1  C   LIG    1      -35.386  81.806  28.950  0.00  0.00    +0.042 A 
ATOM      2  C   LIG    1      -35.228  83.191  29.169  0.00  0.00    +0.042 A 
ATOM      3  C   LIG    1      -35.788  84.141  28.295  0.00  0.00    +0.086 A 
ATOM      4  C   LIG    1      -36.510  83.625  27.216  0.00  0.00    +0.138 A 
ATOM      5  N   LIG    1      -36.682  82.300  26.958  0.00  0.00    -0.260 NA
ATOM      6  C   LIG    1      -36.128  81.429  27.839  0.00  0.00    +0.122 A 
ENDROOT
BRANCH   1   7
ATOM      7  C   LIG    1      -34.867  80.776  29.910  0.00  0.00    +0.197 C 
ATOM      8  O   LIG    1      -34.690  81.117  31.089  0.00  0.00    -0.287 OA
BRANCH   7  16
ATOM      9  N   LIG    1      -34.657  77.147  29.335  0.00  0.00    -0.343 N 
ATOM     10  C   LIG    1      -33.865  77.546  28.280  0.00  0.00    +0.053 A 
ATOM     11  C   LIG    1      -33.218  76.799  27.285  0.00  0.00    +0.046 A 
ATOM     12  C   LIG    1      -32.458  77.513  26.384  0.00  0.00    +0.113 A 
ATOM     13  N   LIG    1      -32.304  78.848  26.419  0.00  0.00    -0.263 NA
ATOM     14  C   LIG    1      -32.948  79.571  27.381  0.00  0.00    +0.121 A 
ATOM     15  C   LIG    1      -33.766  78.945  28.340  0.00  0.00    +0.029 A 
ATOM     16  C   LIG    1      -34.567  79.400  29.462  0.00  0.00    +0.049 A 
ATOM     17  C   LIG    1      -35.072  78.245  30.047  0.00  0.00    +0.099 A 
BRANCH   9  19
ATOM     18  C   LIG    1      -35.005  75.528  31.191  0.00  0.00    +0.030 C 
ATOM     19  C   LIG    1      -35.013  75.767  29.678  0.00  0.00    +0.081 C 
ATOM     20  C   LIG    1      -36.330  75.335  29.029  0.00  0.00    +0.030 C 
ENDBRANCH   9  19
ENDBRANCH   7  16
ENDBRANCH   1   7
BRANCH   3  21
ATOM     21  N   LIG    1      -35.628  85.517  28.599  0.00  0.00    -0.216 NA
ATOM     22  C   LIG    1      -34.712  86.240  28.031  0.00  0.00    +0.193 C 
BRANCH  22  23
ATOM     23  O   LIG    1      -33.887  85.738  27.088  0.00  0.00    -0.495 OA
ATOM     24  H   LIG    1      -33.435  86.447  26.583  0.00  0.00    +0.293 HD
ENDBRANCH  22  23
BRANCH  22  25
ATOM     25  C   LIG    1      -34.508  87.709  28.375  0.00  0.00    +0.150 C 
BRANCH  25  26
ATOM     26  C   LIG    1      -33.278  87.942  29.224  0.00  0.00    +0.050 A 
ATOM     27  N   LIG    1      -32.620  86.821  29.640  0.00  0.00    -0.258 NA
ATOM     28  C   LIG    1      -31.540  86.986  30.446  0.00  0.00    +0.131 A 
ATOM     29  C   LIG    1      -31.088  88.220  30.875  0.00  0.00    +0.059 A 
ATOM     30 CL   LIG    1      -29.728  88.349  31.911  0.00  0.00    -0.082 Cl
ATOM     31  C   LIG    1      -31.773  89.353  30.451  0.00  0.00    +0.023 A 
ATOM     32  C   LIG    1      -32.883  89.218  29.614  0.00  0.00    +0.025 A 
ENDBRANCH  25  26
ENDBRANCH  22  25
ENDBRANCH   3  21
TORSDOF 7
ENDMDL
MODEL 8
REMARK VINA RESULT:      -5.3      2.147      6.608
REMARK  Name = pdb/CHEMBL3930913.pdb
REMARK                            x       y       z     vdW  Elec       q    Type
REMARK                         _______ _______ _______ _____ _____    ______ ____
ROOT
ATOM      1  C   LIG    1      -18.699  78.661  33.990  0.00  0.00    +0.042 A 
ATOM      2  C   LIG    1      -19.574  77.907  33.179  0.00  0.00    +0.042 A 
ATOM      3  C   LIG    1      -19.147  77.347  31.962  0.00  0.00    +0.086 A 
ATOM      4  C   LIG    1      -17.811  77.576  31.621  0.00  0.00    +0.138 A 
ATOM      5  N   LIG    1      -16.933  78.303  32.363  0.00  0.00    -0.260 NA
ATOM      6  C   LIG    1      -17.396  78.813  33.532  0.00  0.00    +0.122 A 
ENDROOT
BRANCH   1   7
ATOM      7  C   LIG    1      -19.108  79.202  35.329  0.00  0.00    +0.197 C 
ATOM      8  O   LIG    1      -18.255  79.234  36.228  0.00  0.00    -0.287 OA
BRANCH   7  16
ATOM      9  N   LIG    1      -22.744  79.664  35.658  0.00  0.00    -0.343 N 
ATOM     10  C   LIG    1      -22.354  80.823  36.293  0.00  0.00    +0.053 A 
ATOM     11  C   LIG    1      -23.110  81.835  36.902  0.00  0.00    +0.046 A 
ATOM     12  C   LIG    1      -22.402  82.898  37.420  0.00  0.00    +0.113 A 
ATOM     13  N   LIG    1      -21.064  83.012  37.361  0.00  0.00    -0.263 NA
ATOM     14  C   LIG    1      -20.332  82.017  36.780  0.00  0.00    +0.121 A 
ATOM     15  C   LIG    1      -20.952  80.876  36.237  0.00  0.00    +0.029 A 
ATOM     16  C   LIG    1      -20.488  79.674  35.570  0.00  0.00    +0.049 A 
ATOM     17  C   LIG    1      -21.639  78.979  35.219  0.00  0.00    +0.099 A 
BRANCH   9  19
ATOM     18  C   LIG    1      -24.388  78.794  34.007  0.00  0.00    +0.030 C 
ATOM     19  C   LIG    1      -24.123  79.208  35.458  0.00  0.00    +0.081 C 
ATOM     20  C   LIG    1      -24.519  78.116  36.455  0.00  0.00    +0.030 C 
ENDBRANCH   9  19
ENDBRANCH   7  16
ENDBRANCH   1   7
BRANCH   3  21
ATOM     21  N   LIG    1      -20.066  76.563  31.218  0.00  0.00    -0.216 NA
ATOM     22  C   LIG    1      -20.794  77.077  30.275  0.00  0.00    +0.193 C 
BRANCH  22  23
ATOM     23  O   LIG    1      -20.691  78.374  29.917  0.00  0.00    -0.495 OA
ATOM     24  H   LIG    1      -20.954  78.976  30.645  0.00  0.00    +0.293 HD
ENDBRANCH  22  23
BRANCH  22  25
ATOM     25  C   LIG    1      -21.809  76.254  29.494  0.00  0.00    +0.150 C 
BRANCH  25  26
ATOM     26  C   LIG    1      -23.196  76.316  30.096  0.00  0.00    +0.050 A 
ATOM     27  N   LIG    1      -23.831  77.521  30.004  0.00  0.00    -0.258 NA
ATOM     28  C   LIG    1      -25.057  77.633  30.575  0.00  0.00    +0.131 A 
ATOM     29  C   LIG    1      -25.681  76.602  31.253  0.00  0.00    +0.059 A 
ATOM     30 CL   LIG    1      -27.224  76.825  31.968  0.00  0.00    -0.082 Cl
ATOM     31  C   LIG    1      -25.020  75.383  31.346  0.00  0.00    +0.023 A 
ATOM     32  C   LIG    1      -23.760  75.233  30.761  0.00  0.00    +0.025 A 
ENDBRANCH  25  26
ENDBRANCH  22  25
ENDBRANCH   3  21
TORSDOF 7
ENDMDL
MODEL 9
REMARK VINA RESULT:      -5.3     11.987     15.910
REMARK  Name = pdb/CHEMBL3930913.pdb
REMARK                            x       y       z     vdW  Elec       q    Type
REMARK                         _______ _______ _______ _____ _____    ______ ____
ROOT
ATOM      1  C   LIG    1      -33.555  73.298  29.043  0.00  0.00    +0.042 A 
ATOM      2  C   LIG    1      -34.320  73.018  27.890  0.00  0.00    +0.042 A 
ATOM      3  C   LIG    1      -35.204  71.925  27.844  0.00  0.00    +0.086 A 
ATOM      4  C   LIG    1      -35.280  71.154  29.007  0.00  0.00    +0.138 A 
ATOM      5  N   LIG    1      -34.557  71.378  30.138  0.00  0.00    -0.260 NA
ATOM      6  C   LIG    1      -33.727  72.450  30.129  0.00  0.00    +0.122 A 
ENDROOT
BRANCH   1   7
ATOM      7  C   LIG    1      -32.665  74.503  29.144  0.00  0.00    +0.197 C 
ATOM      8  O   LIG    1      -31.456  74.316  29.342  0.00  0.00    -0.287 OA
BRANCH   7  16
ATOM      9  N   LIG    1      -34.381  77.736  29.523  0.00  0.00    -0.343 N 
ATOM     10  C   LIG    1      -33.622  78.060  28.419  0.00  0.00    +0.053 A 
ATOM     11  C   LIG    1      -33.517  79.257  27.697  0.00  0.00    +0.046 A 
ATOM     12  C   LIG    1      -32.683  79.237  26.600  0.00  0.00    +0.113 A 
ATOM     13  N   LIG    1      -31.995  78.155  26.196  0.00  0.00    -0.263 NA
ATOM     14  C   LIG    1      -32.091  76.996  26.911  0.00  0.00    +0.121 A 
ATOM     15  C   LIG    1      -32.898  76.911  28.060  0.00  0.00    +0.029 A 
ATOM     16  C   LIG    1      -33.215  75.869  29.019  0.00  0.00    +0.049 A 
ATOM     17  C   LIG    1      -34.150  76.432  29.881  0.00  0.00    +0.099 A 
BRANCH   9  19
ATOM     18  C   LIG    1      -36.698  77.996  30.388  0.00  0.00    +0.030 C 
ATOM     19  C   LIG    1      -35.311  78.625  30.225  0.00  0.00    +0.081 C 
ATOM     20  C   LIG    1      -34.739  79.121  31.556  0.00  0.00    +0.030 C 
ENDBRANCH   9  19
ENDBRANCH   7  16
ENDBRANCH   1   7
BRANCH   3  21
ATOM     21  N   LIG    1      -35.974  71.726  26.670  0.00  0.00    -0.216 NA
ATOM     22  C   LIG    1      -37.175  72.202  26.553  0.00  0.00    +0.193 C 
BRANCH  22  23
ATOM     23  O   LIG    1      -37.747  72.949  27.520  0.00  0.00    -0.495 OA
ATOM     24  H   LIG    1      -37.514  73.898  27.435  0.00  0.00    +0.293 HD
ENDBRANCH  22  23
BRANCH  22  25
ATOM     25  C   LIG    1      -38.025  71.965  25.312  0.00  0.00    +0.150 C 
BRANCH  25  26
ATOM     26  C   LIG    1      -38.708  73.223  24.825  0.00  0.00    +0.050 A 
ATOM     27  N   LIG    1      -38.043  74.391  25.061  0.00  0.00    -0.258 NA
ATOM     28  C   LIG    1      -38.645  75.548  24.684  0.00  0.00    +0.131 A 
ATOM     29  C   LIG    1      -39.894  75.602  24.093  0.00  0.00    +0.059 A 
ATOM     30 CL   LIG    1      -40.601  77.104  23.663  0.00  0.00    -0.082 Cl
ATOM     31  C   LIG    1      -40.564  74.406  23.866  0.00  0.00    +0.023 A 
ATOM     32  C   LIG    1      -39.967  73.197  24.235  0.00  0.00    +0.025 A 
ENDBRANCH  25  26
ENDBRANCH  22  25
ENDBRANCH   3  21
TORSDOF 7
ENDMDL
