MODEL 1
REMARK VINA RESULT:      -6.8      0.000      0.000
REMARK  Name = pdb/CHEMBL3923976.pdb
REMARK                            x       y       z     vdW  Elec       q    Type
REMARK                         _______ _______ _______ _____ _____    ______ ____
ROOT
ATOM      1  C   LIG    1      -34.210  76.520  27.522  0.00  0.00    +0.131 A 
ATOM      2  C   LIG    1      -35.509  76.130  27.238  0.00  0.00    +0.183 A 
ATOM      3  N   LIG    1      -36.344  76.371  26.181  0.00  0.00    -0.211 NA
ATOM      4  C   LIG    1      -37.598  75.958  26.259  0.00  0.00    +0.126 A 
ATOM      5  C   LIG    1      -38.095  75.196  27.468  0.00  0.00    +0.063 A 
ATOM      6  C   LIG    1      -37.230  74.965  28.453  0.00  0.00    +0.118 A 
ATOM      7  N   LIG    1      -35.922  75.422  28.368  0.00  0.00    -0.220 N 
ATOM      8  N   LIG    1      -34.938  75.272  29.283  0.00  0.00    -0.171 NA
ATOM      9  C   LIG    1      -33.890  75.891  28.735  0.00  0.00    +0.165 A 
ENDROOT
BRANCH   4  10
ATOM     10  N   LIG    1      -38.468  76.225  25.206  0.00  0.00    -0.308 N 
ATOM     11  C   LIG    1      -39.931  76.062  25.296  0.00  0.00    +0.105 C 
ATOM     12  C   LIG    1      -40.430  77.397  24.716  0.00  0.00    +0.029 C 
ATOM     13  C   LIG    1      -39.467  77.650  23.572  0.00  0.00    +0.021 C 
ATOM     14  C   LIG    1      -38.133  77.205  24.161  0.00  0.00    +0.107 C 
BRANCH  11  15
ATOM     15  C   LIG    1      -40.403  74.819  24.543  0.00  0.00    -0.024 A 
ATOM     16  C   LIG    1      -39.652  73.630  24.536  0.00  0.00    +0.043 A 
ATOM     17  C   LIG    1      -40.091  72.512  23.831  0.00  0.00    +0.124 A 
ATOM     18  F   LIG    1      -39.346  71.399  23.828  0.00  0.00    -0.205 F 
ATOM     19  C   LIG    1      -41.282  72.537  23.119  0.00  0.00    +0.038 A 
ATOM     20  C   LIG    1      -42.057  73.689  23.137  0.00  0.00    +0.003 A 
ATOM     21  C   LIG    1      -41.632  74.809  23.860  0.00  0.00    +0.005 A 
ENDBRANCH  11  15
ENDBRANCH   4  10
BRANCH   1  23
ATOM     22  C   LIG    1      -33.305  78.544  26.820  0.00  0.00    +0.241 C 
ATOM     23  N   LIG    1      -33.299  77.248  26.759  0.00  0.00    -0.206 NA
BRANCH  22  28
ATOM     24  C   LIG    1      -35.962  82.337  30.109  0.00  0.00    +0.067 C 
ATOM     25  C   LIG    1      -35.244  81.357  29.239  0.00  0.00    +0.056 A 
ATOM     26  N   LIG    1      -34.612  80.338  29.867  0.00  0.00    -0.256 NA
ATOM     27  C   LIG    1      -33.981  79.445  29.063  0.00  0.00    +0.144 A 
ATOM     28  C   LIG    1      -34.002  79.534  27.683  0.00  0.00    +0.143 A 
ATOM     29  N   LIG    1      -34.578  80.595  27.037  0.00  0.00    -0.247 NA
ATOM     30  C   LIG    1      -35.220  81.477  27.850  0.00  0.00    +0.134 A 
ENDBRANCH  22  28
BRANCH  22  31
ATOM     31  O   LIG    1      -32.486  79.209  25.958  0.00  0.00    -0.491 OA
ATOM     32  H   LIG    1      -32.494  78.782  25.079  0.00  0.00    +0.294 HD
ENDBRANCH  22  31
ENDBRANCH   1  23
TORSDOF 5
ENDMDL
MODEL 2
REMARK VINA RESULT:      -6.7      2.547      3.832
REMARK  Name = pdb/CHEMBL3923976.pdb
REMARK                            x       y       z     vdW  Elec       q    Type
REMARK                         _______ _______ _______ _____ _____    ______ ____
ROOT
ATOM      1  C   LIG    1      -33.403  78.580  27.531  0.00  0.00    +0.131 A 
ATOM      2  C   LIG    1      -34.137  77.407  27.457  0.00  0.00    +0.183 A 
ATOM      3  N   LIG    1      -35.375  77.114  26.952  0.00  0.00    -0.211 NA
ATOM      4  C   LIG    1      -35.867  75.902  27.147  0.00  0.00    +0.126 A 
ATOM      5  C   LIG    1      -35.067  74.843  27.874  0.00  0.00    +0.063 A 
ATOM      6  C   LIG    1      -33.858  75.176  28.318  0.00  0.00    +0.118 A 
ATOM      7  N   LIG    1      -33.361  76.458  28.124  0.00  0.00    -0.220 N 
ATOM      8  N   LIG    1      -32.162  76.944  28.520  0.00  0.00    -0.171 NA
ATOM      9  C   LIG    1      -32.175  78.213  28.105  0.00  0.00    +0.165 A 
ENDROOT
BRANCH   4  10
ATOM     10  N   LIG    1      -37.139  75.599  26.669  0.00  0.00    -0.308 N 
ATOM     11  C   LIG    1      -37.530  75.732  25.254  0.00  0.00    +0.105 C 
ATOM     12  C   LIG    1      -38.211  74.377  24.989  0.00  0.00    +0.029 C 
ATOM     13  C   LIG    1      -38.976  74.127  26.274  0.00  0.00    +0.021 C 
ATOM     14  C   LIG    1      -37.996  74.609  27.339  0.00  0.00    +0.107 C 
BRANCH  11  15
ATOM     15  C   LIG    1      -38.422  76.952  25.033  0.00  0.00    -0.024 A 
ATOM     16  C   LIG    1      -38.553  77.959  26.007  0.00  0.00    +0.043 A 
ATOM     17  C   LIG    1      -39.384  79.056  25.793  0.00  0.00    +0.124 A 
ATOM     18  F   LIG    1      -39.501  79.990  26.745  0.00  0.00    -0.205 F 
ATOM     19  C   LIG    1      -40.103  79.190  24.614  0.00  0.00    +0.038 A 
ATOM     20  C   LIG    1      -39.967  78.226  23.624  0.00  0.00    +0.003 A 
ATOM     21  C   LIG    1      -39.119  77.132  23.823  0.00  0.00    +0.005 A 
ENDBRANCH  11  15
ENDBRANCH   4  10
BRANCH   1  23
ATOM     22  C   LIG    1      -34.551  80.598  27.642  0.00  0.00    +0.241 C 
ATOM     23  N   LIG    1      -33.680  79.852  27.035  0.00  0.00    -0.206 NA
BRANCH  22  28
ATOM     24  C   LIG    1      -37.352  80.173  32.565  0.00  0.00    +0.067 C 
ATOM     25  C   LIG    1      -36.599  80.264  31.277  0.00  0.00    +0.056 A 
ATOM     26  N   LIG    1      -37.252  79.855  30.163  0.00  0.00    -0.256 NA
ATOM     27  C   LIG    1      -36.564  79.962  28.999  0.00  0.00    +0.144 A 
ATOM     28  C   LIG    1      -35.287  80.489  28.929  0.00  0.00    +0.143 A 
ATOM     29  N   LIG    1      -34.590  80.842  30.053  0.00  0.00    -0.247 NA
ATOM     30  C   LIG    1      -35.292  80.745  31.213  0.00  0.00    +0.134 A 
ENDBRANCH  22  28
BRANCH  22  31
ATOM     31  O   LIG    1      -34.881  81.777  27.043  0.00  0.00    -0.491 OA
ATOM     32  H   LIG    1      -34.622  81.767  26.100  0.00  0.00    +0.294 HD
ENDBRANCH  22  31
ENDBRANCH   1  23
TORSDOF 5
ENDMDL
MODEL 3
REMARK VINA RESULT:      -6.6     13.794     18.007
REMARK  Name = pdb/CHEMBL3923976.pdb
REMARK                            x       y       z     vdW  Elec       q    Type
REMARK                         _______ _______ _______ _____ _____    ______ ____
ROOT
ATOM      1  C   LIG    1      -23.281  75.708  30.824  0.00  0.00    +0.131 A 
ATOM      2  C   LIG    1      -22.170  75.764  31.650  0.00  0.00    +0.183 A 
ATOM      3  N   LIG    1      -21.315  76.776  31.996  0.00  0.00    -0.211 NA
ATOM      4  C   LIG    1      -20.249  76.483  32.720  0.00  0.00    +0.126 A 
ATOM      5  C   LIG    1      -19.994  75.070  33.198  0.00  0.00    +0.063 A 
ATOM      6  C   LIG    1      -20.874  74.132  32.856  0.00  0.00    +0.118 A 
ATOM      7  N   LIG    1      -21.978  74.449  32.077  0.00  0.00    -0.220 N 
ATOM      8  N   LIG    1      -22.949  73.610  31.647  0.00  0.00    -0.171 NA
ATOM      9  C   LIG    1      -23.762  74.395  30.937  0.00  0.00    +0.165 A 
ENDROOT
BRANCH   4  10
ATOM     10  N   LIG    1      -19.353  77.495  33.052  0.00  0.00    -0.308 N 
ATOM     11  C   LIG    1      -18.779  77.668  34.399  0.00  0.00    +0.105 C 
ATOM     12  C   LIG    1      -17.282  77.832  34.082  0.00  0.00    +0.029 C 
ATOM     13  C   LIG    1      -17.293  78.681  32.826  0.00  0.00    +0.021 C 
ATOM     14  C   LIG    1      -18.464  78.095  32.044  0.00  0.00    +0.107 C 
BRANCH  11  15
ATOM     15  C   LIG    1      -19.413  78.850  35.130  0.00  0.00    -0.024 A 
ATOM     16  C   LIG    1      -20.600  79.451  34.673  0.00  0.00    +0.043 A 
ATOM     17  C   LIG    1      -21.155  80.538  35.344  0.00  0.00    +0.124 A 
ATOM     18  F   LIG    1      -22.276  81.100  34.875  0.00  0.00    -0.205 F 
ATOM     19  C   LIG    1      -20.556  81.057  36.482  0.00  0.00    +0.038 A 
ATOM     20  C   LIG    1      -19.401  80.462  36.972  0.00  0.00    +0.003 A 
ATOM     21  C   LIG    1      -18.850  79.357  36.315  0.00  0.00    +0.005 A 
ENDBRANCH  11  15
ENDBRANCH   4  10
BRANCH   1  23
ATOM     22  C   LIG    1      -24.720  77.533  30.756  0.00  0.00    +0.241 C 
ATOM     23  N   LIG    1      -23.934  76.719  30.121  0.00  0.00    -0.206 NA
BRANCH  22  28
ATOM     24  C   LIG    1      -25.859  78.457  36.244  0.00  0.00    +0.067 C 
ATOM     25  C   LIG    1      -25.580  78.231  34.793  0.00  0.00    +0.056 A 
ATOM     26  N   LIG    1      -24.454  78.798  34.298  0.00  0.00    -0.256 NA
ATOM     27  C   LIG    1      -24.203  78.567  32.985  0.00  0.00    +0.144 A 
ATOM     28  C   LIG    1      -25.015  77.774  32.194  0.00  0.00    +0.143 A 
ATOM     29  N   LIG    1      -26.190  77.252  32.663  0.00  0.00    -0.247 NA
ATOM     30  C   LIG    1      -26.427  77.476  33.983  0.00  0.00    +0.134 A 
ENDBRANCH  22  28
BRANCH  22  31
ATOM     31  O   LIG    1      -25.434  78.418  30.005  0.00  0.00    -0.491 OA
ATOM     32  H   LIG    1      -26.232  78.711  30.487  0.00  0.00    +0.294 HD
ENDBRANCH  22  31
ENDBRANCH   1  23
TORSDOF 5
ENDMDL
MODEL 4
REMARK VINA RESULT:      -6.6      1.834      3.619
REMARK  Name = pdb/CHEMBL3923976.pdb
REMARK                            x       y       z     vdW  Elec       q    Type
REMARK                         _______ _______ _______ _____ _____    ______ ____
ROOT
ATOM      1  C   LIG    1      -35.284  78.580  28.060  0.00  0.00    +0.131 A 
ATOM      2  C   LIG    1      -36.533  78.073  27.741  0.00  0.00    +0.183 A 
ATOM      3  N   LIG    1      -37.097  77.658  26.565  0.00  0.00    -0.211 NA
ATOM      4  C   LIG    1      -38.380  77.338  26.558  0.00  0.00    +0.126 A 
ATOM      5  C   LIG    1      -39.203  77.385  27.827  0.00  0.00    +0.063 A 
ATOM      6  C   LIG    1      -38.595  77.767  28.946  0.00  0.00    +0.118 A 
ATOM      7  N   LIG    1      -37.252  78.121  28.936  0.00  0.00    -0.220 N 
ATOM      8  N   LIG    1      -36.503  78.533  29.985  0.00  0.00    -0.171 NA
ATOM      9  C   LIG    1      -35.298  78.753  29.453  0.00  0.00    +0.165 A 
ENDROOT
BRANCH   4  10
ATOM     10  N   LIG    1      -38.976  76.947  25.362  0.00  0.00    -0.308 N 
ATOM     11  C   LIG    1      -40.200  76.128  25.292  0.00  0.00    +0.105 C 
ATOM     12  C   LIG    1      -41.049  76.921  24.282  0.00  0.00    +0.029 C 
ATOM     13  C   LIG    1      -40.024  77.373  23.260  0.00  0.00    +0.021 C 
ATOM     14  C   LIG    1      -38.830  77.743  24.133  0.00  0.00    +0.107 C 
BRANCH  11  15
ATOM     15  C   LIG    1      -39.888  74.691  24.878  0.00  0.00    -0.024 A 
ATOM     16  C   LIG    1      -38.648  74.092  25.163  0.00  0.00    +0.043 A 
ATOM     17  C   LIG    1      -38.376  72.785  24.764  0.00  0.00    +0.124 A 
ATOM     18  F   LIG    1      -37.180  72.248  25.034  0.00  0.00    -0.205 F 
ATOM     19  C   LIG    1      -39.321  72.036  24.078  0.00  0.00    +0.038 A 
ATOM     20  C   LIG    1      -40.565  72.594  23.811  0.00  0.00    +0.003 A 
ATOM     21  C   LIG    1      -40.852  73.897  24.228  0.00  0.00    +0.005 A 
ENDBRANCH  11  15
ENDBRANCH   4  10
BRANCH   1  23
ATOM     22  C   LIG    1      -33.186  77.902  27.321  0.00  0.00    +0.241 C 
ATOM     23  N   LIG    1      -34.154  78.765  27.265  0.00  0.00    -0.206 NA
BRANCH  22  28
ATOM     24  C   LIG    1      -32.546  72.825  29.786  0.00  0.00    +0.067 C 
ATOM     25  C   LIG    1      -32.691  74.157  29.124  0.00  0.00    +0.056 A 
ATOM     26  N   LIG    1      -33.647  74.259  28.170  0.00  0.00    -0.256 NA
ATOM     27  C   LIG    1      -33.781  75.479  27.592  0.00  0.00    +0.144 A 
ATOM     28  C   LIG    1      -33.022  76.573  27.967  0.00  0.00    +0.143 A 
ATOM     29  N   LIG    1      -32.007  76.468  28.879  0.00  0.00    -0.247 NA
ATOM     30  C   LIG    1      -31.890  75.246  29.464  0.00  0.00    +0.134 A 
ENDBRANCH  22  28
BRANCH  22  31
ATOM     31  O   LIG    1      -32.053  78.197  26.624  0.00  0.00    -0.491 OA
ATOM     32  H   LIG    1      -31.303  77.658  26.945  0.00  0.00    +0.294 HD
ENDBRANCH  22  31
ENDBRANCH   1  23
TORSDOF 5
ENDMDL
MODEL 5
REMARK VINA RESULT:      -6.5     19.212     22.054
REMARK  Name = pdb/CHEMBL3923976.pdb
REMARK                            x       y       z     vdW  Elec       q    Type
REMARK                         _______ _______ _______ _____ _____    ______ ____
ROOT
ATOM      1  C   LIG    1      -22.874  87.450  13.239  0.00  0.00    +0.131 A 
ATOM      2  C   LIG    1      -23.314  86.298  12.607  0.00  0.00    +0.183 A 
ATOM      3  N   LIG    1      -23.326  84.980  12.975  0.00  0.00    -0.211 NA
ATOM      4  C   LIG    1      -23.703  84.078  12.084  0.00  0.00    +0.126 A 
ATOM      5  C   LIG    1      -24.154  84.490  10.700  0.00  0.00    +0.063 A 
ATOM      6  C   LIG    1      -24.151  85.787  10.408  0.00  0.00    +0.118 A 
ATOM      7  N   LIG    1      -23.733  86.723  11.345  0.00  0.00    -0.220 N 
ATOM      8  N   LIG    1      -23.667  88.065  11.194  0.00  0.00    -0.171 NA
ATOM      9  C   LIG    1      -23.200  88.500  12.366  0.00  0.00    +0.165 A 
ENDROOT
BRANCH   4  10
ATOM     10  N   LIG    1      -23.688  82.730  12.433  0.00  0.00    -0.308 N 
ATOM     11  C   LIG    1      -24.168  82.219  13.730  0.00  0.00    +0.105 C 
ATOM     12  C   LIG    1      -25.073  81.054  13.289  0.00  0.00    +0.029 C 
ATOM     13  C   LIG    1      -24.300  80.442  12.137  0.00  0.00    +0.021 C 
ATOM     14  C   LIG    1      -23.760  81.672  11.414  0.00  0.00    +0.107 C 
BRANCH  11  15
ATOM     15  C   LIG    1      -23.007  81.821  14.639  0.00  0.00    -0.024 A 
ATOM     16  C   LIG    1      -21.680  82.180  14.344  0.00  0.00    +0.043 A 
ATOM     17  C   LIG    1      -20.633  81.795  15.177  0.00  0.00    +0.124 A 
ATOM     18  F   LIG    1      -19.378  82.137  14.861  0.00  0.00    -0.205 F 
ATOM     19  C   LIG    1      -20.868  81.050  16.323  0.00  0.00    +0.038 A 
ATOM     20  C   LIG    1      -22.173  80.709  16.654  0.00  0.00    +0.003 A 
ATOM     21  C   LIG    1      -23.231  81.111  15.833  0.00  0.00    +0.005 A 
ENDBRANCH  11  15
ENDBRANCH   4  10
BRANCH   1  23
ATOM     22  C   LIG    1      -21.146  87.236  14.779  0.00  0.00    +0.241 C 
ATOM     23  N   LIG    1      -22.353  87.635  14.518  0.00  0.00    -0.206 NA
BRANCH  22  28
ATOM     24  C   LIG    1      -16.875  85.261  11.597  0.00  0.00    +0.067 C 
ATOM     25  C   LIG    1      -18.012  85.789  12.412  0.00  0.00    +0.056 A 
ATOM     26  N   LIG    1      -18.837  84.871  12.967  0.00  0.00    -0.256 NA
ATOM     27  C   LIG    1      -19.852  85.364  13.720  0.00  0.00    +0.144 A 
ATOM     28  C   LIG    1      -20.027  86.717  13.949  0.00  0.00    +0.143 A 
ATOM     29  N   LIG    1      -19.242  87.658  13.339  0.00  0.00    -0.247 NA
ATOM     30  C   LIG    1      -18.219  87.155  12.598  0.00  0.00    +0.134 A 
ENDBRANCH  22  28
BRANCH  22  31
ATOM     31  O   LIG    1      -20.733  87.321  16.075  0.00  0.00    -0.491 OA
ATOM     32  H   LIG    1      -21.488  87.205  16.684  0.00  0.00    +0.294 HD
ENDBRANCH  22  31
ENDBRANCH   1  23
TORSDOF 5
ENDMDL
MODEL 6
REMARK VINA RESULT:      -6.4     13.762     18.496
REMARK  Name = pdb/CHEMBL3923976.pdb
REMARK                            x       y       z     vdW  Elec       q    Type
REMARK                         _______ _______ _______ _____ _____    ______ ____
ROOT
ATOM      1  C   LIG    1      -23.021  77.561  30.850  0.00  0.00    +0.131 A 
ATOM      2  C   LIG    1      -21.672  77.527  31.162  0.00  0.00    +0.183 A 
ATOM      3  N   LIG    1      -20.951  77.979  32.235  0.00  0.00    -0.211 NA
ATOM      4  C   LIG    1      -19.632  77.912  32.184  0.00  0.00    +0.126 A 
ATOM      5  C   LIG    1      -18.927  77.310  30.989  0.00  0.00    +0.063 A 
ATOM      6  C   LIG    1      -19.679  76.859  29.988  0.00  0.00    +0.118 A 
ATOM      7  N   LIG    1      -21.062  76.955  30.044  0.00  0.00    -0.220 N 
ATOM      8  N   LIG    1      -21.953  76.550  29.110  0.00  0.00    -0.171 NA
ATOM      9  C   LIG    1      -23.139  76.870  29.634  0.00  0.00    +0.165 A 
ENDROOT
BRANCH   4  10
ATOM     10  N   LIG    1      -18.885  78.399  33.253  0.00  0.00    -0.308 N 
ATOM     11  C   LIG    1      -19.202  78.117  34.665  0.00  0.00    +0.105 C 
ATOM     12  C   LIG    1      -17.830  77.688  35.214  0.00  0.00    +0.029 C 
ATOM     13  C   LIG    1      -16.875  78.639  34.519  0.00  0.00    +0.021 C 
ATOM     14  C   LIG    1      -17.455  78.716  33.110  0.00  0.00    +0.107 C 
BRANCH  11  15
ATOM     15  C   LIG    1      -19.816  79.335  35.354  0.00  0.00    -0.024 A 
ATOM     16  C   LIG    1      -20.942  79.993  34.827  0.00  0.00    +0.043 A 
ATOM     17  C   LIG    1      -21.478  81.111  35.462  0.00  0.00    +0.124 A 
ATOM     18  F   LIG    1      -22.540  81.726  34.927  0.00  0.00    -0.205 F 
ATOM     19  C   LIG    1      -20.921  81.605  36.632  0.00  0.00    +0.038 A 
ATOM     20  C   LIG    1      -19.827  80.955  37.189  0.00  0.00    +0.003 A 
ATOM     21  C   LIG    1      -19.297  79.819  36.569  0.00  0.00    +0.005 A 
ENDBRANCH  11  15
ENDBRANCH   4  10
BRANCH   1  23
ATOM     22  C   LIG    1      -24.930  77.166  32.117  0.00  0.00    +0.241 C 
ATOM     23  N   LIG    1      -24.107  78.021  31.592  0.00  0.00    -0.206 NA
BRANCH  22  28
ATOM     24  C   LIG    1      -24.939  71.513  32.671  0.00  0.00    +0.067 C 
ATOM     25  C   LIG    1      -24.963  73.001  32.533  0.00  0.00    +0.056 A 
ATOM     26  N   LIG    1      -24.307  73.708  33.483  0.00  0.00    -0.256 NA
ATOM     27  C   LIG    1      -24.320  75.057  33.333  0.00  0.00    +0.144 A 
ATOM     28  C   LIG    1      -24.929  75.686  32.262  0.00  0.00    +0.143 A 
ATOM     29  N   LIG    1      -25.653  74.989  31.333  0.00  0.00    -0.247 NA
ATOM     30  C   LIG    1      -25.623  73.638  31.483  0.00  0.00    +0.134 A 
ENDBRANCH  22  28
BRANCH  22  31
ATOM     31  O   LIG    1      -26.045  77.668  32.719  0.00  0.00    -0.491 OA
ATOM     32  H   LIG    1      -26.846  77.430  32.211  0.00  0.00    +0.294 HD
ENDBRANCH  22  31
ENDBRANCH   1  23
TORSDOF 5
ENDMDL
MODEL 7
REMARK VINA RESULT:      -6.3     12.442     16.494
REMARK  Name = pdb/CHEMBL3923976.pdb
REMARK                            x       y       z     vdW  Elec       q    Type
REMARK                         _______ _______ _______ _____ _____    ______ ____
ROOT
ATOM      1  C   LIG    1      -26.633  76.941  32.171  0.00  0.00    +0.131 A 
ATOM      2  C   LIG    1      -26.498  77.131  33.537  0.00  0.00    +0.183 A 
ATOM      3  N   LIG    1      -25.892  78.102  34.287  0.00  0.00    -0.211 NA
ATOM      4  C   LIG    1      -25.820  77.937  35.597  0.00  0.00    +0.126 A 
ATOM      5  C   LIG    1      -26.431  76.725  36.265  0.00  0.00    +0.063 A 
ATOM      6  C   LIG    1      -27.034  75.828  35.489  0.00  0.00    +0.118 A 
ATOM      7  N   LIG    1      -27.084  76.002  34.113  0.00  0.00    -0.220 N 
ATOM      8  N   LIG    1      -27.651  75.181  33.200  0.00  0.00    -0.171 NA
ATOM      9  C   LIG    1      -27.422  75.788  32.033  0.00  0.00    +0.165 A 
ENDROOT
BRANCH   4  10
ATOM     10  N   LIG    1      -25.177  78.900  36.370  0.00  0.00    -0.308 N 
ATOM     11  C   LIG    1      -24.724  80.200  35.841  0.00  0.00    +0.105 C 
ATOM     12  C   LIG    1      -25.272  81.175  36.898  0.00  0.00    +0.029 C 
ATOM     13  C   LIG    1      -25.043  80.429  38.198  0.00  0.00    +0.021 C 
ATOM     14  C   LIG    1      -25.399  78.995  37.821  0.00  0.00    +0.107 C 
BRANCH  11  15
ATOM     15  C   LIG    1      -23.207  80.233  35.663  0.00  0.00    -0.024 A 
ATOM     16  C   LIG    1      -22.460  79.058  35.464  0.00  0.00    +0.043 A 
ATOM     17  C   LIG    1      -21.075  79.107  35.320  0.00  0.00    +0.124 A 
ATOM     18  F   LIG    1      -20.389  77.970  35.149  0.00  0.00    -0.205 F 
ATOM     19  C   LIG    1      -20.394  80.315  35.365  0.00  0.00    +0.038 A 
ATOM     20  C   LIG    1      -21.112  81.492  35.529  0.00  0.00    +0.003 A 
ATOM     21  C   LIG    1      -22.504  81.452  35.653  0.00  0.00    +0.005 A 
ENDBRANCH  11  15
ENDBRANCH   4  10
BRANCH   1  23
ATOM     22  C   LIG    1      -24.988  77.784  30.762  0.00  0.00    +0.241 C 
ATOM     23  N   LIG    1      -26.239  77.746  31.105  0.00  0.00    -0.206 NA
BRANCH  22  28
ATOM     24  C   LIG    1      -20.395  74.810  32.287  0.00  0.00    +0.067 C 
ATOM     25  C   LIG    1      -21.619  75.576  31.901  0.00  0.00    +0.056 A 
ATOM     26  N   LIG    1      -21.781  76.791  32.476  0.00  0.00    -0.256 NA
ATOM     27  C   LIG    1      -22.885  77.483  32.100  0.00  0.00    +0.144 A 
ATOM     28  C   LIG    1      -23.783  77.009  31.160  0.00  0.00    +0.143 A 
ATOM     29  N   LIG    1      -23.670  75.755  30.623  0.00  0.00    -0.247 NA
ATOM     30  C   LIG    1      -22.553  75.074  30.994  0.00  0.00    +0.134 A 
ENDBRANCH  22  28
BRANCH  22  31
ATOM     31  O   LIG    1      -24.636  78.684  29.801  0.00  0.00    -0.491 OA
ATOM     32  H   LIG    1      -25.092  78.483  28.960  0.00  0.00    +0.294 HD
ENDBRANCH  22  31
ENDBRANCH   1  23
TORSDOF 5
ENDMDL
MODEL 8
REMARK VINA RESULT:      -6.3     19.377     22.414
REMARK  Name = pdb/CHEMBL3923976.pdb
REMARK                            x       y       z     vdW  Elec       q    Type
REMARK                         _______ _______ _______ _____ _____    ______ ____
ROOT
ATOM      1  C   LIG    1      -22.557  86.425  13.903  0.00  0.00    +0.131 A 
ATOM      2  C   LIG    1      -22.860  85.087  13.711  0.00  0.00    +0.183 A 
ATOM      3  N   LIG    1      -22.506  83.946  14.379  0.00  0.00    -0.211 NA
ATOM      4  C   LIG    1      -22.858  82.779  13.868  0.00  0.00    +0.126 A 
ATOM      5  C   LIG    1      -23.672  82.698  12.595  0.00  0.00    +0.063 A 
ATOM      6  C   LIG    1      -24.013  83.840  12.004  0.00  0.00    +0.118 A 
ATOM      7  N   LIG    1      -23.620  85.059  12.540  0.00  0.00    -0.220 N 
ATOM      8  N   LIG    1      -23.882  86.294  12.054  0.00  0.00    -0.171 NA
ATOM      9  C   LIG    1      -23.282  87.115  12.919  0.00  0.00    +0.165 A 
ENDROOT
BRANCH   4  10
ATOM     10  N   LIG    1      -22.476  81.608  14.518  0.00  0.00    -0.308 N 
ATOM     11  C   LIG    1      -21.705  81.589  15.775  0.00  0.00    +0.105 C 
ATOM     12  C   LIG    1      -22.519  80.597  16.625  0.00  0.00    +0.029 C 
ATOM     13  C   LIG    1      -22.917  79.536  15.618  0.00  0.00    +0.021 C 
ATOM     14  C   LIG    1      -23.251  80.365  14.382  0.00  0.00    +0.107 C 
BRANCH  11  15
ATOM     15  C   LIG    1      -20.252  81.185  15.533  0.00  0.00    -0.024 A 
ATOM     16  C   LIG    1      -19.440  81.863  14.605  0.00  0.00    +0.043 A 
ATOM     17  C   LIG    1      -18.122  81.470  14.388  0.00  0.00    +0.124 A 
ATOM     18  F   LIG    1      -17.379  82.124  13.486  0.00  0.00    -0.205 F 
ATOM     19  C   LIG    1      -17.570  80.402  15.080  0.00  0.00    +0.038 A 
ATOM     20  C   LIG    1      -18.341  79.736  16.024  0.00  0.00    +0.003 A 
ATOM     21  C   LIG    1      -19.659  80.139  16.263  0.00  0.00    +0.005 A 
ENDBRANCH  11  15
ENDBRANCH   4  10
BRANCH   1  23
ATOM     22  C   LIG    1      -20.543  87.168  14.793  0.00  0.00    +0.241 C 
ATOM     23  N   LIG    1      -21.829  87.049  14.914  0.00  0.00    -0.206 NA
BRANCH  22  28
ATOM     24  C   LIG    1      -16.876  86.205  10.563  0.00  0.00    +0.067 C 
ATOM     25  C   LIG    1      -17.860  86.462  11.658  0.00  0.00    +0.056 A 
ATOM     26  N   LIG    1      -18.247  85.390  12.390  0.00  0.00    -0.256 NA
ATOM     27  C   LIG    1      -19.125  85.642  13.392  0.00  0.00    +0.144 A 
ATOM     28  C   LIG    1      -19.580  86.914  13.689  0.00  0.00    +0.143 A 
ATOM     29  N   LIG    1      -19.252  87.996  12.916  0.00  0.00    -0.247 NA
ATOM     30  C   LIG    1      -18.361  87.737  11.922  0.00  0.00    +0.134 A 
ENDBRANCH  22  28
BRANCH  22  31
ATOM     31  O   LIG    1      -19.864  87.667  15.865  0.00  0.00    -0.491 OA
ATOM     32  H   LIG    1      -20.424  88.292  16.365  0.00  0.00    +0.294 HD
ENDBRANCH  22  31
ENDBRANCH   1  23
TORSDOF 5
ENDMDL
MODEL 9
REMARK VINA RESULT:      -6.3     19.757     22.855
REMARK  Name = pdb/CHEMBL3923976.pdb
REMARK                            x       y       z     vdW  Elec       q    Type
REMARK                         _______ _______ _______ _____ _____    ______ ____
ROOT
ATOM      1  C   LIG    1      -19.241  86.871  13.571  0.00  0.00    +0.131 A 
ATOM      2  C   LIG    1      -18.870  85.592  13.187  0.00  0.00    +0.183 A 
ATOM      3  N   LIG    1      -18.989  84.368  13.786  0.00  0.00    -0.211 NA
ATOM      4  C   LIG    1      -18.410  83.325  13.214  0.00  0.00    +0.126 A 
ATOM      5  C   LIG    1      -17.668  83.466  11.903  0.00  0.00    +0.063 A 
ATOM      6  C   LIG    1      -17.610  84.675  11.352  0.00  0.00    +0.118 A 
ATOM      7  N   LIG    1      -18.203  85.766  11.973  0.00  0.00    -0.220 N 
ATOM      8  N   LIG    1      -18.223  87.048  11.541  0.00  0.00    -0.171 NA
ATOM      9  C   LIG    1      -18.903  87.697  12.489  0.00  0.00    +0.165 A 
ENDROOT
BRANCH   4  10
ATOM     10  N   LIG    1      -18.494  82.079  13.829  0.00  0.00    -0.308 N 
ATOM     11  C   LIG    1      -19.509  81.067  13.485  0.00  0.00    +0.105 C 
ATOM     12  C   LIG    1      -18.647  79.803  13.322  0.00  0.00    +0.029 C 
ATOM     13  C   LIG    1      -17.632  79.938  14.441  0.00  0.00    +0.021 C 
ATOM     14  C   LIG    1      -17.310  81.429  14.413  0.00  0.00    +0.107 C 
BRANCH  11  15
ATOM     15  C   LIG    1      -20.590  80.971  14.561  0.00  0.00    -0.024 A 
ATOM     16  C   LIG    1      -20.957  82.082  15.341  0.00  0.00    +0.043 A 
ATOM     17  C   LIG    1      -21.934  81.971  16.328  0.00  0.00    +0.124 A 
ATOM     18  F   LIG    1      -22.250  83.043  17.066  0.00  0.00    -0.205 F 
ATOM     19  C   LIG    1      -22.576  80.765  16.567  0.00  0.00    +0.038 A 
ATOM     20  C   LIG    1      -22.254  79.661  15.788  0.00  0.00    +0.003 A 
ATOM     21  C   LIG    1      -21.289  79.770  14.782  0.00  0.00    +0.005 A 
ENDBRANCH  11  15
ENDBRANCH   4  10
BRANCH   1  23
ATOM     22  C   LIG    1      -21.229  87.418  14.645  0.00  0.00    +0.241 C 
ATOM     23  N   LIG    1      -19.938  87.308  14.696  0.00  0.00    -0.206 NA
BRANCH  22  28
ATOM     24  C   LIG    1      -25.161  85.903  10.835  0.00  0.00    +0.067 C 
ATOM     25  C   LIG    1      -24.107  86.290  11.822  0.00  0.00    +0.056 A 
ATOM     26  N   LIG    1      -23.757  87.598  11.854  0.00  0.00    -0.256 NA
ATOM     27  C   LIG    1      -22.815  87.937  12.769  0.00  0.00    +0.144 A 
ATOM     28  C   LIG    1      -22.261  87.025  13.649  0.00  0.00    +0.143 A 
ATOM     29  N   LIG    1      -22.554  85.689  13.581  0.00  0.00    -0.247 NA
ATOM     30  C   LIG    1      -23.510  85.360  12.672  0.00  0.00    +0.134 A 
ENDBRANCH  22  28
BRANCH  22  31
ATOM     31  O   LIG    1      -21.847  87.973  15.725  0.00  0.00    -0.491 OA
ATOM     32  H   LIG    1      -21.397  88.800  15.990  0.00  0.00    +0.294 HD
ENDBRANCH  22  31
ENDBRANCH   1  23
TORSDOF 5
ENDMDL
