MODEL 1
REMARK VINA RESULT:      -7.4      0.000      0.000
REMARK  Name = pdb/CHEMBL3962675.pdb
REMARK                            x       y       z     vdW  Elec       q    Type
REMARK                         _______ _______ _______ _____ _____    ______ ____
ROOT
ATOM      1  C   LIG    1      -26.089  81.698  37.139  0.00  0.00    +0.323 A 
ATOM      2  N   LIG    1      -27.403  81.457  37.334  0.00  0.00    -0.201 NA
ATOM      3  C   LIG    1      -28.247  82.496  37.112  0.00  0.00    +0.145 A 
ATOM      4  C   LIG    1      -27.841  83.765  36.768  0.00  0.00    +0.105 A 
ATOM      5  C   LIG    1      -26.467  83.871  36.614  0.00  0.00    +0.145 A 
ATOM      6  N   LIG    1      -25.565  82.876  36.796  0.00  0.00    -0.201 NA
ENDROOT
BRANCH   4   7
ATOM      7  N   LIG    1      -28.753  84.815  36.480  0.00  0.00    -0.196 NA
ATOM      8  C   LIG    1      -29.205  84.960  35.287  0.00  0.00    +0.285 C 
BRANCH   8   9
ATOM      9  N   LIG    1      -30.202  85.835  34.932  0.00  0.00    -0.269 N 
ATOM     10  H   LIG    1      -31.105  85.541  35.292  0.00  0.00    +0.157 HD
BRANCH   9  11
ATOM     11  C   LIG    1      -30.354  86.449  33.650  0.00  0.00    +0.043 A 
ATOM     12  C   LIG    1      -29.599  87.595  33.265  0.00  0.00    +0.003 A 
ATOM     13  C   LIG    1      -29.766  88.046  31.928  0.00  0.00    +0.011 A 
ATOM     14  C   LIG    1      -30.616  87.420  31.005  0.00  0.00    +0.013 A 
ATOM     15  C   LIG    1      -31.356  86.309  31.385  0.00  0.00    +0.057 A 
ATOM     16  C   LIG    1      -31.237  85.865  32.705  0.00  0.00    +0.036 A 
BRANCH  12  17
ATOM     17  C   LIG    1      -28.664  88.364  34.155  0.00  0.00    -0.016 A 
ATOM     18  C   LIG    1      -28.887  89.736  34.419  0.00  0.00    +0.008 A 
ATOM     19  C   LIG    1      -28.014  90.505  35.200  0.00  0.00    +0.001 A 
ATOM     20  C   LIG    1      -26.897  89.913  35.773  0.00  0.00    +0.000 A 
ATOM     21  C   LIG    1      -26.650  88.564  35.547  0.00  0.00    +0.001 A 
ATOM     22  C   LIG    1      -27.512  87.806  34.736  0.00  0.00    +0.008 A 
ENDBRANCH  12  17
BRANCH  15  23
ATOM     23  C   LIG    1      -32.243  85.572  30.411  0.00  0.00    +0.417 C 
ATOM     24  F   LIG    1      -33.443  86.190  30.235  0.00  0.00    -0.166 F 
ATOM     25  F   LIG    1      -32.522  84.302  30.806  0.00  0.00    -0.166 F 
ATOM     26  F   LIG    1      -31.699  85.466  29.166  0.00  0.00    -0.166 F 
ENDBRANCH  15  23
ENDBRANCH   9  11
ENDBRANCH   8   9
BRANCH   8  27
ATOM     27  O   LIG    1      -28.703  84.257  34.243  0.00  0.00    -0.481 OA
ATOM     28  H   LIG    1      -28.938  84.662  33.399  0.00  0.00    +0.295 HD
ENDBRANCH   8  27
ENDBRANCH   4   7
BRANCH   1  29
ATOM     29  O   LIG    1      -25.169  80.659  37.236  0.00  0.00    -0.424 OA
BRANCH  29  33
ATOM     30  C   LIG    1      -24.373  78.565  33.667  0.00  0.00    -0.014 A 
ATOM     31  C   LIG    1      -23.551  79.629  34.082  0.00  0.00    +0.012 A 
ATOM     32  C   LIG    1      -23.751  80.288  35.291  0.00  0.00    +0.047 A 
ATOM     33  C   LIG    1      -24.855  79.983  36.082  0.00  0.00    +0.132 A 
ATOM     34  C   LIG    1      -25.672  78.916  35.723  0.00  0.00    +0.047 A 
ATOM     35  C   LIG    1      -25.419  78.206  34.538  0.00  0.00    +0.012 A 
BRANCH  30  37
ATOM     36  C   LIG    1      -25.080  77.299  31.540  0.00  0.00    +0.124 A 
ATOM     37  C   LIG    1      -24.098  77.867  32.379  0.00  0.00    +0.023 A 
ATOM     38  C   LIG    1      -22.768  77.769  31.912  0.00  0.00    +0.033 A 
ATOM     39  C   LIG    1      -22.472  77.163  30.698  0.00  0.00    +0.060 A 
ATOM     40 CL   LIG    1      -20.856  77.098  30.125  0.00  0.00    -0.082 Cl
ATOM     41  C   LIG    1      -23.512  76.627  29.972  0.00  0.00    +0.133 A 
ATOM     42  N   LIG    1      -24.803  76.677  30.371  0.00  0.00    -0.239 NA
BRANCH  36  43
ATOM     43  N   LIG    1      -26.442  77.323  31.832  0.00  0.00    -0.343 N 
ATOM     44  H   LIG    1      -26.608  77.712  32.753  0.00  0.00    +0.144 HD
ATOM     45  H   LIG    1      -26.886  77.874  31.101  0.00  0.00    +0.144 HD
ENDBRANCH  36  43
ENDBRANCH  30  37
ENDBRANCH  29  33
ENDBRANCH   1  29
TORSDOF 10
ENDMDL
MODEL 2
REMARK VINA RESULT:      -7.3      8.172     10.955
REMARK  Name = pdb/CHEMBL3962675.pdb
REMARK                            x       y       z     vdW  Elec       q    Type
REMARK                         _______ _______ _______ _____ _____    ______ ____
ROOT
ATOM      1  C   LIG    1      -28.525  75.063  33.083  0.00  0.00    +0.323 A 
ATOM      2  N   LIG    1      -28.515  75.778  34.228  0.00  0.00    -0.201 NA
ATOM      3  C   LIG    1      -27.531  76.705  34.353  0.00  0.00    +0.145 A 
ATOM      4  C   LIG    1      -26.535  76.908  33.426  0.00  0.00    +0.105 A 
ATOM      5  C   LIG    1      -26.663  76.099  32.308  0.00  0.00    +0.145 A 
ATOM      6  N   LIG    1      -27.627  75.169  32.103  0.00  0.00    -0.201 NA
ENDROOT
BRANCH   4   7
ATOM      7  N   LIG    1      -25.558  77.930  33.557  0.00  0.00    -0.196 NA
ATOM      8  C   LIG    1      -24.433  77.671  34.119  0.00  0.00    +0.285 C 
BRANCH   8   9
ATOM      9  N   LIG    1      -23.364  78.533  34.160  0.00  0.00    -0.269 N 
ATOM     10  H   LIG    1      -23.662  79.496  34.282  0.00  0.00    +0.157 HD
BRANCH   9  11
ATOM     11  C   LIG    1      -22.212  78.472  33.314  0.00  0.00    +0.043 A 
ATOM     12  C   LIG    1      -20.954  79.010  33.711  0.00  0.00    +0.003 A 
ATOM     13  C   LIG    1      -19.863  78.792  32.826  0.00  0.00    +0.011 A 
ATOM     14  C   LIG    1      -19.980  78.086  31.620  0.00  0.00    +0.013 A 
ATOM     15  C   LIG    1      -21.209  77.571  31.233  0.00  0.00    +0.057 A 
ATOM     16  C   LIG    1      -22.306  77.800  32.068  0.00  0.00    +0.036 A 
BRANCH  12  17
ATOM     17  C   LIG    1      -20.694  79.793  34.966  0.00  0.00    -0.016 A 
ATOM     18  C   LIG    1      -21.309  81.051  35.171  0.00  0.00    +0.008 A 
ATOM     19  C   LIG    1      -21.056  81.838  36.302  0.00  0.00    +0.001 A 
ATOM     20  C   LIG    1      -20.198  81.374  37.289  0.00  0.00    +0.000 A 
ATOM     21  C   LIG    1      -19.583  80.137  37.130  0.00  0.00    +0.001 A 
ATOM     22  C   LIG    1      -19.816  79.367  35.978  0.00  0.00    +0.008 A 
ENDBRANCH  12  17
BRANCH  15  23
ATOM     23  C   LIG    1      -21.371  76.760  29.969  0.00  0.00    +0.417 C 
ATOM     24  F   LIG    1      -22.468  77.131  29.254  0.00  0.00    -0.166 F 
ATOM     25  F   LIG    1      -21.503  75.429  30.208  0.00  0.00    -0.166 F 
ATOM     26  F   LIG    1      -20.316  76.885  29.115  0.00  0.00    -0.166 F 
ENDBRANCH  15  23
ENDBRANCH   9  11
ENDBRANCH   8   9
BRANCH   8  27
ATOM     27  O   LIG    1      -24.209  76.499  34.761  0.00  0.00    -0.481 OA
ATOM     28  H   LIG    1      -23.971  75.798  34.142  0.00  0.00    +0.295 HD
ENDBRANCH   8  27
ENDBRANCH   4   7
BRANCH   1  29
ATOM     29  O   LIG    1      -29.564  74.174  32.827  0.00  0.00    -0.424 OA
BRANCH  29  33
ATOM     30  C   LIG    1      -32.418  75.477  30.015  0.00  0.00    -0.014 A 
ATOM     31  C   LIG    1      -31.561  74.398  29.731  0.00  0.00    +0.012 A 
ATOM     32  C   LIG    1      -30.660  73.904  30.669  0.00  0.00    +0.047 A 
ATOM     33  C   LIG    1      -30.501  74.546  31.894  0.00  0.00    +0.132 A 
ATOM     34  C   LIG    1      -31.351  75.596  32.225  0.00  0.00    +0.047 A 
ATOM     35  C   LIG    1      -32.309  76.041  31.301  0.00  0.00    +0.012 A 
BRANCH  30  37
ATOM     36  C   LIG    1      -33.259  77.135  28.235  0.00  0.00    +0.124 A 
ATOM     37  C   LIG    1      -33.389  75.950  28.988  0.00  0.00    +0.023 A 
ATOM     38  C   LIG    1      -34.528  75.166  28.697  0.00  0.00    +0.033 A 
ATOM     39  C   LIG    1      -35.438  75.549  27.720  0.00  0.00    +0.060 A 
ATOM     40 CL   LIG    1      -36.787  74.559  27.347  0.00  0.00    -0.082 Cl
ATOM     41  C   LIG    1      -35.216  76.738  27.061  0.00  0.00    +0.133 A 
ATOM     42  N   LIG    1      -34.154  77.538  27.303  0.00  0.00    -0.239 NA
BRANCH  36  43
ATOM     43  N   LIG    1      -32.189  78.017  28.374  0.00  0.00    -0.343 N 
ATOM     44  H   LIG    1      -32.098  78.328  29.334  0.00  0.00    +0.144 HD
ATOM     45  H   LIG    1      -31.360  77.520  28.056  0.00  0.00    +0.144 HD
ENDBRANCH  36  43
ENDBRANCH  30  37
ENDBRANCH  29  33
ENDBRANCH   1  29
TORSDOF 10
ENDMDL
MODEL 3
REMARK VINA RESULT:      -7.2      5.429     11.109
REMARK  Name = pdb/CHEMBL3962675.pdb
REMARK                            x       y       z     vdW  Elec       q    Type
REMARK                         _______ _______ _______ _____ _____    ______ ____
ROOT
ATOM      1  C   LIG    1      -27.152  83.533  36.822  0.00  0.00    +0.323 A 
ATOM      2  N   LIG    1      -25.887  83.895  36.518  0.00  0.00    -0.201 NA
ATOM      3  C   LIG    1      -24.942  82.926  36.609  0.00  0.00    +0.145 A 
ATOM      4  C   LIG    1      -25.188  81.643  37.041  0.00  0.00    +0.105 A 
ATOM      5  C   LIG    1      -26.524  81.414  37.330  0.00  0.00    +0.145 A 
ATOM      6  N   LIG    1      -27.525  82.324  37.243  0.00  0.00    -0.201 NA
ENDROOT
BRANCH   4   7
ATOM      7  N   LIG    1      -24.189  80.633  37.064  0.00  0.00    -0.196 NA
ATOM      8  C   LIG    1      -24.071  79.829  36.070  0.00  0.00    +0.285 C 
BRANCH   8   9
ATOM      9  N   LIG    1      -23.049  78.923  35.916  0.00  0.00    -0.269 N 
ATOM     10  H   LIG    1      -22.626  78.680  36.807  0.00  0.00    +0.157 HD
BRANCH   9  11
ATOM     11  C   LIG    1      -22.058  78.951  34.886  0.00  0.00    +0.043 A 
ATOM     12  C   LIG    1      -20.860  79.711  35.009  0.00  0.00    +0.003 A 
ATOM     13  C   LIG    1      -19.909  79.571  33.962  0.00  0.00    +0.011 A 
ATOM     14  C   LIG    1      -20.102  78.735  32.853  0.00  0.00    +0.013 A 
ATOM     15  C   LIG    1      -21.275  78.001  32.732  0.00  0.00    +0.057 A 
ATOM     16  C   LIG    1      -22.242  78.147  33.731  0.00  0.00    +0.036 A 
BRANCH  12  17
ATOM     17  C   LIG    1      -20.532  80.650  36.135  0.00  0.00    -0.016 A 
ATOM     18  C   LIG    1      -21.016  81.980  36.127  0.00  0.00    +0.008 A 
ATOM     19  C   LIG    1      -20.693  82.904  37.130  0.00  0.00    +0.001 A 
ATOM     20  C   LIG    1      -19.896  82.517  38.197  0.00  0.00    +0.000 A 
ATOM     21  C   LIG    1      -19.410  81.214  38.246  0.00  0.00    +0.001 A 
ATOM     22  C   LIG    1      -19.710  80.301  37.221  0.00  0.00    +0.008 A 
ENDBRANCH  12  17
BRANCH  15  23
ATOM     23  C   LIG    1      -21.504  77.049  31.584  0.00  0.00    +0.417 C 
ATOM     24  F   LIG    1      -20.470  76.178  31.420  0.00  0.00    -0.166 F 
ATOM     25  F   LIG    1      -21.661  77.684  30.393  0.00  0.00    -0.166 F 
ATOM     26  F   LIG    1      -22.614  76.275  31.745  0.00  0.00    -0.166 F 
ENDBRANCH  15  23
ENDBRANCH   9  11
ENDBRANCH   8   9
BRANCH   8  27
ATOM     27  O   LIG    1      -24.985  79.789  35.071  0.00  0.00    -0.481 OA
ATOM     28  H   LIG    1      -25.882  79.905  35.409  0.00  0.00    +0.295 HD
ENDBRANCH   8  27
ENDBRANCH   4   7
BRANCH   1  29
ATOM     29  O   LIG    1      -28.196  84.436  36.646  0.00  0.00    -0.424 OA
BRANCH  29  33
ATOM     30  C   LIG    1      -27.096  88.444  35.960  0.00  0.00    -0.014 A 
ATOM     31  C   LIG    1      -27.197  87.528  34.896  0.00  0.00    +0.012 A 
ATOM     32  C   LIG    1      -27.627  86.219  35.089  0.00  0.00    +0.047 A 
ATOM     33  C   LIG    1      -27.865  85.740  36.374  0.00  0.00    +0.132 A 
ATOM     34  C   LIG    1      -27.808  86.624  37.447  0.00  0.00    +0.047 A 
ATOM     35  C   LIG    1      -27.446  87.963  37.236  0.00  0.00    +0.012 A 
BRANCH  30  37
ATOM     36  C   LIG    1      -25.393  90.373  36.014  0.00  0.00    +0.124 A 
ATOM     37  C   LIG    1      -26.663  89.846  35.699  0.00  0.00    +0.023 A 
ATOM     38  C   LIG    1      -27.552  90.742  35.064  0.00  0.00    +0.033 A 
ATOM     39  C   LIG    1      -27.175  92.045  34.766  0.00  0.00    +0.060 A 
ATOM     40 CL   LIG    1      -28.253  93.101  33.951  0.00  0.00    -0.082 Cl
ATOM     41  C   LIG    1      -25.914  92.454  35.138  0.00  0.00    +0.133 A 
ATOM     42  N   LIG    1      -25.023  91.650  35.760  0.00  0.00    -0.239 NA
BRANCH  36  43
ATOM     43  N   LIG    1      -24.384  89.628  36.621  0.00  0.00    -0.343 N 
ATOM     44  H   LIG    1      -23.504  90.130  36.608  0.00  0.00    +0.144 HD
ATOM     45  H   LIG    1      -24.696  89.434  37.569  0.00  0.00    +0.144 HD
ENDBRANCH  36  43
ENDBRANCH  30  37
ENDBRANCH  29  33
ENDBRANCH   1  29
TORSDOF 10
ENDMDL
MODEL 4
REMARK VINA RESULT:      -7.2     17.860     22.722
REMARK  Name = pdb/CHEMBL3962675.pdb
REMARK                            x       y       z     vdW  Elec       q    Type
REMARK                         _______ _______ _______ _____ _____    ______ ____
ROOT
ATOM      1  C   LIG    1      -37.385  68.654  24.244  0.00  0.00    +0.323 A 
ATOM      2  N   LIG    1      -36.251  68.275  24.873  0.00  0.00    -0.201 NA
ATOM      3  C   LIG    1      -35.248  67.813  24.084  0.00  0.00    +0.145 A 
ATOM      4  C   LIG    1      -35.344  67.658  22.721  0.00  0.00    +0.105 A 
ATOM      5  C   LIG    1      -36.564  68.074  22.212  0.00  0.00    +0.145 A 
ATOM      6  N   LIG    1      -37.602  68.564  22.931  0.00  0.00    -0.201 NA
ENDROOT
BRANCH   4   7
ATOM      7  N   LIG    1      -34.253  67.233  21.915  0.00  0.00    -0.196 NA
ATOM      8  C   LIG    1      -34.228  66.036  21.453  0.00  0.00    +0.285 C 
BRANCH   8   9
ATOM      9  N   LIG    1      -33.311  65.570  20.543  0.00  0.00    -0.269 N 
ATOM     10  H   LIG    1      -32.587  65.016  20.990  0.00  0.00    +0.157 HD
BRANCH   9  11
ATOM     11  C   LIG    1      -32.764  66.316  19.452  0.00  0.00    +0.043 A 
ATOM     12  C   LIG    1      -33.577  66.810  18.392  0.00  0.00    +0.003 A 
ATOM     13  C   LIG    1      -32.931  67.627  17.424  0.00  0.00    +0.011 A 
ATOM     14  C   LIG    1      -31.568  67.953  17.479  0.00  0.00    +0.013 A 
ATOM     15  C   LIG    1      -30.777  67.463  18.510  0.00  0.00    +0.057 A 
ATOM     16  C   LIG    1      -31.381  66.630  19.456  0.00  0.00    +0.036 A 
BRANCH  12  17
ATOM     17  C   LIG    1      -35.041  66.529  18.208  0.00  0.00    -0.016 A 
ATOM     18  C   LIG    1      -36.009  67.510  18.530  0.00  0.00    +0.008 A 
ATOM     19  C   LIG    1      -37.386  67.272  18.423  0.00  0.00    +0.001 A 
ATOM     20  C   LIG    1      -37.843  66.048  17.956  0.00  0.00    +0.000 A 
ATOM     21  C   LIG    1      -36.922  65.062  17.619  0.00  0.00    +0.001 A 
ATOM     22  C   LIG    1      -35.543  65.294  17.760  0.00  0.00    +0.008 A 
ENDBRANCH  12  17
BRANCH  15  23
ATOM     23  C   LIG    1      -29.319  67.831  18.639  0.00  0.00    +0.417 C 
ATOM     24  F   LIG    1      -28.683  67.097  19.594  0.00  0.00    -0.166 F 
ATOM     25  F   LIG    1      -29.129  69.135  18.971  0.00  0.00    -0.166 F 
ATOM     26  F   LIG    1      -28.613  67.629  17.491  0.00  0.00    -0.166 F 
ENDBRANCH  15  23
ENDBRANCH   9  11
ENDBRANCH   8   9
BRANCH   8  27
ATOM     27  O   LIG    1      -35.119  65.097  21.854  0.00  0.00    -0.481 OA
ATOM     28  H   LIG    1      -35.399  65.243  22.766  0.00  0.00    +0.295 HD
ENDBRANCH   8  27
ENDBRANCH   4   7
BRANCH   1  29
ATOM     29  O   LIG    1      -38.418  69.242  24.966  0.00  0.00    -0.424 OA
BRANCH  29  33
ATOM     30  C   LIG    1      -39.253  73.336  24.428  0.00  0.00    -0.014 A 
ATOM     31  C   LIG    1      -38.022  72.912  24.963  0.00  0.00    +0.012 A 
ATOM     32  C   LIG    1      -37.696  71.564  25.084  0.00  0.00    +0.047 A 
ATOM     33  C   LIG    1      -38.636  70.585  24.779  0.00  0.00    +0.132 A 
ATOM     34  C   LIG    1      -39.851  70.963  24.217  0.00  0.00    +0.047 A 
ATOM     35  C   LIG    1      -40.145  72.323  24.028  0.00  0.00    +0.012 A 
BRANCH  30  37
ATOM     36  C   LIG    1      -38.627  75.830  24.553  0.00  0.00    +0.124 A 
ATOM     37  C   LIG    1      -39.544  74.791  24.288  0.00  0.00    +0.023 A 
ATOM     38  C   LIG    1      -40.816  75.204  23.831  0.00  0.00    +0.033 A 
ATOM     39  C   LIG    1      -41.117  76.547  23.648  0.00  0.00    +0.060 A 
ATOM     40 CL   LIG    1      -42.650  77.026  23.046  0.00  0.00    -0.082 Cl
ATOM     41  C   LIG    1      -40.146  77.475  23.957  0.00  0.00    +0.133 A 
ATOM     42  N   LIG    1      -38.917  77.145  24.410  0.00  0.00    -0.239 NA
BRANCH  36  43
ATOM     43  N   LIG    1      -37.323  75.607  24.989  0.00  0.00    -0.343 N 
ATOM     44  H   LIG    1      -37.193  74.640  25.262  0.00  0.00    +0.144 HD
ATOM     45  H   LIG    1      -36.710  75.869  24.220  0.00  0.00    +0.144 HD
ENDBRANCH  36  43
ENDBRANCH  30  37
ENDBRANCH  29  33
ENDBRANCH   1  29
TORSDOF 10
ENDMDL
MODEL 5
REMARK VINA RESULT:      -7.2      5.225     10.584
REMARK  Name = pdb/CHEMBL3962675.pdb
REMARK                            x       y       z     vdW  Elec       q    Type
REMARK                         _______ _______ _______ _____ _____    ______ ____
ROOT
ATOM      1  C   LIG    1      -26.395  83.295  37.078  0.00  0.00    +0.323 A 
ATOM      2  N   LIG    1      -26.897  82.051  37.238  0.00  0.00    -0.201 NA
ATOM      3  C   LIG    1      -26.040  81.022  37.021  0.00  0.00    +0.145 A 
ATOM      4  C   LIG    1      -24.740  81.172  36.597  0.00  0.00    +0.105 A 
ATOM      5  C   LIG    1      -24.364  82.499  36.462  0.00  0.00    +0.145 A 
ATOM      6  N   LIG    1      -25.154  83.578  36.682  0.00  0.00    -0.201 NA
ENDROOT
BRANCH   4   7
ATOM      7  N   LIG    1      -23.849  80.076  36.440  0.00  0.00    -0.196 NA
ATOM      8  C   LIG    1      -23.849  79.404  35.347  0.00  0.00    +0.285 C 
BRANCH   8   9
ATOM      9  N   LIG    1      -22.931  78.433  35.028  0.00  0.00    -0.269 N 
ATOM     10  H   LIG    1      -22.563  77.977  35.857  0.00  0.00    +0.157 HD
BRANCH   9  11
ATOM     11  C   LIG    1      -21.916  78.542  34.027  0.00  0.00    +0.043 A 
ATOM     12  C   LIG    1      -20.725  79.295  34.237  0.00  0.00    +0.003 A 
ATOM     13  C   LIG    1      -19.747  79.238  33.207  0.00  0.00    +0.011 A 
ATOM     14  C   LIG    1      -19.908  78.487  32.034  0.00  0.00    +0.013 A 
ATOM     15  C   LIG    1      -21.073  77.760  31.829  0.00  0.00    +0.057 A 
ATOM     16  C   LIG    1      -22.066  77.827  32.811  0.00  0.00    +0.036 A 
BRANCH  12  17
ATOM     17  C   LIG    1      -20.430  80.147  35.439  0.00  0.00    -0.016 A 
ATOM     18  C   LIG    1      -19.685  79.628  36.524  0.00  0.00    +0.008 A 
ATOM     19  C   LIG    1      -19.430  80.370  37.686  0.00  0.00    +0.001 A 
ATOM     20  C   LIG    1      -19.889  81.675  37.787  0.00  0.00    +0.000 A 
ATOM     21  C   LIG    1      -20.616  82.225  36.737  0.00  0.00    +0.001 A 
ATOM     22  C   LIG    1      -20.896  81.465  35.588  0.00  0.00    +0.008 A 
ENDBRANCH  12  17
BRANCH  15  23
ATOM     23  C   LIG    1      -21.269  76.896  30.606  0.00  0.00    +0.417 C 
ATOM     24  F   LIG    1      -22.557  76.909  30.166  0.00  0.00    -0.166 F 
ATOM     25  F   LIG    1      -20.952  75.593  30.823  0.00  0.00    -0.166 F 
ATOM     26  F   LIG    1      -20.514  77.295  29.544  0.00  0.00    -0.166 F 
ENDBRANCH  15  23
ENDBRANCH   9  11
ENDBRANCH   8   9
BRANCH   8  27
ATOM     27  O   LIG    1      -24.798  79.586  34.397  0.00  0.00    -0.481 OA
ATOM     28  H   LIG    1      -24.559  79.146  33.571  0.00  0.00    +0.295 HD
ENDBRANCH   8  27
ENDBRANCH   4   7
BRANCH   1  29
ATOM     29  O   LIG    1      -27.174  84.405  37.390  0.00  0.00    -0.424 OA
BRANCH  29  33
ATOM     30  C   LIG    1      -29.643  86.053  34.401  0.00  0.00    -0.014 A 
ATOM     31  C   LIG    1      -28.328  86.516  34.591  0.00  0.00    +0.012 A 
ATOM     32  C   LIG    1      -27.470  85.939  35.523  0.00  0.00    +0.047 A 
ATOM     33  C   LIG    1      -27.934  84.948  36.384  0.00  0.00    +0.132 A 
ATOM     34  C   LIG    1      -29.217  84.442  36.205  0.00  0.00    +0.047 A 
ATOM     35  C   LIG    1      -30.052  84.978  35.213  0.00  0.00    +0.012 A 
BRANCH  30  37
ATOM     36  C   LIG    1      -31.064  86.011  32.255  0.00  0.00    +0.124 A 
ATOM     37  C   LIG    1      -30.514  86.681  33.367  0.00  0.00    +0.023 A 
ATOM     38  C   LIG    1      -30.861  88.046  33.487  0.00  0.00    +0.033 A 
ATOM     39  C   LIG    1      -31.701  88.661  32.569  0.00  0.00    +0.060 A 
ATOM     40 CL   LIG    1      -32.151  90.305  32.760  0.00  0.00    -0.082 Cl
ATOM     41  C   LIG    1      -32.165  87.909  31.512  0.00  0.00    +0.133 A 
ATOM     42  N   LIG    1      -31.859  86.605  31.334  0.00  0.00    -0.239 NA
BRANCH  36  43
ATOM     43  N   LIG    1      -30.847  84.660  31.992  0.00  0.00    -0.343 N 
ATOM     44  H   LIG    1      -31.517  84.310  31.317  0.00  0.00    +0.144 HD
ATOM     45  H   LIG    1      -29.891  84.580  31.655  0.00  0.00    +0.144 HD
ENDBRANCH  36  43
ENDBRANCH  30  37
ENDBRANCH  29  33
ENDBRANCH   1  29
TORSDOF 10
ENDMDL
MODEL 6
REMARK VINA RESULT:      -7.1      8.241     11.088
REMARK  Name = pdb/CHEMBL3962675.pdb
REMARK                            x       y       z     vdW  Elec       q    Type
REMARK                         _______ _______ _______ _____ _____    ______ ____
ROOT
ATOM      1  C   LIG    1      -27.474  74.294  32.901  0.00  0.00    +0.323 A 
ATOM      2  N   LIG    1      -26.562  74.394  31.911  0.00  0.00    -0.201 NA
ATOM      3  C   LIG    1      -25.418  75.060  32.208  0.00  0.00    +0.145 A 
ATOM      4  C   LIG    1      -25.170  75.675  33.414  0.00  0.00    +0.105 A 
ATOM      5  C   LIG    1      -26.195  75.502  34.331  0.00  0.00    +0.145 A 
ATOM      6  N   LIG    1      -27.353  74.833  34.115  0.00  0.00    -0.201 NA
ENDROOT
BRANCH   4   7
ATOM      7  N   LIG    1      -23.935  76.309  33.716  0.00  0.00    -0.196 NA
ATOM      8  C   LIG    1      -23.815  77.578  33.565  0.00  0.00    +0.285 C 
BRANCH   8   9
ATOM      9  N   LIG    1      -22.728  78.313  33.971  0.00  0.00    -0.269 N 
ATOM     10  H   LIG    1      -23.000  79.229  34.315  0.00  0.00    +0.157 HD
BRANCH   9  11
ATOM     11  C   LIG    1      -21.472  78.390  33.291  0.00  0.00    +0.043 A 
ATOM     12  C   LIG    1      -20.376  79.137  33.809  0.00  0.00    +0.003 A 
ATOM     13  C   LIG    1      -19.151  79.048  33.093  0.00  0.00    +0.011 A 
ATOM     14  C   LIG    1      -18.991  78.271  31.936  0.00  0.00    +0.013 A 
ATOM     15  C   LIG    1      -20.064  77.550  31.429  0.00  0.00    +0.057 A 
ATOM     16  C   LIG    1      -21.289  77.648  32.095  0.00  0.00    +0.036 A 
BRANCH  12  17
ATOM     17  C   LIG    1      -20.414  80.015  35.028  0.00  0.00    -0.016 A 
ATOM     18  C   LIG    1      -19.668  79.676  36.182  0.00  0.00    +0.008 A 
ATOM     19  C   LIG    1      -19.714  80.437  37.358  0.00  0.00    +0.001 A 
ATOM     20  C   LIG    1      -20.488  81.587  37.408  0.00  0.00    +0.000 A 
ATOM     21  C   LIG    1      -21.227  81.959  36.289  0.00  0.00    +0.001 A 
ATOM     22  C   LIG    1      -21.202  81.175  35.124  0.00  0.00    +0.008 A 
ENDBRANCH  12  17
BRANCH  15  23
ATOM     23  C   LIG    1      -19.925  76.660  30.218  0.00  0.00    +0.417 C 
ATOM     24  F   LIG    1      -20.335  75.385  30.464  0.00  0.00    -0.166 F 
ATOM     25  F   LIG    1      -18.645  76.571  29.771  0.00  0.00    -0.166 F 
ATOM     26  F   LIG    1      -20.665  77.085  29.155  0.00  0.00    -0.166 F 
ENDBRANCH  15  23
ENDBRANCH   9  11
ENDBRANCH   8   9
BRANCH   8  27
ATOM     27  O   LIG    1      -24.771  78.319  32.953  0.00  0.00    -0.481 OA
ATOM     28  H   LIG    1      -24.504  79.243  32.872  0.00  0.00    +0.295 HD
ENDBRANCH   8  27
ENDBRANCH   4   7
BRANCH   1  29
ATOM     29  O   LIG    1      -28.623  73.532  32.715  0.00  0.00    -0.424 OA
BRANCH  29  33
ATOM     30  C   LIG    1      -31.432  75.157  30.027  0.00  0.00    -0.014 A 
ATOM     31  C   LIG    1      -31.140  73.780  30.027  0.00  0.00    +0.012 A 
ATOM     32  C   LIG    1      -30.271  73.210  30.951  0.00  0.00    +0.047 A 
ATOM     33  C   LIG    1      -29.568  74.015  31.844  0.00  0.00    +0.132 A 
ATOM     34  C   LIG    1      -29.853  75.376  31.897  0.00  0.00    +0.047 A 
ATOM     35  C   LIG    1      -30.787  75.933  31.010  0.00  0.00    +0.012 A 
BRANCH  30  37
ATOM     36  C   LIG    1      -33.712  75.253  28.838  0.00  0.00    +0.124 A 
ATOM     37  C   LIG    1      -32.395  75.717  29.038  0.00  0.00    +0.023 A 
ATOM     38  C   LIG    1      -32.010  76.817  28.238  0.00  0.00    +0.033 A 
ATOM     39  C   LIG    1      -32.889  77.395  27.333  0.00  0.00    +0.060 A 
ATOM     40 CL   LIG    1      -32.419  78.760  26.407  0.00  0.00    -0.082 Cl
ATOM     41  C   LIG    1      -34.146  76.844  27.210  0.00  0.00    +0.133 A 
ATOM     42  N   LIG    1      -34.569  75.785  27.936  0.00  0.00    -0.239 NA
BRANCH  36  43
ATOM     43  N   LIG    1      -34.267  74.194  29.553  0.00  0.00    -0.343 N 
ATOM     44  H   LIG    1      -34.322  74.414  30.541  0.00  0.00    +0.144 HD
ATOM     45  H   LIG    1      -35.185  74.021  29.151  0.00  0.00    +0.144 HD
ENDBRANCH  36  43
ENDBRANCH  30  37
ENDBRANCH  29  33
ENDBRANCH   1  29
TORSDOF 10
ENDMDL
MODEL 7
REMARK VINA RESULT:      -7.0     17.490     21.176
REMARK  Name = pdb/CHEMBL3962675.pdb
REMARK                            x       y       z     vdW  Elec       q    Type
REMARK                         _______ _______ _______ _____ _____    ______ ____
ROOT
ATOM      1  C   LIG    1      -35.978  66.182  20.703  0.00  0.00    +0.323 A 
ATOM      2  N   LIG    1      -37.086  66.890  20.393  0.00  0.00    -0.201 NA
ATOM      3  C   LIG    1      -37.697  67.535  21.419  0.00  0.00    +0.145 A 
ATOM      4  C   LIG    1      -37.294  67.459  22.732  0.00  0.00    +0.105 A 
ATOM      5  C   LIG    1      -36.152  66.691  22.905  0.00  0.00    +0.145 A 
ATOM      6  N   LIG    1      -35.477  66.036  21.930  0.00  0.00    -0.201 NA
ENDROOT
BRANCH   4   7
ATOM      7  N   LIG    1      -37.916  68.198  23.773  0.00  0.00    -0.196 NA
ATOM      8  C   LIG    1      -37.743  69.467  23.848  0.00  0.00    +0.285 C 
BRANCH   8   9
ATOM      9  N   LIG    1      -38.415  70.298  24.712  0.00  0.00    -0.269 N 
ATOM     10  H   LIG    1      -38.993  69.774  25.362  0.00  0.00    +0.157 HD
BRANCH   9  11
ATOM     11  C   LIG    1      -39.052  71.528  24.359  0.00  0.00    +0.043 A 
ATOM     12  C   LIG    1      -40.285  71.564  23.646  0.00  0.00    +0.003 A 
ATOM     13  C   LIG    1      -40.868  72.846  23.449  0.00  0.00    +0.011 A 
ATOM     14  C   LIG    1      -40.291  74.034  23.920  0.00  0.00    +0.013 A 
ATOM     15  C   LIG    1      -39.086  73.996  24.608  0.00  0.00    +0.057 A 
ATOM     16  C   LIG    1      -38.474  72.751  24.785  0.00  0.00    +0.036 A 
BRANCH  12  17
ATOM     17  C   LIG    1      -41.002  70.372  23.079  0.00  0.00    -0.016 A 
ATOM     18  C   LIG    1      -40.707  69.908  21.775  0.00  0.00    +0.008 A 
ATOM     19  C   LIG    1      -41.387  68.832  21.187  0.00  0.00    +0.001 A 
ATOM     20  C   LIG    1      -42.369  68.161  21.901  0.00  0.00    +0.000 A 
ATOM     21  C   LIG    1      -42.680  68.581  23.190  0.00  0.00    +0.001 A 
ATOM     22  C   LIG    1      -42.018  69.681  23.762  0.00  0.00    +0.008 A 
ENDBRANCH  12  17
BRANCH  15  23
ATOM     23  C   LIG    1      -38.454  75.243  25.179  0.00  0.00    +0.417 C 
ATOM     24  F   LIG    1      -39.259  76.333  25.054  0.00  0.00    -0.166 F 
ATOM     25  F   LIG    1      -37.279  75.564  24.578  0.00  0.00    -0.166 F 
ATOM     26  F   LIG    1      -38.179  75.141  26.510  0.00  0.00    -0.166 F 
ENDBRANCH  15  23
ENDBRANCH   9  11
ENDBRANCH   8   9
BRANCH   8  27
ATOM     27  O   LIG    1      -36.836  70.111  23.074  0.00  0.00    -0.481 OA
ATOM     28  H   LIG    1      -36.460  69.523  22.407  0.00  0.00    +0.295 HD
ENDBRANCH   8  27
ENDBRANCH   4   7
BRANCH   1  29
ATOM     29  O   LIG    1      -35.229  65.585  19.694  0.00  0.00    -0.424 OA
BRANCH  29  33
ATOM     30  C   LIG    1      -31.864  67.731  18.345  0.00  0.00    -0.014 A 
ATOM     31  C   LIG    1      -31.788  66.904  19.480  0.00  0.00    +0.012 A 
ATOM     32  C   LIG    1      -32.865  66.131  19.903  0.00  0.00    +0.047 A 
ATOM     33  C   LIG    1      -34.100  66.242  19.270  0.00  0.00    +0.132 A 
ATOM     34  C   LIG    1      -34.207  67.024  18.125  0.00  0.00    +0.047 A 
ATOM     35  C   LIG    1      -33.095  67.744  17.660  0.00  0.00    +0.012 A 
BRANCH  30  37
ATOM     36  C   LIG    1      -29.631  68.024  17.098  0.00  0.00    +0.124 A 
ATOM     37  C   LIG    1      -30.673  68.516  17.911  0.00  0.00    +0.023 A 
ATOM     38  C   LIG    1      -30.554  69.869  18.300  0.00  0.00    +0.033 A 
ATOM     39  C   LIG    1      -29.482  70.648  17.886  0.00  0.00    +0.060 A 
ATOM     40 CL   LIG    1      -29.381  72.302  18.328  0.00  0.00    -0.082 Cl
ATOM     41  C   LIG    1      -28.514  70.053  17.108  0.00  0.00    +0.133 A 
ATOM     42  N   LIG    1      -28.563  68.762  16.714  0.00  0.00    -0.239 NA
BRANCH  36  43
ATOM     43  N   LIG    1      -29.596  66.722  16.605  0.00  0.00    -0.343 N 
ATOM     44  H   LIG    1      -30.066  66.661  15.709  0.00  0.00    +0.144 HD
ATOM     45  H   LIG    1      -28.614  66.463  16.536  0.00  0.00    +0.144 HD
ENDBRANCH  36  43
ENDBRANCH  30  37
ENDBRANCH  29  33
ENDBRANCH   1  29
TORSDOF 10
ENDMDL
MODEL 8
REMARK VINA RESULT:      -7.0      7.023      9.781
REMARK  Name = pdb/CHEMBL3962675.pdb
REMARK                            x       y       z     vdW  Elec       q    Type
REMARK                         _______ _______ _______ _____ _____    ______ ____
ROOT
ATOM      1  C   LIG    1      -27.687  77.016  34.158  0.00  0.00    +0.323 A 
ATOM      2  N   LIG    1      -28.478  76.123  34.791  0.00  0.00    -0.201 NA
ATOM      3  C   LIG    1      -29.555  75.673  34.098  0.00  0.00    +0.145 A 
ATOM      4  C   LIG    1      -29.908  76.112  32.843  0.00  0.00    +0.105 A 
ATOM      5  C   LIG    1      -29.015  77.035  32.321  0.00  0.00    +0.145 A 
ATOM      6  N   LIG    1      -27.910  77.514  32.941  0.00  0.00    -0.201 NA
ENDROOT
BRANCH   4   7
ATOM      7  N   LIG    1      -31.005  75.573  32.118  0.00  0.00    -0.196 NA
ATOM      8  C   LIG    1      -32.117  76.212  32.074  0.00  0.00    +0.285 C 
BRANCH   8   9
ATOM      9  N   LIG    1      -33.185  75.866  31.283  0.00  0.00    -0.269 N 
ATOM     10  H   LIG    1      -33.476  74.906  31.443  0.00  0.00    +0.157 HD
BRANCH   9  11
ATOM     11  C   LIG    1      -33.348  76.211  29.905  0.00  0.00    +0.043 A 
ATOM     12  C   LIG    1      -33.333  75.230  28.872  0.00  0.00    +0.003 A 
ATOM     13  C   LIG    1      -33.611  75.689  27.556  0.00  0.00    +0.011 A 
ATOM     14  C   LIG    1      -33.894  77.028  27.251  0.00  0.00    +0.013 A 
ATOM     15  C   LIG    1      -33.900  77.983  28.259  0.00  0.00    +0.057 A 
ATOM     16  C   LIG    1      -33.595  77.564  29.557  0.00  0.00    +0.036 A 
BRANCH  12  17
ATOM     17  C   LIG    1      -33.035  73.769  29.058  0.00  0.00    -0.016 A 
ATOM     18  C   LIG    1      -31.748  73.343  29.463  0.00  0.00    +0.008 A 
ATOM     19  C   LIG    1      -31.412  71.989  29.600  0.00  0.00    +0.001 A 
ATOM     20  C   LIG    1      -32.368  71.012  29.365  0.00  0.00    +0.000 A 
ATOM     21  C   LIG    1      -33.648  71.392  28.976  0.00  0.00    +0.001 A 
ATOM     22  C   LIG    1      -33.970  72.749  28.809  0.00  0.00    +0.008 A 
ENDBRANCH  12  17
BRANCH  15  23
ATOM     23  C   LIG    1      -34.250  79.426  27.987  0.00  0.00    +0.417 C 
ATOM     24  F   LIG    1      -35.556  79.584  27.638  0.00  0.00    -0.166 F 
ATOM     25  F   LIG    1      -33.517  79.967  26.979  0.00  0.00    -0.166 F 
ATOM     26  F   LIG    1      -34.058  80.235  29.066  0.00  0.00    -0.166 F 
ENDBRANCH  15  23
ENDBRANCH   9  11
ENDBRANCH   8   9
BRANCH   8  27
ATOM     27  O   LIG    1      -32.346  77.300  32.848  0.00  0.00    -0.481 OA
ATOM     28  H   LIG    1      -32.840  77.070  33.645  0.00  0.00    +0.295 HD
ENDBRANCH   8  27
ENDBRANCH   4   7
BRANCH   1  29
ATOM     29  O   LIG    1      -26.504  77.442  34.753  0.00  0.00    -0.424 OA
BRANCH  29  33
ATOM     30  C   LIG    1      -23.049  77.058  32.373  0.00  0.00    -0.014 A 
ATOM     31  C   LIG    1      -23.453  78.312  32.867  0.00  0.00    +0.012 A 
ATOM     32  C   LIG    1      -24.549  78.454  33.713  0.00  0.00    +0.047 A 
ATOM     33  C   LIG    1      -25.354  77.357  34.007  0.00  0.00    +0.132 A 
ATOM     34  C   LIG    1      -24.970  76.095  33.565  0.00  0.00    +0.047 A 
ATOM     35  C   LIG    1      -23.820  75.949  32.773  0.00  0.00    +0.012 A 
BRANCH  30  37
ATOM     36  C   LIG    1      -21.830  77.225  30.112  0.00  0.00    +0.124 A 
ATOM     37  C   LIG    1      -21.849  76.952  31.495  0.00  0.00    +0.023 A 
ATOM     38  C   LIG    1      -20.608  76.578  32.059  0.00  0.00    +0.033 A 
ATOM     39  C   LIG    1      -19.457  76.506  31.286  0.00  0.00    +0.060 A 
ATOM     40 CL   LIG    1      -17.950  76.100  31.998  0.00  0.00    -0.082 Cl
ATOM     41  C   LIG    1      -19.564  76.778  29.940  0.00  0.00    +0.133 A 
ATOM     42  N   LIG    1      -20.723  77.127  29.340  0.00  0.00    -0.239 NA
BRANCH  36  43
ATOM     43  N   LIG    1      -22.956  77.627  29.396  0.00  0.00    -0.343 N 
ATOM     44  H   LIG    1      -22.877  78.597  29.113  0.00  0.00    +0.144 HD
ATOM     45  H   LIG    1      -23.030  77.003  28.596  0.00  0.00    +0.144 HD
ENDBRANCH  36  43
ENDBRANCH  30  37
ENDBRANCH  29  33
ENDBRANCH   1  29
TORSDOF 10
ENDMDL
MODEL 9
REMARK VINA RESULT:      -7.0     10.708     15.311
REMARK  Name = pdb/CHEMBL3962675.pdb
REMARK                            x       y       z     vdW  Elec       q    Type
REMARK                         _______ _______ _______ _____ _____    ______ ____
ROOT
ATOM      1  C   LIG    1      -36.054  80.186  29.682  0.00  0.00    +0.323 A 
ATOM      2  N   LIG    1      -36.992  80.155  28.710  0.00  0.00    -0.201 NA
ATOM      3  C   LIG    1      -36.888  79.151  27.803  0.00  0.00    +0.145 A 
ATOM      4  C   LIG    1      -35.871  78.225  27.785  0.00  0.00    +0.105 A 
ATOM      5  C   LIG    1      -34.975  78.383  28.831  0.00  0.00    +0.145 A 
ATOM      6  N   LIG    1      -35.025  79.344  29.784  0.00  0.00    -0.201 NA
ENDROOT
BRANCH   4   7
ATOM      7  N   LIG    1      -35.826  77.148  26.859  0.00  0.00    -0.196 NA
ATOM      8  C   LIG    1      -36.619  76.148  27.003  0.00  0.00    +0.285 C 
BRANCH   8   9
ATOM      9  N   LIG    1      -36.770  75.134  26.089  0.00  0.00    -0.269 N 
ATOM     10  H   LIG    1      -35.933  75.008  25.527  0.00  0.00    +0.157 HD
BRANCH   9  11
ATOM     11  C   LIG    1      -37.939  74.886  25.304  0.00  0.00    +0.043 A 
ATOM     12  C   LIG    1      -38.432  73.569  25.077  0.00  0.00    +0.003 A 
ATOM     13  C   LIG    1      -39.661  73.464  24.370  0.00  0.00    +0.011 A 
ATOM     14  C   LIG    1      -40.380  74.576  23.908  0.00  0.00    +0.013 A 
ATOM     15  C   LIG    1      -39.893  75.858  24.124  0.00  0.00    +0.057 A 
ATOM     16  C   LIG    1      -38.669  75.988  24.788  0.00  0.00    +0.036 A 
BRANCH  12  17
ATOM     17  C   LIG    1      -37.758  72.297  25.506  0.00  0.00    -0.016 A 
ATOM     18  C   LIG    1      -37.655  71.965  26.878  0.00  0.00    +0.008 A 
ATOM     19  C   LIG    1      -36.990  70.815  27.326  0.00  0.00    +0.001 A 
ATOM     20  C   LIG    1      -36.430  69.938  26.408  0.00  0.00    +0.000 A 
ATOM     21  C   LIG    1      -36.521  70.224  25.050  0.00  0.00    +0.001 A 
ATOM     22  C   LIG    1      -37.160  71.395  24.609  0.00  0.00    +0.008 A 
ENDBRANCH  12  17
BRANCH  15  23
ATOM     23  C   LIG    1      -40.658  77.085  23.692  0.00  0.00    +0.417 C 
ATOM     24  F   LIG    1      -41.731  76.777  22.912  0.00  0.00    -0.166 F 
ATOM     25  F   LIG    1      -39.901  77.955  22.974  0.00  0.00    -0.166 F 
ATOM     26  F   LIG    1      -41.159  77.799  24.739  0.00  0.00    -0.166 F 
ENDBRANCH  15  23
ENDBRANCH   9  11
ENDBRANCH   8   9
BRANCH   8  27
ATOM     27  O   LIG    1      -37.378  75.994  28.114  0.00  0.00    -0.481 OA
ATOM     28  H   LIG    1      -37.882  76.793  28.312  0.00  0.00    +0.295 HD
ENDBRANCH   8  27
ENDBRANCH   4   7
BRANCH   1  29
ATOM     29  O   LIG    1      -36.153  81.113  30.714  0.00  0.00    -0.424 OA
BRANCH  29  33
ATOM     30  C   LIG    1      -33.709  84.543  30.583  0.00  0.00    -0.014 A 
ATOM     31  C   LIG    1      -34.088  83.877  29.402  0.00  0.00    +0.012 A 
ATOM     32  C   LIG    1      -34.952  82.786  29.415  0.00  0.00    +0.047 A 
ATOM     33  C   LIG    1      -35.382  82.246  30.624  0.00  0.00    +0.132 A 
ATOM     34  C   LIG    1      -35.055  82.894  31.810  0.00  0.00    +0.047 A 
ATOM     35  C   LIG    1      -34.244  84.039  31.784  0.00  0.00    +0.012 A 
BRANCH  30  37
ATOM     36  C   LIG    1      -31.485  85.768  31.003  0.00  0.00    +0.124 A 
ATOM     37  C   LIG    1      -32.808  85.728  30.516  0.00  0.00    +0.023 A 
ATOM     38  C   LIG    1      -33.265  86.914  29.899  0.00  0.00    +0.033 A 
ATOM     39  C   LIG    1      -32.445  88.028  29.779  0.00  0.00    +0.060 A 
ATOM     40 CL   LIG    1      -33.001  89.442  28.983  0.00  0.00    -0.082 Cl
ATOM     41  C   LIG    1      -31.176  87.956  30.310  0.00  0.00    +0.133 A 
ATOM     42  N   LIG    1      -30.685  86.856  30.923  0.00  0.00    -0.239 NA
BRANCH  36  43
ATOM     43  N   LIG    1      -30.864  84.683  31.620  0.00  0.00    -0.343 N 
ATOM     44  H   LIG    1      -31.429  83.846  31.535  0.00  0.00    +0.144 HD
ATOM     45  H   LIG    1      -29.956  84.576  31.173  0.00  0.00    +0.144 HD
ENDBRANCH  36  43
ENDBRANCH  30  37
ENDBRANCH  29  33
ENDBRANCH   1  29
TORSDOF 10
ENDMDL
