MODEL 1
REMARK VINA RESULT:      -6.5      0.000      0.000
REMARK  Name = pdb/CHEMBL3902577.pdb
REMARK                            x       y       z     vdW  Elec       q    Type
REMARK                         _______ _______ _______ _____ _____    ______ ____
ROOT
ATOM      1  C   LIG    1      -37.286  76.572  26.646  0.00  0.00    +0.149 A 
ATOM      2  N   LIG    1      -38.371  77.270  26.274  0.00  0.00    -0.160 NA
ATOM      3  N   LIG    1      -39.140  76.405  25.549  0.00  0.00    -0.218 N 
ATOM      4  C   LIG    1      -38.478  75.176  25.368  0.00  0.00    +0.129 A 
ATOM      5  C   LIG    1      -37.313  75.275  26.096  0.00  0.00    +0.078 A 
ENDROOT
BRANCH   3   6
ATOM      6  C   LIG    1      -40.425  76.849  25.088  0.00  0.00    +0.067 A 
ATOM      7  C   LIG    1      -40.849  76.483  23.797  0.00  0.00    +0.028 A 
ATOM      8  C   LIG    1      -42.072  76.934  23.284  0.00  0.00    +0.002 A 
ATOM      9  C   LIG    1      -42.881  77.775  24.041  0.00  0.00    +0.000 A 
ATOM     10  C   LIG    1      -42.471  78.153  25.317  0.00  0.00    +0.002 A 
ATOM     11  C   LIG    1      -41.251  77.690  25.841  0.00  0.00    +0.028 A 
ENDBRANCH   3   6
BRANCH   4  12
ATOM     12  N   LIG    1      -38.840  74.086  24.570  0.00  0.00    -0.266 N 
ATOM     13  H   LIG    1      -38.349  73.968  23.693  0.00  0.00    +0.157 HD
ATOM     14  C   LIG    1      -39.835  73.100  24.932  0.00  0.00    +0.251 C 
ATOM     15  O   LIG    1      -40.440  73.153  25.990  0.00  0.00    -0.270 OA
BRANCH  14  16
ATOM     16  C   LIG    1      -40.075  71.982  23.988  0.00  0.00    +0.056 A 
ATOM     17  C   LIG    1      -41.222  71.885  23.210  0.00  0.00    +0.054 A 
ATOM     18 CL   LIG    1      -42.534  72.996  23.273  0.00  0.00    -0.083 Cl
ATOM     19  C   LIG    1      -41.369  70.820  22.331  0.00  0.00    +0.041 A 
ATOM     20  C   LIG    1      -40.389  69.823  22.222  0.00  0.00    +0.052 A 
ATOM     21 CL   LIG    1      -40.698  68.683  20.960  0.00  0.00    -0.083 Cl
ATOM     22  C   LIG    1      -39.238  69.835  23.038  0.00  0.00    +0.022 A 
ATOM     23  C   LIG    1      -39.107  70.955  23.908  0.00  0.00    +0.026 A 
BRANCH  22  24
ATOM     24  C   LIG    1      -38.162  68.801  23.042  0.00  0.00    +0.107 A 
ATOM     25  C   LIG    1      -37.196  68.630  22.046  0.00  0.00    +0.149 A 
ATOM     26  F   LIG    1      -37.188  69.360  20.925  0.00  0.00    -0.203 F 
ATOM     27  C   LIG    1      -36.233  67.633  22.161  0.00  0.00    +0.042 A 
ATOM     28  C   LIG    1      -36.275  66.768  23.243  0.00  0.00    +0.023 A 
ATOM     29  C   LIG    1      -37.282  66.949  24.172  0.00  0.00    +0.111 A 
ATOM     30  N   LIG    1      -38.210  67.940  24.103  0.00  0.00    -0.252 NA
ENDBRANCH  22  24
ENDBRANCH  14  16
ENDBRANCH   4  12
BRANCH   1  32
ATOM     31  N   LIG    1      -35.072  77.356  26.935  0.00  0.00    -0.221 NA
ATOM     32  C   LIG    1      -36.208  77.118  27.478  0.00  0.00    +0.238 C 
BRANCH  32  33
ATOM     33  O   LIG    1      -36.523  77.286  28.777  0.00  0.00    -0.491 OA
ATOM     34  H   LIG    1      -36.816  78.186  29.002  0.00  0.00    +0.294 HD
ENDBRANCH  32  33
BRANCH  31  35
ATOM     35  C   LIG    1      -33.910  77.860  27.684  0.00  0.00    +0.294 C 
BRANCH  35  38
ATOM     36  C   LIG    1      -34.652  81.076  29.564  0.00  0.00    +0.174 C 
ATOM     37  N   LIG    1      -34.420  79.669  29.253  0.00  0.00    -0.255 NA
ATOM     38  C   LIG    1      -34.103  79.330  28.051  0.00  0.00    +0.222 C 
BRANCH  38  39
ATOM     39  O   LIG    1      -33.978  80.197  27.035  0.00  0.00    -0.493 OA
ATOM     40  H   LIG    1      -33.940  79.772  26.166  0.00  0.00    +0.293 HD
ENDBRANCH  38  39
ENDBRANCH  35  38
BRANCH  35  41
ATOM     41  C   LIG    1      -32.716  77.705  26.838  0.00  0.00    +0.099 C 
ATOM     42  N   LIG    1      -31.744  77.569  26.191  0.00  0.00    -0.194 NA
ENDBRANCH  35  41
ENDBRANCH  31  35
ENDBRANCH   1  32
TORSDOF 10
ENDMDL
MODEL 2
REMARK VINA RESULT:      -6.5      2.599      3.620
REMARK  Name = pdb/CHEMBL3902577.pdb
REMARK                            x       y       z     vdW  Elec       q    Type
REMARK                         _______ _______ _______ _____ _____    ______ ____
ROOT
ATOM      1  C   LIG    1      -37.989  76.628  26.096  0.00  0.00    +0.149 A 
ATOM      2  N   LIG    1      -39.100  76.485  25.356  0.00  0.00    -0.160 NA
ATOM      3  N   LIG    1      -39.096  75.192  24.921  0.00  0.00    -0.218 N 
ATOM      4  C   LIG    1      -37.907  74.539  25.300  0.00  0.00    +0.129 A 
ATOM      5  C   LIG    1      -37.221  75.447  26.075  0.00  0.00    +0.078 A 
ENDROOT
BRANCH   3   6
ATOM      6  C   LIG    1      -40.223  74.714  24.171  0.00  0.00    +0.067 A 
ATOM      7  C   LIG    1      -41.190  75.637  23.732  0.00  0.00    +0.028 A 
ATOM      8  C   LIG    1      -42.333  75.212  23.041  0.00  0.00    +0.002 A 
ATOM      9  C   LIG    1      -42.540  73.859  22.798  0.00  0.00    +0.000 A 
ATOM     10  C   LIG    1      -41.596  72.932  23.235  0.00  0.00    +0.002 A 
ATOM     11  C   LIG    1      -40.441  73.356  23.915  0.00  0.00    +0.028 A 
ENDBRANCH   3   6
BRANCH   4  12
ATOM     12  N   LIG    1      -37.437  73.274  24.934  0.00  0.00    -0.266 N 
ATOM     13  H   LIG    1      -36.891  73.208  24.084  0.00  0.00    +0.157 HD
ATOM     14  C   LIG    1      -37.645  72.068  25.705  0.00  0.00    +0.251 C 
ATOM     15  O   LIG    1      -38.258  72.074  26.760  0.00  0.00    -0.270 OA
BRANCH  14  16
ATOM     16  C   LIG    1      -37.047  70.810  25.194  0.00  0.00    +0.056 A 
ATOM     17  C   LIG    1      -35.835  70.310  25.655  0.00  0.00    +0.054 A 
ATOM     18 CL   LIG    1      -34.841  71.094  26.820  0.00  0.00    -0.083 Cl
ATOM     19  C   LIG    1      -35.347  69.113  25.146  0.00  0.00    +0.041 A 
ATOM     20  C   LIG    1      -36.043  68.402  24.158  0.00  0.00    +0.052 A 
ATOM     21 CL   LIG    1      -35.339  66.868  23.783  0.00  0.00    -0.083 Cl
ATOM     22  C   LIG    1      -37.242  68.900  23.605  0.00  0.00    +0.022 A 
ATOM     23  C   LIG    1      -37.727  70.114  24.169  0.00  0.00    +0.026 A 
BRANCH  22  24
ATOM     24  C   LIG    1      -38.034  68.254  22.517  0.00  0.00    +0.107 A 
ATOM     25  C   LIG    1      -37.925  68.542  21.153  0.00  0.00    +0.149 A 
ATOM     26  F   LIG    1      -37.121  69.504  20.686  0.00  0.00    -0.203 F 
ATOM     27  C   LIG    1      -38.713  67.868  20.226  0.00  0.00    +0.042 A 
ATOM     28  C   LIG    1      -39.652  66.950  20.669  0.00  0.00    +0.023 A 
ATOM     29  C   LIG    1      -39.754  66.742  22.031  0.00  0.00    +0.111 A 
ATOM     30  N   LIG    1      -38.969  67.358  22.954  0.00  0.00    -0.252 NA
ENDBRANCH  22  24
ENDBRANCH  14  16
ENDBRANCH   4  12
BRANCH   1  32
ATOM     31  N   LIG    1      -36.475  77.937  27.359  0.00  0.00    -0.221 NA
ATOM     32  C   LIG    1      -37.620  77.868  26.787  0.00  0.00    +0.238 C 
BRANCH  32  33
ATOM     33  O   LIG    1      -38.567  78.826  26.779  0.00  0.00    -0.491 OA
ATOM     34  H   LIG    1      -39.353  78.613  27.311  0.00  0.00    +0.294 HD
ENDBRANCH  32  33
BRANCH  31  35
ATOM     35  C   LIG    1      -36.023  79.113  28.118  0.00  0.00    +0.294 C 
BRANCH  35  38
ATOM     36  C   LIG    1      -32.368  79.171  27.086  0.00  0.00    +0.174 C 
ATOM     37  N   LIG    1      -33.826  79.154  27.036  0.00  0.00    -0.255 NA
ATOM     38  C   LIG    1      -34.498  79.187  28.137  0.00  0.00    +0.222 C 
BRANCH  38  39
ATOM     39  O   LIG    1      -33.940  79.225  29.356  0.00  0.00    -0.493 OA
ATOM     40  H   LIG    1      -34.484  78.816  30.043  0.00  0.00    +0.293 HD
ENDBRANCH  38  39
ENDBRANCH  35  38
BRANCH  35  41
ATOM     41  C   LIG    1      -36.539  79.000  29.491  0.00  0.00    +0.099 C 
ATOM     42  N   LIG    1      -36.920  78.897  30.599  0.00  0.00    -0.194 NA
ENDBRANCH  35  41
ENDBRANCH  31  35
ENDBRANCH   1  32
TORSDOF 10
ENDMDL
MODEL 3
REMARK VINA RESULT:      -6.5      5.192      8.433
REMARK  Name = pdb/CHEMBL3902577.pdb
REMARK                            x       y       z     vdW  Elec       q    Type
REMARK                         _______ _______ _______ _____ _____    ______ ____
ROOT
ATOM      1  C   LIG    1      -31.763  73.915  29.738  0.00  0.00    +0.149 A 
ATOM      2  N   LIG    1      -31.605  75.210  29.425  0.00  0.00    -0.160 NA
ATOM      3  N   LIG    1      -32.678  75.540  28.648  0.00  0.00    -0.218 N 
ATOM      4  C   LIG    1      -33.467  74.406  28.376  0.00  0.00    +0.129 A 
ATOM      5  C   LIG    1      -32.899  73.381  29.098  0.00  0.00    +0.078 A 
ENDROOT
BRANCH   3   6
ATOM      6  C   LIG    1      -32.832  76.905  28.230  0.00  0.00    +0.067 A 
ATOM      7  C   LIG    1      -33.727  77.735  28.931  0.00  0.00    +0.028 A 
ATOM      8  C   LIG    1      -33.949  79.059  28.529  0.00  0.00    +0.002 A 
ATOM      9  C   LIG    1      -33.301  79.568  27.409  0.00  0.00    +0.000 A 
ATOM     10  C   LIG    1      -32.420  78.755  26.700  0.00  0.00    +0.002 A 
ATOM     11  C   LIG    1      -32.182  77.431  27.109  0.00  0.00    +0.028 A 
ENDBRANCH   3   6
BRANCH   4  12
ATOM     12  N   LIG    1      -34.555  74.274  27.506  0.00  0.00    -0.266 N 
ATOM     13  H   LIG    1      -34.352  74.069  26.535  0.00  0.00    +0.157 HD
ATOM     14  C   LIG    1      -35.941  74.369  27.908  0.00  0.00    +0.251 C 
ATOM     15  O   LIG    1      -36.264  74.573  29.067  0.00  0.00    -0.270 OA
BRANCH  14  16
ATOM     16  C   LIG    1      -36.978  74.166  26.867  0.00  0.00    +0.056 A 
ATOM     17  C   LIG    1      -37.279  72.918  26.336  0.00  0.00    +0.054 A 
ATOM     18 CL   LIG    1      -36.467  71.462  26.758  0.00  0.00    -0.083 Cl
ATOM     19  C   LIG    1      -38.278  72.801  25.378  0.00  0.00    +0.041 A 
ATOM     20  C   LIG    1      -38.982  73.923  24.916  0.00  0.00    +0.052 A 
ATOM     21 CL   LIG    1      -40.283  73.533  23.847  0.00  0.00    -0.083 Cl
ATOM     22  C   LIG    1      -38.668  75.222  25.370  0.00  0.00    +0.022 A 
ATOM     23  C   LIG    1      -37.659  75.302  26.371  0.00  0.00    +0.026 A 
BRANCH  22  24
ATOM     24  C   LIG    1      -39.315  76.486  24.909  0.00  0.00    +0.107 A 
ATOM     25  C   LIG    1      -38.774  77.385  23.986  0.00  0.00    +0.149 A 
ATOM     26  F   LIG    1      -37.553  77.225  23.462  0.00  0.00    -0.203 F 
ATOM     27  C   LIG    1      -39.474  78.532  23.625  0.00  0.00    +0.042 A 
ATOM     28  C   LIG    1      -40.688  78.808  24.234  0.00  0.00    +0.023 A 
ATOM     29  C   LIG    1      -41.152  77.912  25.178  0.00  0.00    +0.111 A 
ATOM     30  N   LIG    1      -40.506  76.765  25.518  0.00  0.00    -0.252 NA
ENDBRANCH  22  24
ENDBRANCH  14  16
ENDBRANCH   4  12
BRANCH   1  32
ATOM     31  N   LIG    1      -30.765  71.891  30.454  0.00  0.00    -0.221 NA
ATOM     32  C   LIG    1      -30.841  73.162  30.597  0.00  0.00    +0.238 C 
BRANCH  32  33
ATOM     33  O   LIG    1      -30.173  73.905  31.500  0.00  0.00    -0.491 OA
ATOM     34  H   LIG    1      -30.697  74.146  32.283  0.00  0.00    +0.294 HD
ENDBRANCH  32  33
BRANCH  31  35
ATOM     35  C   LIG    1      -29.910  71.035  31.290  0.00  0.00    +0.294 C 
BRANCH  35  38
ATOM     36  C   LIG    1      -26.252  72.048  31.161  0.00  0.00    +0.174 C 
ATOM     37  N   LIG    1      -27.633  71.882  31.600  0.00  0.00    -0.255 NA
ATOM     38  C   LIG    1      -28.445  71.179  30.886  0.00  0.00    +0.222 C 
BRANCH  38  39
ATOM     39  O   LIG    1      -28.106  70.583  29.732  0.00  0.00    -0.493 OA
ATOM     40  H   LIG    1      -28.689  69.850  29.491  0.00  0.00    +0.293 HD
ENDBRANCH  38  39
ENDBRANCH  35  38
BRANCH  35  41
ATOM     41  C   LIG    1      -30.346  69.641  31.117  0.00  0.00    +0.099 C 
ATOM     42  N   LIG    1      -30.728  68.536  30.984  0.00  0.00    -0.194 NA
ENDBRANCH  35  41
ENDBRANCH  31  35
ENDBRANCH   1  32
TORSDOF 10
ENDMDL
MODEL 4
REMARK VINA RESULT:      -6.4     17.732     20.101
REMARK  Name = pdb/CHEMBL3902577.pdb
REMARK                            x       y       z     vdW  Elec       q    Type
REMARK                         _______ _______ _______ _____ _____    ______ ____
ROOT
ATOM      1  C   LIG    1      -22.702  83.005  15.399  0.00  0.00    +0.149 A 
ATOM      2  N   LIG    1      -23.714  82.420  14.740  0.00  0.00    -0.160 NA
ATOM      3  N   LIG    1      -23.571  81.079  14.952  0.00  0.00    -0.218 N 
ATOM      4  C   LIG    1      -22.386  80.807  15.662  0.00  0.00    +0.129 A 
ATOM      5  C   LIG    1      -21.853  82.037  15.974  0.00  0.00    +0.078 A 
ENDROOT
BRANCH   3   6
ATOM      6  C   LIG    1      -24.574  80.190  14.437  0.00  0.00    +0.067 A 
ATOM      7  C   LIG    1      -24.979  80.323  13.096  0.00  0.00    +0.028 A 
ATOM      8  C   LIG    1      -25.991  79.513  12.563  0.00  0.00    +0.002 A 
ATOM      9  C   LIG    1      -26.630  78.575  13.366  0.00  0.00    +0.000 A 
ATOM     10  C   LIG    1      -26.247  78.438  14.698  0.00  0.00    +0.002 A 
ATOM     11  C   LIG    1      -25.222  79.238  15.232  0.00  0.00    +0.028 A 
ENDBRANCH   3   6
BRANCH   4  12
ATOM     12  N   LIG    1      -21.791  79.574  15.950  0.00  0.00    -0.266 N 
ATOM     13  H   LIG    1      -21.769  79.283  16.919  0.00  0.00    +0.157 HD
ATOM     14  C   LIG    1      -21.245  78.676  14.956  0.00  0.00    +0.251 C 
ATOM     15  O   LIG    1      -21.271  78.940  13.765  0.00  0.00    -0.270 OA
BRANCH  14  16
ATOM     16  C   LIG    1      -20.681  77.387  15.425  0.00  0.00    +0.056 A 
ATOM     17  C   LIG    1      -19.354  77.240  15.810  0.00  0.00    +0.054 A 
ATOM     18 CL   LIG    1      -18.179  78.494  15.743  0.00  0.00    -0.083 Cl
ATOM     19  C   LIG    1      -18.902  76.006  16.261  0.00  0.00    +0.041 A 
ATOM     20  C   LIG    1      -19.752  74.893  16.318  0.00  0.00    +0.052 A 
ATOM     21 CL   LIG    1      -19.030  73.506  17.054  0.00  0.00    -0.083 Cl
ATOM     22  C   LIG    1      -21.089  74.969  15.872  0.00  0.00    +0.022 A 
ATOM     23  C   LIG    1      -21.527  76.254  15.444  0.00  0.00    +0.026 A 
BRANCH  22  24
ATOM     24  C   LIG    1      -22.063  73.838  15.840  0.00  0.00    +0.107 A 
ATOM     25  C   LIG    1      -22.993  73.539  16.839  0.00  0.00    +0.149 A 
ATOM     26  F   LIG    1      -23.054  74.222  17.988  0.00  0.00    -0.203 F 
ATOM     27  C   LIG    1      -23.859  72.459  16.696  0.00  0.00    +0.042 A 
ATOM     28  C   LIG    1      -23.752  71.643  15.581  0.00  0.00    +0.023 A 
ATOM     29  C   LIG    1      -22.780  71.955  14.649  0.00  0.00    +0.111 A 
ATOM     30  N   LIG    1      -21.949  73.026  14.747  0.00  0.00    -0.252 NA
ENDBRANCH  22  24
ENDBRANCH  14  16
ENDBRANCH   4  12
BRANCH   1  32
ATOM     31  N   LIG    1      -22.024  85.058  14.436  0.00  0.00    -0.221 NA
ATOM     32  C   LIG    1      -22.498  84.457  15.463  0.00  0.00    +0.238 C 
BRANCH  32  33
ATOM     33  O   LIG    1      -22.808  85.022  16.646  0.00  0.00    -0.491 OA
ATOM     34  H   LIG    1      -23.007  85.972  16.593  0.00  0.00    +0.294 HD
ENDBRANCH  32  33
BRANCH  31  35
ATOM     35  C   LIG    1      -21.738  86.501  14.406  0.00  0.00    +0.294 C 
BRANCH  35  38
ATOM     36  C   LIG    1      -23.317  89.109  12.141  0.00  0.00    +0.174 C 
ATOM     37  N   LIG    1      -22.442  88.454  13.108  0.00  0.00    -0.255 NA
ATOM     38  C   LIG    1      -22.601  87.199  13.359  0.00  0.00    +0.222 C 
BRANCH  38  39
ATOM     39  O   LIG    1      -23.544  86.434  12.788  0.00  0.00    -0.493 OA
ATOM     40  H   LIG    1      -23.434  86.333  11.832  0.00  0.00    +0.293 HD
ENDBRANCH  38  39
ENDBRANCH  35  38
BRANCH  35  41
ATOM     41  C   LIG    1      -20.313  86.680  14.086  0.00  0.00    +0.099 C 
ATOM     42  N   LIG    1      -19.175  86.854  13.848  0.00  0.00    -0.194 NA
ENDBRANCH  35  41
ENDBRANCH  31  35
ENDBRANCH   1  32
TORSDOF 10
ENDMDL
MODEL 5
REMARK VINA RESULT:      -6.4      3.171      5.258
REMARK  Name = pdb/CHEMBL3902577.pdb
REMARK                            x       y       z     vdW  Elec       q    Type
REMARK                         _______ _______ _______ _____ _____    ______ ____
ROOT
ATOM      1  C   LIG    1      -37.235  79.905  27.587  0.00  0.00    +0.149 A 
ATOM      2  N   LIG    1      -36.259  79.213  28.195  0.00  0.00    -0.160 NA
ATOM      3  N   LIG    1      -36.401  77.922  27.777  0.00  0.00    -0.218 N 
ATOM      4  C   LIG    1      -37.552  77.776  26.981  0.00  0.00    +0.129 A 
ATOM      5  C   LIG    1      -38.061  79.046  26.835  0.00  0.00    +0.078 A 
ENDROOT
BRANCH   3   6
ATOM      6  C   LIG    1      -35.429  76.952  28.197  0.00  0.00    +0.067 A 
ATOM      7  C   LIG    1      -34.568  76.390  27.235  0.00  0.00    +0.028 A 
ATOM      8  C   LIG    1      -33.638  75.402  27.587  0.00  0.00    +0.002 A 
ATOM      9  C   LIG    1      -33.568  74.944  28.898  0.00  0.00    +0.000 A 
ATOM     10  C   LIG    1      -34.420  75.483  29.859  0.00  0.00    +0.002 A 
ATOM     11  C   LIG    1      -35.343  76.485  29.513  0.00  0.00    +0.028 A 
ENDBRANCH   3   6
BRANCH   4  12
ATOM     12  N   LIG    1      -38.142  76.609  26.483  0.00  0.00    -0.266 N 
ATOM     13  H   LIG    1      -38.850  76.165  27.055  0.00  0.00    +0.157 HD
ATOM     14  C   LIG    1      -37.837  76.021  25.197  0.00  0.00    +0.251 C 
ATOM     15  O   LIG    1      -37.025  76.521  24.436  0.00  0.00    -0.270 OA
BRANCH  14  16
ATOM     16  C   LIG    1      -38.580  74.800  24.802  0.00  0.00    +0.056 A 
ATOM     17  C   LIG    1      -39.838  74.840  24.214  0.00  0.00    +0.054 A 
ATOM     18 CL   LIG    1      -40.726  76.283  23.917  0.00  0.00    -0.083 Cl
ATOM     19  C   LIG    1      -40.466  73.655  23.850  0.00  0.00    +0.041 A 
ATOM     20  C   LIG    1      -39.865  72.410  24.082  0.00  0.00    +0.052 A 
ATOM     21 CL   LIG    1      -40.744  71.081  23.412  0.00  0.00    -0.083 Cl
ATOM     22  C   LIG    1      -38.620  72.308  24.740  0.00  0.00    +0.022 A 
ATOM     23  C   LIG    1      -37.993  73.542  25.073  0.00  0.00    +0.026 A 
BRANCH  22  24
ATOM     24  C   LIG    1      -37.917  71.037  25.083  0.00  0.00    +0.107 A 
ATOM     25  C   LIG    1      -37.431  70.104  24.162  0.00  0.00    +0.149 A 
ATOM     26  F   LIG    1      -37.616  70.236  22.844  0.00  0.00    -0.203 F 
ATOM     27  C   LIG    1      -36.782  68.954  24.600  0.00  0.00    +0.042 A 
ATOM     28  C   LIG    1      -36.675  68.708  25.960  0.00  0.00    +0.023 A 
ATOM     29  C   LIG    1      -37.220  69.638  26.825  0.00  0.00    +0.111 A 
ATOM     30  N   LIG    1      -37.822  70.788  26.423  0.00  0.00    -0.252 NA
ENDBRANCH  22  24
ENDBRANCH  14  16
ENDBRANCH   4  12
BRANCH   1  32
ATOM     31  N   LIG    1      -36.404  82.121  27.640  0.00  0.00    -0.221 NA
ATOM     32  C   LIG    1      -37.425  81.352  27.733  0.00  0.00    +0.238 C 
BRANCH  32  33
ATOM     33  O   LIG    1      -38.691  81.735  27.992  0.00  0.00    -0.491 OA
ATOM     34  H   LIG    1      -38.912  81.763  28.939  0.00  0.00    +0.294 HD
ENDBRANCH  32  33
BRANCH  31  35
ATOM     35  C   LIG    1      -36.473  83.580  27.816  0.00  0.00    +0.294 C 
BRANCH  35  38
ATOM     36  C   LIG    1      -36.477  86.101  24.976  0.00  0.00    +0.174 C 
ATOM     37  N   LIG    1      -36.701  85.464  26.269  0.00  0.00    -0.255 NA
ATOM     38  C   LIG    1      -36.208  84.294  26.493  0.00  0.00    +0.222 C 
BRANCH  38  39
ATOM     39  O   LIG    1      -35.496  83.595  25.596  0.00  0.00    -0.493 OA
ATOM     40  H   LIG    1      -35.076  82.806  25.966  0.00  0.00    +0.293 HD
ENDBRANCH  38  39
ENDBRANCH  35  38
BRANCH  35  41
ATOM     41  C   LIG    1      -35.463  83.971  28.811  0.00  0.00    +0.099 C 
ATOM     42  N   LIG    1      -34.682  84.290  29.630  0.00  0.00    -0.194 NA
ENDBRANCH  35  41
ENDBRANCH  31  35
ENDBRANCH   1  32
TORSDOF 10
ENDMDL
MODEL 6
REMARK VINA RESULT:      -6.4     16.753     20.910
REMARK  Name = pdb/CHEMBL3902577.pdb
REMARK                            x       y       z     vdW  Elec       q    Type
REMARK                         _______ _______ _______ _____ _____    ______ ____
ROOT
ATOM      1  C   LIG    1      -24.865  83.114  37.277  0.00  0.00    +0.149 A 
ATOM      2  N   LIG    1      -23.940  83.415  38.202  0.00  0.00    -0.160 NA
ATOM      3  N   LIG    1      -22.857  82.636  37.916  0.00  0.00    -0.218 N 
ATOM      4  C   LIG    1      -23.143  81.748  36.861  0.00  0.00    +0.129 A 
ATOM      5  C   LIG    1      -24.410  82.079  36.436  0.00  0.00    +0.078 A 
ENDROOT
BRANCH   3   6
ATOM      6  C   LIG    1      -21.662  82.806  38.692  0.00  0.00    +0.067 A 
ATOM      7  C   LIG    1      -20.562  83.467  38.114  0.00  0.00    +0.028 A 
ATOM      8  C   LIG    1      -19.356  83.612  38.813  0.00  0.00    +0.002 A 
ATOM      9  C   LIG    1      -19.222  83.081  40.091  0.00  0.00    +0.000 A 
ATOM     10  C   LIG    1      -20.298  82.416  40.674  0.00  0.00    +0.002 A 
ATOM     11  C   LIG    1      -21.514  82.282  39.981  0.00  0.00    +0.028 A 
ENDBRANCH   3   6
BRANCH   4  12
ATOM     12  N   LIG    1      -22.376  80.690  36.364  0.00  0.00    -0.266 N 
ATOM     13  H   LIG    1      -22.649  79.752  36.630  0.00  0.00    +0.157 HD
ATOM     14  C   LIG    1      -21.251  80.844  35.467  0.00  0.00    +0.251 C 
ATOM     15  O   LIG    1      -20.888  81.939  35.071  0.00  0.00    -0.270 OA
BRANCH  14  16
ATOM     16  C   LIG    1      -20.565  79.614  35.001  0.00  0.00    +0.056 A 
ATOM     17  C   LIG    1      -19.512  79.029  35.694  0.00  0.00    +0.054 A 
ATOM     18 CL   LIG    1      -18.823  79.670  37.134  0.00  0.00    -0.083 Cl
ATOM     19  C   LIG    1      -18.932  77.864  35.209  0.00  0.00    +0.041 A 
ATOM     20  C   LIG    1      -19.375  77.269  34.019  0.00  0.00    +0.052 A 
ATOM     21 CL   LIG    1      -18.625  75.748  33.684  0.00  0.00    -0.083 Cl
ATOM     22  C   LIG    1      -20.393  77.859  33.239  0.00  0.00    +0.022 A 
ATOM     23  C   LIG    1      -20.983  79.036  33.781  0.00  0.00    +0.026 A 
BRANCH  22  24
ATOM     24  C   LIG    1      -20.903  77.341  31.936  0.00  0.00    +0.107 A 
ATOM     25  C   LIG    1      -22.099  76.643  31.752  0.00  0.00    +0.149 A 
ATOM     26  F   LIG    1      -22.894  76.303  32.773  0.00  0.00    -0.203 F 
ATOM     27  C   LIG    1      -22.477  76.214  30.484  0.00  0.00    +0.042 A 
ATOM     28  C   LIG    1      -21.628  76.431  29.410  0.00  0.00    +0.023 A 
ATOM     29  C   LIG    1      -20.434  77.081  29.658  0.00  0.00    +0.111 A 
ATOM     30  N   LIG    1      -20.060  77.544  30.879  0.00  0.00    -0.252 NA
ENDBRANCH  22  24
ENDBRANCH  14  16
ENDBRANCH   4  12
BRANCH   1  32
ATOM     31  N   LIG    1      -26.475  84.429  36.146  0.00  0.00    -0.221 NA
ATOM     32  C   LIG    1      -26.181  83.756  37.196  0.00  0.00    +0.238 C 
BRANCH  32  33
ATOM     33  O   LIG    1      -26.959  83.595  38.284  0.00  0.00    -0.491 OA
ATOM     34  H   LIG    1      -27.304  82.692  38.397  0.00  0.00    +0.294 HD
ENDBRANCH  32  33
BRANCH  31  35
ATOM     35  C   LIG    1      -27.747  85.150  35.980  0.00  0.00    +0.294 C 
BRANCH  35  38
ATOM     36  C   LIG    1      -30.408  82.471  35.578  0.00  0.00    +0.174 C 
ATOM     37  N   LIG    1      -29.427  83.380  36.163  0.00  0.00    -0.255 NA
ATOM     38  C   LIG    1      -28.817  84.226  35.405  0.00  0.00    +0.222 C 
BRANCH  38  39
ATOM     39  O   LIG    1      -29.015  84.327  34.082  0.00  0.00    -0.493 OA
ATOM     40  H   LIG    1      -28.232  84.624  33.597  0.00  0.00    +0.293 HD
ENDBRANCH  38  39
ENDBRANCH  35  38
BRANCH  35  41
ATOM     41  C   LIG    1      -27.517  86.283  35.068  0.00  0.00    +0.099 C 
ATOM     42  N   LIG    1      -27.300  87.175  34.334  0.00  0.00    -0.194 NA
ENDBRANCH  35  41
ENDBRANCH  31  35
ENDBRANCH   1  32
TORSDOF 10
ENDMDL
MODEL 7
REMARK VINA RESULT:      -6.3      4.622      8.769
REMARK  Name = pdb/CHEMBL3902577.pdb
REMARK                            x       y       z     vdW  Elec       q    Type
REMARK                         _______ _______ _______ _____ _____    ______ ____
ROOT
ATOM      1  C   LIG    1      -37.165  76.021  26.012  0.00  0.00    +0.149 A 
ATOM      2  N   LIG    1      -37.954  74.983  25.695  0.00  0.00    -0.160 NA
ATOM      3  N   LIG    1      -38.945  75.494  24.908  0.00  0.00    -0.218 N 
ATOM      4  C   LIG    1      -38.841  76.895  24.818  0.00  0.00    +0.129 A 
ATOM      5  C   LIG    1      -37.689  77.223  25.494  0.00  0.00    +0.078 A 
ENDROOT
BRANCH   3   6
ATOM      6  C   LIG    1      -39.902  74.591  24.333  0.00  0.00    +0.067 A 
ATOM      7  C   LIG    1      -39.591  73.220  24.266  0.00  0.00    +0.028 A 
ATOM      8  C   LIG    1      -40.471  72.308  23.668  0.00  0.00    +0.002 A 
ATOM      9  C   LIG    1      -41.664  72.752  23.108  0.00  0.00    +0.000 A 
ATOM     10  C   LIG    1      -41.981  74.107  23.158  0.00  0.00    +0.002 A 
ATOM     11  C   LIG    1      -41.108  75.023  23.771  0.00  0.00    +0.028 A 
ENDBRANCH   3   6
BRANCH   4  12
ATOM     12  N   LIG    1      -39.729  77.812  24.245  0.00  0.00    -0.266 N 
ATOM     13  H   LIG    1      -39.665  77.961  23.246  0.00  0.00    +0.157 HD
ATOM     14  C   LIG    1      -40.753  78.527  24.977  0.00  0.00    +0.251 C 
ATOM     15  O   LIG    1      -40.917  78.371  26.175  0.00  0.00    -0.270 OA
BRANCH  14  16
ATOM     16  C   LIG    1      -41.639  79.438  24.211  0.00  0.00    +0.056 A 
ATOM     17  C   LIG    1      -42.935  79.098  23.846  0.00  0.00    +0.054 A 
ATOM     18 CL   LIG    1      -43.667  77.575  24.170  0.00  0.00    -0.083 Cl
ATOM     19  C   LIG    1      -43.716  80.011  23.148  0.00  0.00    +0.041 A 
ATOM     20  C   LIG    1      -43.216  81.270  22.784  0.00  0.00    +0.052 A 
ATOM     21 CL   LIG    1      -44.401  82.303  22.065  0.00  0.00    -0.083 Cl
ATOM     22  C   LIG    1      -41.884  81.640  23.068  0.00  0.00    +0.022 A 
ATOM     23  C   LIG    1      -41.123  80.691  23.808  0.00  0.00    +0.026 A 
BRANCH  22  24
ATOM     24  C   LIG    1      -41.237  82.928  22.683  0.00  0.00    +0.107 A 
ATOM     25  C   LIG    1      -41.487  84.171  23.272  0.00  0.00    +0.149 A 
ATOM     26  F   LIG    1      -42.412  84.338  24.224  0.00  0.00    -0.203 F 
ATOM     27  C   LIG    1      -40.815  85.307  22.833  0.00  0.00    +0.042 A 
ATOM     28  C   LIG    1      -39.938  85.210  21.764  0.00  0.00    +0.023 A 
ATOM     29  C   LIG    1      -39.768  83.966  21.185  0.00  0.00    +0.111 A 
ATOM     30  N   LIG    1      -40.381  82.835  21.621  0.00  0.00    -0.252 NA
ENDBRANCH  22  24
ENDBRANCH  14  16
ENDBRANCH   4  12
BRANCH   1  32
ATOM     31  N   LIG    1      -35.184  76.928  26.936  0.00  0.00    -0.221 NA
ATOM     32  C   LIG    1      -35.949  75.907  26.825  0.00  0.00    +0.238 C 
BRANCH  32  33
ATOM     33  O   LIG    1      -35.739  74.689  27.363  0.00  0.00    -0.491 OA
ATOM     34  H   LIG    1      -36.266  74.510  28.160  0.00  0.00    +0.294 HD
ENDBRANCH  32  33
BRANCH  31  35
ATOM     35  C   LIG    1      -33.919  76.911  27.688  0.00  0.00    +0.294 C 
BRANCH  35  38
ATOM     36  C   LIG    1      -34.884  78.400  31.046  0.00  0.00    +0.174 C 
ATOM     37  N   LIG    1      -34.772  77.494  29.907  0.00  0.00    -0.255 NA
ATOM     38  C   LIG    1      -34.012  77.813  28.916  0.00  0.00    +0.222 C 
BRANCH  38  39
ATOM     39  O   LIG    1      -33.306  78.952  28.847  0.00  0.00    -0.493 OA
ATOM     40  H   LIG    1      -32.485  78.867  28.342  0.00  0.00    +0.293 HD
ENDBRANCH  38  39
ENDBRANCH  35  38
BRANCH  35  41
ATOM     41  C   LIG    1      -32.848  77.383  26.796  0.00  0.00    +0.099 C 
ATOM     42  N   LIG    1      -32.015  77.759  26.056  0.00  0.00    -0.194 NA
ENDBRANCH  35  41
ENDBRANCH  31  35
ENDBRANCH   1  32
TORSDOF 10
ENDMDL
MODEL 8
REMARK VINA RESULT:      -6.3      3.381      6.294
REMARK  Name = pdb/CHEMBL3902577.pdb
REMARK                            x       y       z     vdW  Elec       q    Type
REMARK                         _______ _______ _______ _____ _____    ______ ____
ROOT
ATOM      1  C   LIG    1      -37.206  76.018  26.376  0.00  0.00    +0.149 A 
ATOM      2  N   LIG    1      -37.451  74.724  26.115  0.00  0.00    -0.160 NA
ATOM      3  N   LIG    1      -38.458  74.713  25.195  0.00  0.00    -0.218 N 
ATOM      4  C   LIG    1      -38.933  76.017  24.955  0.00  0.00    +0.129 A 
ATOM      5  C   LIG    1      -38.111  76.847  25.683  0.00  0.00    +0.078 A 
ENDROOT
BRANCH   3   6
ATOM      6  C   LIG    1      -38.879  73.453  24.649  0.00  0.00    +0.067 A 
ATOM      7  C   LIG    1      -40.158  73.353  24.072  0.00  0.00    +0.028 A 
ATOM      8  C   LIG    1      -40.633  72.133  23.573  0.00  0.00    +0.002 A 
ATOM      9  C   LIG    1      -39.848  70.989  23.663  0.00  0.00    +0.000 A 
ATOM     10  C   LIG    1      -38.583  71.069  24.240  0.00  0.00    +0.002 A 
ATOM     11  C   LIG    1      -38.097  72.295  24.728  0.00  0.00    +0.028 A 
ENDBRANCH   3   6
BRANCH   4  12
ATOM     12  N   LIG    1      -40.042  76.431  24.210  0.00  0.00    -0.266 N 
ATOM     13  H   LIG    1      -39.920  76.531  23.210  0.00  0.00    +0.157 HD
ATOM     14  C   LIG    1      -41.354  76.684  24.765  0.00  0.00    +0.251 C 
ATOM     15  O   LIG    1      -41.588  76.546  25.954  0.00  0.00    -0.270 OA
BRANCH  14  16
ATOM     16  C   LIG    1      -42.434  77.082  23.830  0.00  0.00    +0.056 A 
ATOM     17  C   LIG    1      -42.875  78.393  23.701  0.00  0.00    +0.054 A 
ATOM     18 CL   LIG    1      -42.282  79.713  24.633  0.00  0.00    -0.083 Cl
ATOM     19  C   LIG    1      -43.877  78.696  22.788  0.00  0.00    +0.041 A 
ATOM     20  C   LIG    1      -44.473  77.699  22.002  0.00  0.00    +0.052 A 
ATOM     21 CL   LIG    1      -45.581  78.315  20.827  0.00  0.00    -0.083 Cl
ATOM     22  C   LIG    1      -44.114  76.342  22.144  0.00  0.00    +0.022 A 
ATOM     23  C   LIG    1      -43.064  76.072  23.068  0.00  0.00    +0.026 A 
BRANCH  22  24
ATOM     24  C   LIG    1      -44.718  75.198  21.399  0.00  0.00    +0.107 A 
ATOM     25  C   LIG    1      -44.633  74.992  20.019  0.00  0.00    +0.149 A 
ATOM     26  F   LIG    1      -44.038  75.867  19.200  0.00  0.00    -0.203 F 
ATOM     27  C   LIG    1      -45.232  73.882  19.434  0.00  0.00    +0.042 A 
ATOM     28  C   LIG    1      -45.968  73.010  20.221  0.00  0.00    +0.023 A 
ATOM     29  C   LIG    1      -46.063  73.290  21.571  0.00  0.00    +0.111 A 
ATOM     30  N   LIG    1      -45.454  74.346  22.173  0.00  0.00    -0.252 NA
ENDBRANCH  22  24
ENDBRANCH  14  16
ENDBRANCH   4  12
BRANCH   1  32
ATOM     31  N   LIG    1      -35.107  77.024  26.807  0.00  0.00    -0.221 NA
ATOM     32  C   LIG    1      -36.162  76.484  27.295  0.00  0.00    +0.238 C 
BRANCH  32  33
ATOM     33  O   LIG    1      -36.413  76.259  28.599  0.00  0.00    -0.491 OA
ATOM     34  H   LIG    1      -37.300  75.904  28.779  0.00  0.00    +0.294 HD
ENDBRANCH  32  33
BRANCH  31  35
ATOM     35  C   LIG    1      -33.980  77.484  27.633  0.00  0.00    +0.294 C 
BRANCH  35  38
ATOM     36  C   LIG    1      -34.870  81.150  28.072  0.00  0.00    +0.174 C 
ATOM     37  N   LIG    1      -34.643  79.836  27.480  0.00  0.00    -0.255 NA
ATOM     38  C   LIG    1      -34.279  78.856  28.233  0.00  0.00    +0.222 C 
BRANCH  38  39
ATOM     39  O   LIG    1      -34.078  78.960  29.556  0.00  0.00    -0.493 OA
ATOM     40  H   LIG    1      -33.186  78.707  29.832  0.00  0.00    +0.293 HD
ENDBRANCH  38  39
ENDBRANCH  35  38
BRANCH  35  41
ATOM     41  C   LIG    1      -32.785  77.558  26.779  0.00  0.00    +0.099 C 
ATOM     42  N   LIG    1      -31.839  77.649  26.086  0.00  0.00    -0.194 NA
ENDBRANCH  35  41
ENDBRANCH  31  35
ENDBRANCH   1  32
TORSDOF 10
ENDMDL
MODEL 9
REMARK VINA RESULT:      -6.3     14.332     16.937
REMARK  Name = pdb/CHEMBL3902577.pdb
REMARK                            x       y       z     vdW  Elec       q    Type
REMARK                         _______ _______ _______ _____ _____    ______ ____
ROOT
ATOM      1  C   LIG    1      -23.764  78.734  34.228  0.00  0.00    +0.149 A 
ATOM      2  N   LIG    1      -22.735  78.682  33.368  0.00  0.00    -0.160 NA
ATOM      3  N   LIG    1      -22.910  77.537  32.646  0.00  0.00    -0.218 N 
ATOM      4  C   LIG    1      -24.005  76.799  33.134  0.00  0.00    +0.129 A 
ATOM      5  C   LIG    1      -24.565  77.579  34.119  0.00  0.00    +0.078 A 
ENDROOT
BRANCH   3   6
ATOM      6  C   LIG    1      -22.001  77.255  31.571  0.00  0.00    +0.067 A 
ATOM      7  C   LIG    1      -20.626  77.484  31.763  0.00  0.00    +0.028 A 
ATOM      8  C   LIG    1      -19.706  77.273  30.727  0.00  0.00    +0.002 A 
ATOM      9  C   LIG    1      -20.146  76.853  29.477  0.00  0.00    +0.000 A 
ATOM     10  C   LIG    1      -21.505  76.630  29.269  0.00  0.00    +0.002 A 
ATOM     11  C   LIG    1      -22.429  76.826  30.310  0.00  0.00    +0.028 A 
ENDBRANCH   3   6
BRANCH   4  12
ATOM     12  N   LIG    1      -24.430  75.512  32.786  0.00  0.00    -0.266 N 
ATOM     13  H   LIG    1      -24.109  74.744  33.362  0.00  0.00    +0.157 HD
ATOM     14  C   LIG    1      -25.323  75.214  31.688  0.00  0.00    +0.251 C 
ATOM     15  O   LIG    1      -25.782  76.090  30.974  0.00  0.00    -0.270 OA
BRANCH  14  16
ATOM     16  C   LIG    1      -25.707  73.797  31.475  0.00  0.00    +0.056 A 
ATOM     17  C   LIG    1      -26.951  73.291  31.831  0.00  0.00    +0.054 A 
ATOM     18 CL   LIG    1      -28.183  74.204  32.612  0.00  0.00    -0.083 Cl
ATOM     19  C   LIG    1      -27.249  71.958  31.582  0.00  0.00    +0.041 A 
ATOM     20  C   LIG    1      -26.311  71.098  30.992  0.00  0.00    +0.052 A 
ATOM     21 CL   LIG    1      -26.940  69.530  30.629  0.00  0.00    -0.083 Cl
ATOM     22  C   LIG    1      -25.009  71.542  30.675  0.00  0.00    +0.022 A 
ATOM     23  C   LIG    1      -24.748  72.920  30.919  0.00  0.00    +0.026 A 
BRANCH  22  24
ATOM     24  C   LIG    1      -23.919  70.702  30.096  0.00  0.00    +0.107 A 
ATOM     25  C   LIG    1      -23.938  70.108  28.831  0.00  0.00    +0.149 A 
ATOM     26  F   LIG    1      -24.999  70.184  28.019  0.00  0.00    -0.203 F 
ATOM     27  C   LIG    1      -22.857  69.350  28.392  0.00  0.00    +0.042 A 
ATOM     28  C   LIG    1      -21.785  69.136  29.244  0.00  0.00    +0.023 A 
ATOM     29  C   LIG    1      -21.842  69.703  30.503  0.00  0.00    +0.111 A 
ATOM     30  N   LIG    1      -22.868  70.480  30.940  0.00  0.00    -0.252 NA
ENDBRANCH  22  24
ENDBRANCH  14  16
ENDBRANCH   4  12
BRANCH   1  32
ATOM     31  N   LIG    1      -22.963  80.447  35.651  0.00  0.00    -0.221 NA
ATOM     32  C   LIG    1      -23.982  79.831  35.177  0.00  0.00    +0.238 C 
BRANCH  32  33
ATOM     33  O   LIG    1      -25.272  80.064  35.488  0.00  0.00    -0.491 OA
ATOM     34  H   LIG    1      -25.411  80.848  36.047  0.00  0.00    +0.294 HD
ENDBRANCH  32  33
BRANCH  31  35
ATOM     35  C   LIG    1      -23.065  81.531  36.642  0.00  0.00    +0.294 C 
BRANCH  35  38
ATOM     36  C   LIG    1      -20.281  83.904  37.660  0.00  0.00    +0.174 C 
ATOM     37  N   LIG    1      -21.480  83.074  37.691  0.00  0.00    -0.255 NA
ATOM     38  C   LIG    1      -21.787  82.365  36.659  0.00  0.00    +0.222 C 
BRANCH  38  39
ATOM     39  O   LIG    1      -21.071  82.344  35.524  0.00  0.00    -0.493 OA
ATOM     40  H   LIG    1      -20.523  83.131  35.397  0.00  0.00    +0.293 HD
ENDBRANCH  38  39
ENDBRANCH  35  38
BRANCH  35  41
ATOM     41  C   LIG    1      -23.288  80.924  37.964  0.00  0.00    +0.099 C 
ATOM     42  N   LIG    1      -23.439  80.457  39.032  0.00  0.00    -0.194 NA
ENDBRANCH  35  41
ENDBRANCH  31  35
ENDBRANCH   1  32
TORSDOF 10
ENDMDL
